MODEL 1
REMARK VINA RESULT:      -8.4      0.000      0.000
REMARK  3 active torsions:
REMARK  status: ('A' for Active; 'I' for Inactive)
REMARK    1  A    between atoms: C1_5  and  N1_4 
REMARK       I    between atoms: C5_9  and  N1_4 
REMARK    2  A    between atoms: C1_5  and  C2_6 
REMARK    3  A    between atoms: C5_9  and  C6_10 
ROOT
HETATM    1  C1  UNK     1      18.782  -6.724  36.214  1.00  0.00     0.092 C 
HETATM    2  C3  UNK     1      17.448  -7.289  35.702  1.00  0.00     0.053 C 
HETATM    3  C7  UNK     1      19.881  -7.273  35.392  1.00  0.00    -0.086 C 
HETATM    4  C16 UNK     1      20.772  -7.718  34.721  1.00  0.00     0.015 C 
ENDROOT
BRANCH   1   5
HETATM    5  N1  UNK     1      18.754  -5.286  36.074  1.00  0.00    -0.337 N 
HETATM    6  C5  UNK     1      19.823  -4.474  36.408  1.00  0.00     0.259 C 
HETATM    7  O2  UNK     1      20.907  -4.847  36.853  1.00  0.00    -0.267 OA
HETATM    8  H3  UNK     1      17.889  -4.863  35.749  1.00  0.00     0.164 HD
BRANCH   6   9
HETATM    9  C6  UNK     1      19.553  -3.050  36.175  1.00  0.00     0.108 A 
HETATM   10  C11 UNK     1      20.057  -2.341  34.976  1.00  0.00     0.304 A 
HETATM   11  O1  UNK     1      19.735  -0.992  34.867  1.00  0.00    -0.274 OA
HETATM   12  O3  UNK     1      20.725  -2.910  34.119  1.00  0.00    -0.259 OA
HETATM   13  C10 UNK     1      18.968  -0.329  35.845  1.00  0.00     0.089 A 
HETATM   14  C8  UNK     1      18.504  -1.014  36.963  1.00  0.00    -0.001 A 
HETATM   15  C13 UNK     1      18.696   1.023  35.648  1.00  0.00     0.038 A 
HETATM   16  C12 UNK     1      17.746  -0.323  37.911  1.00  0.00     0.014 A 
HETATM   17  C9  UNK     1      18.824  -2.426  37.106  1.00  0.00     0.037 A 
HETATM   18  C14 UNK     1      17.465   1.034  37.727  1.00  0.00     0.001 A 
HETATM   19  C15 UNK     1      17.939   1.706  36.598  1.00  0.00     0.003 A 
ENDBRANCH   6   9
ENDBRANCH   1   5
BRANCH   1  20
HETATM   20  C2  UNK     1      18.961  -7.119  37.699  1.00  0.00     0.040 C 
HETATM   21  C4  UNK     1      19.016  -8.623  37.959  1.00  0.00     0.009 C 
ENDBRANCH   1  20
TORSDOF 3
ENDMDL
MODEL 2
REMARK VINA RESULT:      -8.1      6.283     10.319
REMARK  3 active torsions:
REMARK  status: ('A' for Active; 'I' for Inactive)
REMARK    1  A    between atoms: C1_5  and  N1_4 
REMARK       I    between atoms: C5_9  and  N1_4 
REMARK    2  A    between atoms: C1_5  and  C2_6 
REMARK    3  A    between atoms: C5_9  and  C6_10 
ROOT
HETATM    1  C1  UNK     1      18.804   6.206  32.680  1.00  0.00     0.092 C 
HETATM    2  C3  UNK     1      18.400   6.836  31.337  1.00  0.00     0.053 C 
HETATM    3  C7  UNK     1      17.714   6.419  33.655  1.00  0.00    -0.086 C 
HETATM    4  C16 UNK     1      16.826   6.592  34.445  1.00  0.00     0.015 C 
ENDROOT
BRANCH   1   5
HETATM    5  N1  UNK     1      18.994   4.787  32.480  1.00  0.00    -0.337 N 
HETATM    6  C5  UNK     1      18.059   3.981  31.857  1.00  0.00     0.259 C 
HETATM    7  O2  UNK     1      16.976   4.342  31.401  1.00  0.00    -0.267 OA
HETATM    8  H3  UNK     1      19.843   4.370  32.853  1.00  0.00     0.164 HD
BRANCH   6   9
HETATM    9  C6  UNK     1      18.482   2.577  31.771  1.00  0.00     0.108 A 
HETATM   10  C11 UNK     1      18.397   1.660  32.930  1.00  0.00     0.304 A 
HETATM   11  O1  UNK     1      18.828   0.353  32.725  1.00  0.00    -0.274 OA
HETATM   12  O3  UNK     1      17.969   2.028  34.018  1.00  0.00    -0.259 OA
HETATM   13  C10 UNK     1      19.321  -0.081  31.478  1.00  0.00     0.089 A 
HETATM   14  C8  UNK     1      19.392   0.798  30.402  1.00  0.00    -0.001 A 
HETATM   15  C13 UNK     1      19.728  -1.409  31.369  1.00  0.00     0.038 A 
HETATM   16  C12 UNK     1      19.886   0.331  29.182  1.00  0.00     0.014 A 
HETATM   17  C9  UNK     1      18.949   2.172  30.585  1.00  0.00     0.037 A 
HETATM   18  C14 UNK     1      20.299  -0.998  29.057  1.00  0.00     0.001 A 
HETATM   19  C15 UNK     1      20.220  -1.867  30.148  1.00  0.00     0.003 A 
ENDBRANCH   6   9
ENDBRANCH   1   5
BRANCH   1  20
HETATM   20  C2  UNK     1      20.114   6.863  33.171  1.00  0.00     0.040 C 
HETATM   21  C4  UNK     1      21.379   6.367  32.475  1.00  0.00     0.009 C 
ENDBRANCH   1  20
TORSDOF 3
ENDMDL
MODEL 3
REMARK VINA RESULT:      -8.0      5.896     10.212
REMARK  3 active torsions:
REMARK  status: ('A' for Active; 'I' for Inactive)
REMARK    1  A    between atoms: C1_5  and  N1_4 
REMARK       I    between atoms: C5_9  and  N1_4 
REMARK    2  A    between atoms: C1_5  and  C2_6 
REMARK    3  A    between atoms: C5_9  and  C6_10 
ROOT
HETATM    1  C1  UNK     1      18.429   5.854  32.139  1.00  0.00     0.092 C 
HETATM    2  C3  UNK     1      17.030   6.068  32.738  1.00  0.00     0.053 C 
HETATM    3  C7  UNK     1      19.422   6.558  32.978  1.00  0.00    -0.086 C 
HETATM    4  C16 UNK     1      20.226   7.129  33.663  1.00  0.00     0.015 C 
ENDROOT
BRANCH   1   5
HETATM    5  N1  UNK     1      18.718   4.438  32.146  1.00  0.00    -0.337 N 
HETATM    6  C5  UNK     1      17.937   3.506  31.487  1.00  0.00     0.259 C 
HETATM    7  O2  UNK     1      16.926   3.741  30.828  1.00  0.00    -0.267 OA
HETATM    8  H3  UNK     1      19.514   4.124  32.694  1.00  0.00     0.164 HD
BRANCH   6   9
HETATM    9  C6  UNK     1      18.435   2.134  31.639  1.00  0.00     0.108 A 
HETATM   10  C11 UNK     1      18.295   1.384  32.909  1.00  0.00     0.304 A 
HETATM   11  O1  UNK     1      18.808   0.090  32.929  1.00  0.00    -0.274 OA
HETATM   12  O3  UNK     1      17.755   1.873  33.894  1.00  0.00    -0.259 OA
HETATM   13  C10 UNK     1      19.429  -0.483  31.802  1.00  0.00     0.089 A 
HETATM   14  C8  UNK     1      19.550   0.240  30.619  1.00  0.00    -0.001 A 
HETATM   15  C13 UNK     1      19.910  -1.785  31.919  1.00  0.00     0.038 A 
HETATM   16  C12 UNK     1      20.172  -0.361  29.523  1.00  0.00     0.014 A 
HETATM   17  C9  UNK     1      19.024   1.596  30.565  1.00  0.00     0.037 A 
HETATM   18  C14 UNK     1      20.661  -1.667  29.625  1.00  0.00     0.001 A 
HETATM   19  C15 UNK     1      20.530  -2.377  30.820  1.00  0.00     0.003 A 
ENDBRANCH   6   9
ENDBRANCH   1   5
BRANCH   1  20
HETATM   20  C2  UNK     1      18.448   6.403  30.694  1.00  0.00     0.040 C 
HETATM   21  C4  UNK     1      19.660   5.982  29.865  1.00  0.00     0.009 C 
ENDBRANCH   1  20
TORSDOF 3
ENDMDL
MODEL 4
REMARK VINA RESULT:      -8.0      4.587      9.055
REMARK  3 active torsions:
REMARK  status: ('A' for Active; 'I' for Inactive)
REMARK    1  A    between atoms: C1_5  and  N1_4 
REMARK       I    between atoms: C5_9  and  N1_4 
REMARK    2  A    between atoms: C1_5  and  C2_6 
REMARK    3  A    between atoms: C5_9  and  C6_10 
ROOT
HETATM    1  C1  UNK     1      18.589   5.596  32.734  1.00  0.00     0.092 C 
HETATM    2  C3  UNK     1      19.342   6.576  33.646  1.00  0.00     0.053 C 
HETATM    3  C7  UNK     1      19.290   5.517  31.434  1.00  0.00    -0.086 C 
HETATM    4  C16 UNK     1      19.861   5.453  30.380  1.00  0.00     0.015 C 
ENDROOT
BRANCH   1   5
HETATM    5  N1  UNK     1      18.596   4.292  33.359  1.00  0.00    -0.337 N 
HETATM    6  C5  UNK     1      18.050   3.169  32.765  1.00  0.00     0.259 C 
HETATM    7  O2  UNK     1      17.503   3.120  31.665  1.00  0.00    -0.267 OA
HETATM    8  H3  UNK     1      18.991   4.222  34.293  1.00  0.00     0.164 HD
BRANCH   6   9
HETATM    9  C6  UNK     1      18.182   1.964  33.595  1.00  0.00     0.108 A 
HETATM   10  C11 UNK     1      18.611   0.665  33.029  1.00  0.00     0.304 A 
HETATM   11  O1  UNK     1      18.699  -0.404  33.917  1.00  0.00    -0.274 OA
HETATM   12  O3  UNK     1      18.878   0.532  31.840  1.00  0.00    -0.259 OA
HETATM   13  C10 UNK     1      18.396  -0.261  35.285  1.00  0.00     0.089 A 
HETATM   14  C8  UNK     1      17.994   0.969  35.796  1.00  0.00    -0.001 A 
HETATM   15  C13 UNK     1      18.513  -1.389  36.095  1.00  0.00     0.038 A 
HETATM   16  C12 UNK     1      17.702   1.071  37.158  1.00  0.00     0.014 A 
HETATM   17  C9  UNK     1      17.893   2.106  34.893  1.00  0.00     0.037 A 
HETATM   18  C14 UNK     1      17.815  -0.051  37.983  1.00  0.00     0.001 A 
HETATM   19  C15 UNK     1      18.220  -1.279  37.453  1.00  0.00     0.003 A 
ENDBRANCH   6   9
ENDBRANCH   1   5
BRANCH   1  20
HETATM   20  C2  UNK     1      17.139   6.096  32.544  1.00  0.00     0.040 C 
HETATM   21  C4  UNK     1      17.006   7.384  31.734  1.00  0.00     0.009 C 
ENDBRANCH   1  20
TORSDOF 3
ENDMDL
MODEL 5
REMARK VINA RESULT:      -7.9      7.063     10.508
REMARK  3 active torsions:
REMARK  status: ('A' for Active; 'I' for Inactive)
REMARK    1  A    between atoms: C1_5  and  N1_4 
REMARK       I    between atoms: C5_9  and  N1_4 
REMARK    2  A    between atoms: C1_5  and  C2_6 
REMARK    3  A    between atoms: C5_9  and  C6_10 
ROOT
HETATM    1  C1  UNK     1      19.049   5.848  32.346  1.00  0.00     0.092 C 
HETATM    2  C3  UNK     1      20.401   6.573  32.439  1.00  0.00     0.053 C 
HETATM    3  C7  UNK     1      18.098   6.702  31.602  1.00  0.00    -0.086 C 
HETATM    4  C16 UNK     1      17.329   7.396  30.996  1.00  0.00     0.015 C 
ENDROOT
BRANCH   1   5
HETATM    5  N1  UNK     1      19.242   4.610  31.626  1.00  0.00    -0.337 N 
HETATM    6  C5  UNK     1      18.258   3.645  31.507  1.00  0.00     0.259 C 
HETATM    7  O2  UNK     1      17.123   3.702  31.977  1.00  0.00    -0.267 OA
HETATM    8  H3  UNK     1      20.160   4.438  31.226  1.00  0.00     0.164 HD
BRANCH   6   9
HETATM    9  C6  UNK     1      18.693   2.480  30.727  1.00  0.00     0.108 A 
HETATM   10  C11 UNK     1      18.659   2.468  29.247  1.00  0.00     0.304 A 
HETATM   11  O1  UNK     1      19.098   1.304  28.622  1.00  0.00    -0.274 OA
HETATM   12  O3  UNK     1      18.267   3.432  28.600  1.00  0.00    -0.259 OA
HETATM   13  C10 UNK     1      19.552   0.191  29.355  1.00  0.00     0.089 A 
HETATM   14  C8  UNK     1      19.576   0.224  30.746  1.00  0.00    -0.001 A 
HETATM   15  C13 UNK     1      19.972  -0.929  28.640  1.00  0.00     0.038 A 
HETATM   16  C12 UNK     1      20.033  -0.900  31.439  1.00  0.00     0.014 A 
HETATM   17  C9  UNK     1      19.124   1.426  31.430  1.00  0.00     0.037 A 
HETATM   18  C14 UNK     1      20.457  -2.031  30.735  1.00  0.00     0.001 A 
HETATM   19  C15 UNK     1      20.427  -2.045  29.339  1.00  0.00     0.003 A 
ENDBRANCH   6   9
ENDBRANCH   1   5
BRANCH   1  20
HETATM   20  C2  UNK     1      18.529   5.567  33.775  1.00  0.00     0.040 C 
HETATM   21  C4  UNK     1      17.415   6.499  34.246  1.00  0.00     0.009 C 
ENDBRANCH   1  20
TORSDOF 3
ENDMDL
MODEL 6
REMARK VINA RESULT:      -7.9      4.304      7.019
REMARK  3 active torsions:
REMARK  status: ('A' for Active; 'I' for Inactive)
REMARK    1  A    between atoms: C1_5  and  N1_4 
REMARK       I    between atoms: C5_9  and  N1_4 
REMARK    2  A    between atoms: C1_5  and  C2_6 
REMARK    3  A    between atoms: C5_9  and  C6_10 
ROOT
HETATM    1  C1  UNK     1      16.684   0.522  36.407  1.00  0.00     0.092 C 
HETATM    2  C3  UNK     1      15.149   0.443  36.395  1.00  0.00     0.053 C 
HETATM    3  C7  UNK     1      17.221  -0.687  37.068  1.00  0.00    -0.086 C 
HETATM    4  C16 UNK     1      17.654  -1.670  37.604  1.00  0.00     0.015 C 
ENDROOT
BRANCH   1   5
HETATM    5  N1  UNK     1      17.151   0.564  35.040  1.00  0.00    -0.337 N 
HETATM    6  C5  UNK     1      18.491   0.555  34.699  1.00  0.00     0.259 C 
HETATM    7  O2  UNK     1      19.439   0.510  35.481  1.00  0.00    -0.267 OA
HETATM    8  H3  UNK     1      16.450   0.642  34.307  1.00  0.00     0.164 HD
BRANCH   6   9
HETATM    9  C6  UNK     1      18.712   0.602  33.249  1.00  0.00     0.108 A 
HETATM   10  C11 UNK     1      18.348   1.786  32.437  1.00  0.00     0.304 A 
HETATM   11  O1  UNK     1      18.606   1.710  31.072  1.00  0.00    -0.274 OA
HETATM   12  O3  UNK     1      17.844   2.785  32.938  1.00  0.00    -0.259 OA
HETATM   13  C10 UNK     1      19.186   0.567  30.486  1.00  0.00     0.089 A 
HETATM   14  C8  UNK     1      19.521  -0.534  31.268  1.00  0.00    -0.001 A 
HETATM   15  C13 UNK     1      19.408   0.585  29.111  1.00  0.00     0.038 A 
HETATM   16  C12 UNK     1      20.094  -1.649  30.652  1.00  0.00     0.014 A 
HETATM   17  C9  UNK     1      19.263  -0.486  32.699  1.00  0.00     0.037 A 
HETATM   18  C14 UNK     1      20.322  -1.646  29.272  1.00  0.00     0.001 A 
HETATM   19  C15 UNK     1      19.980  -0.531  28.504  1.00  0.00     0.003 A 
ENDBRANCH   6   9
ENDBRANCH   1   5
BRANCH   1  20
HETATM   20  C2  UNK     1      17.117   1.798  37.165  1.00  0.00     0.040 C 
HETATM   21  C4  UNK     1      17.695   1.551  38.557  1.00  0.00     0.009 C 
ENDBRANCH   1  20
TORSDOF 3
ENDMDL
MODEL 7
REMARK VINA RESULT:      -7.6     28.514     30.545
REMARK  3 active torsions:
REMARK  status: ('A' for Active; 'I' for Inactive)
REMARK    1  A    between atoms: C1_5  and  N1_4 
REMARK       I    between atoms: C5_9  and  N1_4 
REMARK    2  A    between atoms: C1_5  and  C2_6 
REMARK    3  A    between atoms: C5_9  and  C6_10 
ROOT
HETATM    1  C1  UNK     1      16.057   8.065  10.168  1.00  0.00     0.092 C 
HETATM    2  C3  UNK     1      17.047   6.904   9.989  1.00  0.00     0.053 C 
HETATM    3  C7  UNK     1      16.694   9.314   9.699  1.00  0.00    -0.086 C 
HETATM    4  C16 UNK     1      17.213  10.326   9.315  1.00  0.00     0.015 C 
ENDROOT
BRANCH   1   5
HETATM    5  N1  UNK     1      14.886   7.796   9.364  1.00  0.00    -0.337 N 
HETATM    6  C5  UNK     1      14.108   6.663   9.521  1.00  0.00     0.259 C 
HETATM    7  O2  UNK     1      14.294   5.761  10.335  1.00  0.00    -0.267 OA
HETATM    8  H3  UNK     1      14.658   8.461   8.630  1.00  0.00     0.164 HD
BRANCH   6   9
HETATM    9  C6  UNK     1      12.973   6.617   8.591  1.00  0.00     0.108 A 
HETATM   10  C11 UNK     1      13.147   6.796   7.131  1.00  0.00     0.304 A 
HETATM   11  O1  UNK     1      11.995   6.731   6.352  1.00  0.00    -0.274 OA
HETATM   12  O3  UNK     1      14.248   6.992   6.628  1.00  0.00    -0.259 OA
HETATM   13  C10 UNK     1      10.726   6.506   6.919  1.00  0.00     0.089 A 
HETATM   14  C8  UNK     1      10.585   6.340   8.294  1.00  0.00    -0.001 A 
HETATM   15  C13 UNK     1       9.631   6.456   6.058  1.00  0.00     0.038 A 
HETATM   16  C12 UNK     1       9.310   6.118   8.819  1.00  0.00     0.014 A 
HETATM   17  C9  UNK     1      11.770   6.403   9.135  1.00  0.00     0.037 A 
HETATM   18  C14 UNK     1       8.202   6.067   7.967  1.00  0.00     0.001 A 
HETATM   19  C15 UNK     1       8.362   6.235   6.590  1.00  0.00     0.003 A 
ENDBRANCH   6   9
ENDBRANCH   1   5
BRANCH   1  20
HETATM   20  C2  UNK     1      15.673   8.175  11.662  1.00  0.00     0.040 C 
HETATM   21  C4  UNK     1      14.680   9.289  11.988  1.00  0.00     0.009 C 
ENDBRANCH   1  20
TORSDOF 3
ENDMDL
MODEL 8
REMARK VINA RESULT:      -7.5      1.617      2.409
REMARK  3 active torsions:
REMARK  status: ('A' for Active; 'I' for Inactive)
REMARK    1  A    between atoms: C1_5  and  N1_4 
REMARK       I    between atoms: C5_9  and  N1_4 
REMARK    2  A    between atoms: C1_5  and  C2_6 
REMARK    3  A    between atoms: C5_9  and  C6_10 
ROOT
HETATM    1  C1  UNK     1      21.269  -6.026  37.866  1.00  0.00     0.092 C 
HETATM    2  C3  UNK     1      22.678  -5.904  38.468  1.00  0.00     0.053 C 
HETATM    3  C7  UNK     1      20.343  -6.517  38.908  1.00  0.00    -0.086 C 
HETATM    4  C16 UNK     1      19.593  -6.915  39.757  1.00  0.00     0.015 C 
ENDROOT
BRANCH   1   5
HETATM    5  N1  UNK     1      20.843  -4.716  37.429  1.00  0.00    -0.337 N 
HETATM    6  C5  UNK     1      19.628  -4.485  36.810  1.00  0.00     0.259 C 
HETATM    7  O2  UNK     1      18.771  -5.329  36.554  1.00  0.00    -0.267 OA
HETATM    8  H3  UNK     1      21.493  -3.944  37.556  1.00  0.00     0.164 HD
BRANCH   6   9
HETATM    9  C6  UNK     1      19.423  -3.074  36.462  1.00  0.00     0.108 A 
HETATM   10  C11 UNK     1      20.005  -2.473  35.240  1.00  0.00     0.304 A 
HETATM   11  O1  UNK     1      19.740  -1.125  35.020  1.00  0.00    -0.274 OA
HETATM   12  O3  UNK     1      20.686  -3.127  34.458  1.00  0.00    -0.259 OA
HETATM   13  C10 UNK     1      18.957  -0.365  35.911  1.00  0.00     0.089 A 
HETATM   14  C8  UNK     1      18.420  -0.950  37.054  1.00  0.00    -0.001 A 
HETATM   15  C13 UNK     1      18.746   0.978  35.605  1.00  0.00     0.038 A 
HETATM   16  C12 UNK     1      17.649  -0.164  37.915  1.00  0.00     0.014 A 
HETATM   17  C9  UNK     1      18.679  -2.357  37.313  1.00  0.00     0.037 A 
HETATM   18  C14 UNK     1      17.429   1.185  37.621  1.00  0.00     0.001 A 
HETATM   19  C15 UNK     1      17.976   1.755  36.469  1.00  0.00     0.003 A 
ENDBRANCH   6   9
ENDBRANCH   1   5
BRANCH   1  20
HETATM   20  C2  UNK     1      21.316  -7.005  36.670  1.00  0.00     0.040 C 
HETATM   21  C4  UNK     1      22.062  -8.310  36.940  1.00  0.00     0.009 C 
ENDBRANCH   1  20
TORSDOF 3
ENDMDL
MODEL 9
REMARK VINA RESULT:      -7.4      4.508      7.029
REMARK  3 active torsions:
REMARK  status: ('A' for Active; 'I' for Inactive)
REMARK    1  A    between atoms: C1_5  and  N1_4 
REMARK       I    between atoms: C5_9  and  N1_4 
REMARK    2  A    between atoms: C1_5  and  C2_6 
REMARK    3  A    between atoms: C5_9  and  C6_10 
ROOT
HETATM    1  C1  UNK     1      16.879  -0.221  35.400  1.00  0.00     0.092 C 
HETATM    2  C3  UNK     1      15.737  -1.133  34.925  1.00  0.00     0.053 C 
HETATM    3  C7  UNK     1      18.053  -1.056  35.729  1.00  0.00    -0.086 C 
HETATM    4  C16 UNK     1      19.006  -1.736  35.994  1.00  0.00     0.015 C 
ENDROOT
BRANCH   1   5
HETATM    5  N1  UNK     1      17.222   0.681  34.323  1.00  0.00    -0.337 N 
HETATM    6  C5  UNK     1      18.296   1.550  34.380  1.00  0.00     0.259 C 
HETATM    7  O2  UNK     1      19.081   1.674  35.318  1.00  0.00    -0.267 OA
HETATM    8  H3  UNK     1      16.615   0.690  33.508  1.00  0.00     0.164 HD
BRANCH   6   9
HETATM    9  C6  UNK     1      18.440   2.360  33.164  1.00  0.00     0.108 A 
HETATM   10  C11 UNK     1      18.725   1.752  31.844  1.00  0.00     0.304 A 
HETATM   11  O1  UNK     1      18.839   2.624  30.766  1.00  0.00    -0.274 OA
HETATM   12  O3  UNK     1      18.855   0.541  31.703  1.00  0.00    -0.259 OA
HETATM   13  C10 UNK     1      18.691   4.017  30.917  1.00  0.00     0.089 A 
HETATM   14  C8  UNK     1      18.423   4.568  32.166  1.00  0.00    -0.001 A 
HETATM   15  C13 UNK     1      18.822   4.809  29.778  1.00  0.00     0.038 A 
HETATM   16  C12 UNK     1      18.282   5.953  32.276  1.00  0.00     0.014 A 
HETATM   17  C9  UNK     1      18.298   3.682  33.314  1.00  0.00     0.037 A 
HETATM   18  C14 UNK     1      18.411   6.761  31.143  1.00  0.00     0.001 A 
HETATM   19  C15 UNK     1      18.680   6.191  29.897  1.00  0.00     0.003 A 
ENDBRANCH   6   9
ENDBRANCH   1   5
BRANCH   1  20
HETATM   20  C2  UNK     1      16.408   0.574  36.640  1.00  0.00     0.040 C 
HETATM   21  C4  UNK     1      17.365   0.533  37.828  1.00  0.00     0.009 C 
ENDBRANCH   1  20
TORSDOF 3
ENDMDL
MODEL 10
REMARK VINA RESULT:      -7.4      5.622     10.413
REMARK  3 active torsions:
REMARK  status: ('A' for Active; 'I' for Inactive)
REMARK    1  A    between atoms: C1_5  and  N1_4 
REMARK       I    between atoms: C5_9  and  N1_4 
REMARK    2  A    between atoms: C1_5  and  C2_6 
REMARK    3  A    between atoms: C5_9  and  C6_10 
ROOT
HETATM    1  C1  UNK     1      17.443   7.524  33.679  1.00  0.00     0.092 C 
HETATM    2  C3  UNK     1      16.348   7.977  34.657  1.00  0.00     0.053 C 
HETATM    3  C7  UNK     1      18.731   8.122  34.090  1.00  0.00    -0.086 C 
HETATM    4  C16 UNK     1      19.775   8.608  34.428  1.00  0.00     0.015 C 
ENDROOT
BRANCH   1   5
HETATM    5  N1  UNK     1      17.545   6.083  33.741  1.00  0.00    -0.337 N 
HETATM    6  C5  UNK     1      18.446   5.357  32.984  1.00  0.00     0.259 C 
HETATM    7  O2  UNK     1      19.257   5.816  32.182  1.00  0.00    -0.267 OA
HETATM    8  H3  UNK     1      16.893   5.593  34.348  1.00  0.00     0.164 HD
BRANCH   6   9
HETATM    9  C6  UNK     1      18.360   3.912  33.226  1.00  0.00     0.108 A 
HETATM   10  C11 UNK     1      18.195   2.939  32.121  1.00  0.00     0.304 A 
HETATM   11  O1  UNK     1      18.126   1.596  32.477  1.00  0.00    -0.274 OA
HETATM   12  O3  UNK     1      18.123   3.295  30.950  1.00  0.00    -0.259 OA
HETATM   13  C10 UNK     1      18.209   1.176  33.819  1.00  0.00     0.089 A 
HETATM   14  C8  UNK     1      18.364   2.107  34.842  1.00  0.00    -0.001 A 
HETATM   15  C13 UNK     1      18.131  -0.191  34.076  1.00  0.00     0.038 A 
HETATM   16  C12 UNK     1      18.443   1.653  36.160  1.00  0.00     0.014 A 
HETATM   17  C9  UNK     1      18.439   3.520  34.502  1.00  0.00     0.037 A 
HETATM   18  C14 UNK     1      18.365   0.284  36.434  1.00  0.00     0.001 A 
HETATM   19  C15 UNK     1      18.210  -0.636  35.395  1.00  0.00     0.003 A 
ENDBRANCH   6   9
ENDBRANCH   1   5
BRANCH   1  20
HETATM   20  C2  UNK     1      17.062   7.976  32.250  1.00  0.00     0.040 C 
HETATM   21  C4  UNK     1      15.615   7.692  31.853  1.00  0.00     0.009 C 
ENDBRANCH   1  20
TORSDOF 3
ENDMDL
