MODEL 1
REMARK VINA RESULT:      -7.7      0.000      0.000
REMARK  3 active torsions:
REMARK  status: ('A' for Active; 'I' for Inactive)
REMARK    1  A    between atoms: C5_11  and  N1_5 
REMARK       I    between atoms: C6_12  and  N2_6 
REMARK    2  A    between atoms: C5_11  and  C8_14 
REMARK    3  A    between atoms: C6_12  and  C7_13 
ROOT
HETATM    1 Br1  UNK     1       6.831   4.834   9.939  1.00  0.00    -0.051 Br
HETATM    2  O2  UNK     1      11.592   6.660   6.651  1.00  0.00    -0.274 OA
HETATM    3  O3  UNK     1      13.843   6.980   6.426  1.00  0.00    -0.259 OA
HETATM    4  C7  UNK     1      13.100   6.065   8.482  1.00  0.00     0.108 A 
HETATM    5  C9  UNK     1      12.071   5.654   9.231  1.00  0.00     0.037 A 
HETATM    6  C10 UNK     1      10.713   5.727   8.716  1.00  0.00     0.000 A 
HETATM    7  C11 UNK     1      12.902   6.603   7.117  1.00  0.00     0.304 A 
HETATM    8  C12 UNK     1      10.504   6.229   7.435  1.00  0.00     0.089 A 
HETATM    9  C14 UNK     1       9.608   5.309   9.464  1.00  0.00     0.033 A 
HETATM   10  C15 UNK     1       9.229   6.325   6.883  1.00  0.00     0.039 A 
HETATM   11  C16 UNK     1       8.323   5.399   8.922  1.00  0.00     0.011 A 
HETATM   12  C17 UNK     1       8.134   5.906   7.635  1.00  0.00     0.022 A 
ENDROOT
BRANCH   4  13
HETATM   13  C6  UNK     1      14.440   5.951   9.093  1.00  0.00     0.260 C 
HETATM   14  O1  UNK     1      15.015   4.865   9.008  1.00  0.00    -0.267 OA
HETATM   15  N2  UNK     1      14.960   7.077   9.728  1.00  0.00    -0.344 N 
HETATM   16  C3  UNK     1      16.282   6.995  10.350  1.00  0.00     0.156 C 
HETATM   17  C4  UNK     1      14.250   8.340   9.967  1.00  0.00     0.156 C 
HETATM   18  C1  UNK     1      17.129   8.228  10.047  1.00  0.00     0.292 C 
HETATM   19  N1  UNK     1      16.414   9.452  10.434  1.00  0.00     0.095 N 
HETATM   20  C2  UNK     1      15.147   9.552   9.697  1.00  0.00     0.292 C 
BRANCH  19  21
HETATM   21  C5  UNK     1      17.244  10.631  10.191  1.00  0.00     0.299 C 
BRANCH  21  22
HETATM   22  C8  UNK     1      17.702  10.699   8.767  1.00  0.00    -0.007 C 
HETATM   23  C13 UNK     1      18.417  11.709   8.258  1.00  0.00     0.008 C 
ENDBRANCH  21  22
ENDBRANCH  19  21
ENDBRANCH   4  13
TORSDOF 3
ENDMDL
MODEL 2
REMARK VINA RESULT:      -7.7      3.811      7.703
REMARK  3 active torsions:
REMARK  status: ('A' for Active; 'I' for Inactive)
REMARK    1  A    between atoms: C5_11  and  N1_5 
REMARK       I    between atoms: C6_12  and  N2_6 
REMARK    2  A    between atoms: C5_11  and  C8_14 
REMARK    3  A    between atoms: C6_12  and  C7_13 
ROOT
HETATM    1 Br1  UNK     1      19.776  12.222   9.615  1.00  0.00    -0.051 Br
HETATM    2  O2  UNK     1      14.373  10.097  11.378  1.00  0.00    -0.274 OA
HETATM    3  O3  UNK     1      12.823   8.420  11.435  1.00  0.00    -0.259 OA
HETATM    4  C7  UNK     1      14.831   7.971  10.259  1.00  0.00     0.108 A 
HETATM    5  C9  UNK     1      16.028   8.411   9.856  1.00  0.00     0.037 A 
HETATM    6  C10 UNK     1      16.472   9.752  10.201  1.00  0.00     0.000 A 
HETATM    7  C11 UNK     1      13.921   8.819  11.063  1.00  0.00     0.304 A 
HETATM    8  C12 UNK     1      15.633  10.565  10.956  1.00  0.00     0.089 A 
HETATM    9  C14 UNK     1      17.714  10.252   9.801  1.00  0.00     0.033 A 
HETATM   10  C15 UNK     1      15.999  11.859  11.321  1.00  0.00     0.039 A 
HETATM   11  C16 UNK     1      18.094  11.548  10.160  1.00  0.00     0.011 A 
HETATM   12  C17 UNK     1      17.238  12.350  10.918  1.00  0.00     0.022 A 
ENDROOT
BRANCH   4  13
HETATM   13  C6  UNK     1      14.470   6.596   9.858  1.00  0.00     0.260 C 
HETATM   14  O1  UNK     1      14.860   5.673  10.574  1.00  0.00    -0.267 OA
HETATM   15  N2  UNK     1      13.719   6.436   8.695  1.00  0.00    -0.344 N 
HETATM   16  C3  UNK     1      13.351   5.086   8.266  1.00  0.00     0.156 C 
HETATM   17  C4  UNK     1      13.356   7.498   7.748  1.00  0.00     0.156 C 
HETATM   18  C1  UNK     1      11.897   5.012   7.808  1.00  0.00     0.292 C 
HETATM   19  N1  UNK     1      11.635   6.012   6.764  1.00  0.00     0.095 N 
HETATM   20  C2  UNK     1      11.905   7.362   7.277  1.00  0.00     0.292 C 
BRANCH  19  21
HETATM   21  C5  UNK     1      10.256   5.909   6.288  1.00  0.00     0.299 C 
BRANCH  21  22
HETATM   22  C8  UNK     1       9.273   6.200   7.380  1.00  0.00    -0.007 C 
HETATM   23  C13 UNK     1       8.133   6.876   7.198  1.00  0.00     0.008 C 
ENDBRANCH  21  22
ENDBRANCH  19  21
ENDBRANCH   4  13
TORSDOF 3
ENDMDL
MODEL 3
REMARK VINA RESULT:      -7.5     22.473     24.605
REMARK  3 active torsions:
REMARK  status: ('A' for Active; 'I' for Inactive)
REMARK    1  A    between atoms: C5_11  and  N1_5 
REMARK       I    between atoms: C6_12  and  N2_6 
REMARK    2  A    between atoms: C5_11  and  C8_14 
REMARK    3  A    between atoms: C6_12  and  C7_13 
ROOT
HETATM    1 Br1  UNK     1      14.418   9.803  34.125  1.00  0.00    -0.051 Br
HETATM    2  O2  UNK     1      19.823   7.259  33.062  1.00  0.00    -0.274 OA
HETATM    3  O3  UNK     1      21.130   5.792  31.897  1.00  0.00    -0.259 OA
HETATM    4  C7  UNK     1      18.840   5.882  31.296  1.00  0.00     0.108 A 
HETATM    5  C9  UNK     1      17.635   6.424  31.506  1.00  0.00     0.037 A 
HETATM    6  C10 UNK     1      17.456   7.439  32.533  1.00  0.00     0.000 A 
HETATM    7  C11 UNK     1      20.024   6.286  32.087  1.00  0.00     0.304 A 
HETATM    8  C12 UNK     1      18.556   7.834  33.288  1.00  0.00     0.089 A 
HETATM    9  C14 UNK     1      16.217   8.032  32.787  1.00  0.00     0.033 A 
HETATM   10  C15 UNK     1      18.452   8.801  34.285  1.00  0.00     0.039 A 
HETATM   11  C16 UNK     1      16.098   9.004  33.784  1.00  0.00     0.011 A 
HETATM   12  C17 UNK     1      17.214   9.387  34.532  1.00  0.00     0.022 A 
ENDROOT
BRANCH   4  13
HETATM   13  C6  UNK     1      18.920   4.860  30.233  1.00  0.00     0.260 C 
HETATM   14  O1  UNK     1      19.244   5.234  29.105  1.00  0.00    -0.267 OA
HETATM   15  N2  UNK     1      18.618   3.543  30.575  1.00  0.00    -0.344 N 
HETATM   16  C3  UNK     1      18.681   2.508  29.543  1.00  0.00     0.156 C 
HETATM   17  C4  UNK     1      18.098   3.084  31.869  1.00  0.00     0.156 C 
HETATM   18  C1  UNK     1      19.363   1.240  30.050  1.00  0.00     0.292 C 
HETATM   19  N1  UNK     1      18.709   0.758  31.274  1.00  0.00     0.095 N 
HETATM   20  C2  UNK     1      18.774   1.786  32.321  1.00  0.00     0.292 C 
BRANCH  19  21
HETATM   21  C5  UNK     1      19.329  -0.484  31.733  1.00  0.00     0.299 C 
BRANCH  21  22
HETATM   22  C8  UNK     1      20.310  -1.013  30.734  1.00  0.00    -0.007 C 
HETATM   23  C13 UNK     1      20.490  -2.314  30.478  1.00  0.00     0.008 C 
ENDBRANCH  21  22
ENDBRANCH  19  21
ENDBRANCH   4  13
TORSDOF 3
ENDMDL
MODEL 4
REMARK VINA RESULT:      -7.4      3.295      5.282
REMARK  3 active torsions:
REMARK  status: ('A' for Active; 'I' for Inactive)
REMARK    1  A    between atoms: C5_11  and  N1_5 
REMARK       I    between atoms: C6_12  and  N2_6 
REMARK    2  A    between atoms: C5_11  and  C8_14 
REMARK    3  A    between atoms: C6_12  and  C7_13 
ROOT
HETATM    1 Br1  UNK     1       6.593  10.951  12.821  1.00  0.00    -0.051 Br
HETATM    2  O2  UNK     1       6.652   5.833   9.561  1.00  0.00    -0.274 OA
HETATM    3  O3  UNK     1       7.617   4.501   7.977  1.00  0.00    -0.259 OA
HETATM    4  C7  UNK     1       8.696   6.561   8.434  1.00  0.00     0.108 A 
HETATM    5  C9  UNK     1       8.711   7.699   9.138  1.00  0.00     0.037 A 
HETATM    6  C10 UNK     1       7.669   7.971  10.115  1.00  0.00     0.000 A 
HETATM    7  C11 UNK     1       7.634   5.545   8.619  1.00  0.00     0.304 A 
HETATM    8  C12 UNK     1       6.662   7.030  10.306  1.00  0.00     0.089 A 
HETATM    9  C14 UNK     1       7.645   9.146  10.872  1.00  0.00     0.033 A 
HETATM   10  C15 UNK     1       5.636   7.229  11.227  1.00  0.00     0.039 A 
HETATM   11  C16 UNK     1       6.622   9.359  11.800  1.00  0.00     0.011 A 
HETATM   12  C17 UNK     1       5.620   8.402  11.977  1.00  0.00     0.022 A 
ENDROOT
BRANCH   4  13
HETATM   13  C6  UNK     1       9.796   6.376   7.466  1.00  0.00     0.260 C 
HETATM   14  O1  UNK     1       9.605   6.752   6.308  1.00  0.00    -0.267 OA
HETATM   15  N2  UNK     1      10.971   5.785   7.924  1.00  0.00    -0.344 N 
HETATM   16  C3  UNK     1      12.077   5.581   6.988  1.00  0.00     0.156 C 
HETATM   17  C4  UNK     1      11.183   5.203   9.255  1.00  0.00     0.156 C 
HETATM   18  C1  UNK     1      13.421   5.962   7.604  1.00  0.00     0.292 C 
HETATM   19  N1  UNK     1      13.630   5.243   8.867  1.00  0.00     0.095 N 
HETATM   20  C2  UNK     1      12.559   5.569   9.819  1.00  0.00     0.292 C 
BRANCH  19  21
HETATM   21  C5  UNK     1      14.938   5.568   9.434  1.00  0.00     0.299 C 
BRANCH  21  22
HETATM   22  C8  UNK     1      14.932   6.909  10.100  1.00  0.00    -0.007 C 
HETATM   23  C13 UNK     1      15.975   7.418  10.765  1.00  0.00     0.008 C 
ENDBRANCH  21  22
ENDBRANCH  19  21
ENDBRANCH   4  13
TORSDOF 3
ENDMDL
MODEL 5
REMARK VINA RESULT:      -7.4      3.333      7.292
REMARK  3 active torsions:
REMARK  status: ('A' for Active; 'I' for Inactive)
REMARK    1  A    between atoms: C5_11  and  N1_5 
REMARK       I    between atoms: C6_12  and  N2_6 
REMARK    2  A    between atoms: C5_11  and  C8_14 
REMARK    3  A    between atoms: C6_12  and  C7_13 
ROOT
HETATM    1 Br1  UNK     1      15.234  13.412  11.545  1.00  0.00    -0.051 Br
HETATM    2  O2  UNK     1      17.542   8.121   9.672  1.00  0.00    -0.274 OA
HETATM    3  O3  UNK     1      17.275   5.914   9.151  1.00  0.00    -0.259 OA
HETATM    4  C7  UNK     1      15.339   7.079   9.866  1.00  0.00     0.108 A 
HETATM    5  C9  UNK     1      14.800   8.231  10.281  1.00  0.00     0.037 A 
HETATM    6  C10 UNK     1      15.626   9.420  10.418  1.00  0.00     0.000 A 
HETATM    7  C11 UNK     1      16.777   6.967   9.533  1.00  0.00     0.304 A 
HETATM    8  C12 UNK     1      16.980   9.338  10.109  1.00  0.00     0.089 A 
HETATM    9  C14 UNK     1      15.106  10.644  10.848  1.00  0.00     0.033 A 
HETATM   10  C15 UNK     1      17.826  10.440  10.218  1.00  0.00     0.039 A 
HETATM   11  C16 UNK     1      15.942  11.758  10.961  1.00  0.00     0.011 A 
HETATM   12  C17 UNK     1      17.300  11.656  10.647  1.00  0.00     0.022 A 
ENDROOT
BRANCH   4  13
HETATM   13  C6  UNK     1      14.419   5.928   9.760  1.00  0.00     0.260 C 
HETATM   14  O1  UNK     1      14.417   5.113  10.683  1.00  0.00    -0.267 OA
HETATM   15  N2  UNK     1      13.621   5.838   8.620  1.00  0.00    -0.344 N 
HETATM   16  C3  UNK     1      12.705   4.706   8.481  1.00  0.00     0.156 C 
HETATM   17  C4  UNK     1      13.696   6.712   7.443  1.00  0.00     0.156 C 
HETATM   18  C1  UNK     1      11.335   5.144   7.970  1.00  0.00     0.292 C 
HETATM   19  N1  UNK     1      11.471   5.898   6.717  1.00  0.00     0.095 N 
HETATM   20  C2  UNK     1      12.302   7.090   6.931  1.00  0.00     0.292 C 
BRANCH  19  21
HETATM   21  C5  UNK     1      10.156   6.275   6.198  1.00  0.00     0.299 C 
BRANCH  21  22
HETATM   22  C8  UNK     1       9.072   6.006   7.196  1.00  0.00    -0.007 C 
HETATM   23  C13 UNK     1       8.074   6.856   7.463  1.00  0.00     0.008 C 
ENDBRANCH  21  22
ENDBRANCH  19  21
ENDBRANCH   4  13
TORSDOF 3
ENDMDL
MODEL 6
REMARK VINA RESULT:      -7.3      3.630      7.727
REMARK  3 active torsions:
REMARK  status: ('A' for Active; 'I' for Inactive)
REMARK    1  A    between atoms: C5_11  and  N1_5 
REMARK       I    between atoms: C6_12  and  N2_6 
REMARK    2  A    between atoms: C5_11  and  C8_14 
REMARK    3  A    between atoms: C6_12  and  C7_13 
ROOT
HETATM    1 Br1  UNK     1      16.210  14.480   6.495  1.00  0.00    -0.051 Br
HETATM    2  O2  UNK     1      17.868   9.387   9.345  1.00  0.00    -0.274 OA
HETATM    3  O3  UNK     1      17.322   7.462  10.446  1.00  0.00    -0.259 OA
HETATM    4  C7  UNK     1      15.520   8.816   9.716  1.00  0.00     0.108 A 
HETATM    5  C9  UNK     1      15.122   9.931   9.093  1.00  0.00     0.037 A 
HETATM    6  C10 UNK     1      16.103  10.857   8.549  1.00  0.00     0.000 A 
HETATM    7  C11 UNK     1      16.954   8.483   9.876  1.00  0.00     0.304 A 
HETATM    8  C12 UNK     1      17.456  10.563   8.687  1.00  0.00     0.089 A 
HETATM    9  C14 UNK     1      15.733  12.033   7.890  1.00  0.00     0.033 A 
HETATM   10  C15 UNK     1      18.445  11.407   8.188  1.00  0.00     0.039 A 
HETATM   11  C16 UNK     1      16.715  12.889   7.384  1.00  0.00     0.011 A 
HETATM   12  C17 UNK     1      18.068  12.577   7.533  1.00  0.00     0.022 A 
ENDROOT
BRANCH   4  13
HETATM   13  C6  UNK     1      14.450   7.940  10.235  1.00  0.00     0.260 C 
HETATM   14  O1  UNK     1      14.195   8.002  11.438  1.00  0.00    -0.267 OA
HETATM   15  N2  UNK     1      13.805   7.099   9.329  1.00  0.00    -0.344 N 
HETATM   16  C3  UNK     1      12.745   6.213   9.813  1.00  0.00     0.156 C 
HETATM   17  C4  UNK     1      14.173   6.900   7.922  1.00  0.00     0.156 C 
HETATM   18  C1  UNK     1      11.543   6.201   8.873  1.00  0.00     0.292 C 
HETATM   19  N1  UNK     1      11.961   5.863   7.506  1.00  0.00     0.095 N 
HETATM   20  C2  UNK     1      12.938   6.846   7.018  1.00  0.00     0.292 C 
BRANCH  19  21
HETATM   21  C5  UNK     1      10.804   5.801   6.614  1.00  0.00     0.299 C 
BRANCH  21  22
HETATM   22  C8  UNK     1       9.664   6.622   7.132  1.00  0.00    -0.007 C 
HETATM   23  C13 UNK     1       8.380   6.255   7.051  1.00  0.00     0.008 C 
ENDBRANCH  21  22
ENDBRANCH  19  21
ENDBRANCH   4  13
TORSDOF 3
ENDMDL
MODEL 7
REMARK VINA RESULT:      -7.3      3.730      7.756
REMARK  3 active torsions:
REMARK  status: ('A' for Active; 'I' for Inactive)
REMARK    1  A    between atoms: C5_11  and  N1_5 
REMARK       I    between atoms: C6_12  and  N2_6 
REMARK    2  A    between atoms: C5_11  and  C8_14 
REMARK    3  A    between atoms: C6_12  and  C7_13 
ROOT
HETATM    1 Br1  UNK     1      16.928  11.909   8.261  1.00  0.00    -0.051 Br
HETATM    2  O2  UNK     1      14.159   7.015  10.541  1.00  0.00    -0.274 OA
HETATM    3  O3  UNK     1      12.525   5.424  10.421  1.00  0.00    -0.259 OA
HETATM    4  C7  UNK     1      12.579   7.025   8.675  1.00  0.00     0.108 A 
HETATM    5  C9  UNK     1      13.168   8.104   8.147  1.00  0.00     0.037 A 
HETATM    6  C10 UNK     1      14.314   8.711   8.806  1.00  0.00     0.000 A 
HETATM    7  C11 UNK     1      13.062   6.413   9.934  1.00  0.00     0.304 A 
HETATM    8  C12 UNK     1      14.784   8.152   9.990  1.00  0.00     0.089 A 
HETATM    9  C14 UNK     1      14.960   9.838   8.290  1.00  0.00     0.033 A 
HETATM   10  C15 UNK     1      15.877   8.684  10.670  1.00  0.00     0.039 A 
HETATM   11  C16 UNK     1      16.058  10.383   8.962  1.00  0.00     0.011 A 
HETATM   12  C17 UNK     1      16.515   9.807  10.149  1.00  0.00     0.022 A 
ENDROOT
BRANCH   4  13
HETATM   13  C6  UNK     1      11.424   6.482   7.933  1.00  0.00     0.260 C 
HETATM   14  O1  UNK     1      11.634   5.557   7.148  1.00  0.00    -0.267 OA
HETATM   15  N2  UNK     1      10.175   7.057   8.166  1.00  0.00    -0.344 N 
HETATM   16  C3  UNK     1       9.012   6.547   7.440  1.00  0.00     0.156 C 
HETATM   17  C4  UNK     1       9.911   8.246   8.986  1.00  0.00     0.156 C 
HETATM   18  C1  UNK     1       7.798   6.390   8.353  1.00  0.00     0.292 C 
HETATM   19  N1  UNK     1       7.506   7.654   9.042  1.00  0.00     0.095 N 
HETATM   20  C2  UNK     1       8.660   8.067   9.852  1.00  0.00     0.292 C 
BRANCH  19  21
HETATM   21  C5  UNK     1       6.314   7.519   9.879  1.00  0.00     0.299 C 
BRANCH  21  22
HETATM   22  C8  UNK     1       6.379   6.297  10.740  1.00  0.00    -0.007 C 
HETATM   23  C13 UNK     1       6.238   6.311  12.071  1.00  0.00     0.008 C 
ENDBRANCH  21  22
ENDBRANCH  19  21
ENDBRANCH   4  13
TORSDOF 3
ENDMDL
MODEL 8
REMARK VINA RESULT:      -7.0     25.612     27.646
REMARK  3 active torsions:
REMARK  status: ('A' for Active; 'I' for Inactive)
REMARK    1  A    between atoms: C5_11  and  N1_5 
REMARK       I    between atoms: C6_12  and  N2_6 
REMARK    2  A    between atoms: C5_11  and  C8_14 
REMARK    3  A    between atoms: C6_12  and  C7_13 
ROOT
HETATM    1 Br1  UNK     1      18.574   6.682  31.977  1.00  0.00    -0.051 Br
HETATM    2  O2  UNK     1      18.603   0.624  31.623  1.00  0.00    -0.274 OA
HETATM    3  O3  UNK     1      18.237  -1.420  32.573  1.00  0.00    -0.259 OA
HETATM    4  C7  UNK     1      17.792   0.475  33.925  1.00  0.00     0.108 A 
HETATM    5  C9  UNK     1      17.774   1.808  34.034  1.00  0.00     0.037 A 
HETATM    6  C10 UNK     1      18.181   2.641  32.914  1.00  0.00     0.000 A 
HETATM    7  C11 UNK     1      18.220  -0.199  32.677  1.00  0.00     0.304 A 
HETATM    8  C12 UNK     1      18.586   2.029  31.732  1.00  0.00     0.089 A 
HETATM    9  C14 UNK     1      18.179   4.037  32.984  1.00  0.00     0.033 A 
HETATM   10  C15 UNK     1      18.987   2.770  30.622  1.00  0.00     0.039 A 
HETATM   11  C16 UNK     1      18.578   4.793  31.878  1.00  0.00     0.011 A 
HETATM   12  C17 UNK     1      18.981   4.160  30.699  1.00  0.00     0.022 A 
ENDROOT
BRANCH   4  13
HETATM   13  C6  UNK     1      17.362  -0.285  35.117  1.00  0.00     0.260 C 
HETATM   14  O1  UNK     1      16.160  -0.289  35.387  1.00  0.00    -0.267 OA
HETATM   15  N2  UNK     1      18.344  -0.940  35.857  1.00  0.00    -0.344 N 
HETATM   16  C3  UNK     1      17.952  -1.695  37.048  1.00  0.00     0.156 C 
HETATM   17  C4  UNK     1      19.794  -0.845  35.645  1.00  0.00     0.156 C 
HETATM   18  C1  UNK     1      18.661  -3.044  37.124  1.00  0.00     0.292 C 
HETATM   19  N1  UNK     1      20.116  -2.866  37.040  1.00  0.00     0.095 N 
HETATM   20  C2  UNK     1      20.475  -2.211  35.775  1.00  0.00     0.292 C 
BRANCH  19  21
HETATM   21  C5  UNK     1      20.800  -4.153  37.163  1.00  0.00     0.299 C 
BRANCH  21  22
HETATM   22  C8  UNK     1      20.015  -5.257  36.525  1.00  0.00    -0.007 C 
HETATM   23  C13 UNK     1      20.481  -6.498  36.344  1.00  0.00     0.008 C 
ENDBRANCH  21  22
ENDBRANCH  19  21
ENDBRANCH   4  13
TORSDOF 3
ENDMDL
MODEL 9
REMARK VINA RESULT:      -7.0      4.054      6.501
REMARK  3 active torsions:
REMARK  status: ('A' for Active; 'I' for Inactive)
REMARK    1  A    between atoms: C5_11  and  N1_5 
REMARK       I    between atoms: C6_12  and  N2_6 
REMARK    2  A    between atoms: C5_11  and  C8_14 
REMARK    3  A    between atoms: C6_12  and  C7_13 
ROOT
HETATM    1 Br1  UNK     1       5.071   5.428  15.939  1.00  0.00    -0.051 Br
HETATM    2  O2  UNK     1       6.189   3.093  10.451  1.00  0.00    -0.274 OA
HETATM    3  O3  UNK     1       7.059   3.294   8.349  1.00  0.00    -0.259 OA
HETATM    4  C7  UNK     1       7.281   5.174   9.776  1.00  0.00     0.108 A 
HETATM    5  C9  UNK     1       7.049   5.716  10.976  1.00  0.00     0.037 A 
HETATM    6  C10 UNK     1       6.357   4.956  12.004  1.00  0.00     0.000 A 
HETATM    7  C11 UNK     1       6.848   3.796   9.448  1.00  0.00     0.304 A 
HETATM    8  C12 UNK     1       5.942   3.659  11.718  1.00  0.00     0.089 A 
HETATM    9  C14 UNK     1       6.094   5.483  13.272  1.00  0.00     0.033 A 
HETATM   10  C15 UNK     1       5.275   2.877  12.659  1.00  0.00     0.039 A 
HETATM   11  C16 UNK     1       5.425   4.710  14.225  1.00  0.00     0.011 A 
HETATM   12  C17 UNK     1       5.017   3.410  13.919  1.00  0.00     0.022 A 
ENDROOT
BRANCH   4  13
HETATM   13  C6  UNK     1       7.990   6.025   8.799  1.00  0.00     0.260 C 
HETATM   14  O1  UNK     1       7.322   6.844   8.166  1.00  0.00    -0.267 OA
HETATM   15  N2  UNK     1       9.364   5.840   8.655  1.00  0.00    -0.344 N 
HETATM   16  C3  UNK     1      10.094   6.662   7.690  1.00  0.00     0.156 C 
HETATM   17  C4  UNK     1      10.165   4.785   9.288  1.00  0.00     0.156 C 
HETATM   18  C1  UNK     1      11.414   7.172   8.262  1.00  0.00     0.292 C 
HETATM   19  N1  UNK     1      12.226   6.052   8.758  1.00  0.00     0.095 N 
HETATM   20  C2  UNK     1      11.500   5.326   9.808  1.00  0.00     0.292 C 
BRANCH  19  21
HETATM   21  C5  UNK     1      13.513   6.533   9.261  1.00  0.00     0.299 C 
BRANCH  21  22
HETATM   22  C8  UNK     1      14.622   5.582   8.935  1.00  0.00    -0.007 C 
HETATM   23  C13 UNK     1      15.247   4.823   9.842  1.00  0.00     0.008 C 
ENDBRANCH  21  22
ENDBRANCH  19  21
ENDBRANCH   4  13
TORSDOF 3
ENDMDL
MODEL 10
REMARK VINA RESULT:      -7.0     24.952     26.322
REMARK  3 active torsions:
REMARK  status: ('A' for Active; 'I' for Inactive)
REMARK    1  A    between atoms: C5_11  and  N1_5 
REMARK       I    between atoms: C6_12  and  N2_6 
REMARK    2  A    between atoms: C5_11  and  C8_14 
REMARK    3  A    between atoms: C6_12  and  C7_13 
ROOT
HETATM    1 Br1  UNK     1      17.904  -0.554  37.865  1.00  0.00    -0.051 Br
HETATM    2  O2  UNK     1      17.904   2.433  32.583  1.00  0.00    -0.274 OA
HETATM    3  O3  UNK     1      18.256   4.346  31.386  1.00  0.00    -0.259 OA
HETATM    4  C7  UNK     1      18.664   4.461  33.717  1.00  0.00     0.108 A 
HETATM    5  C9  UNK     1      18.675   3.831  34.897  1.00  0.00     0.037 A 
HETATM    6  C10 UNK     1      18.290   2.431  34.984  1.00  0.00     0.000 A 
HETATM    7  C11 UNK     1      18.267   3.771  32.469  1.00  0.00     0.304 A 
HETATM    8  C12 UNK     1      17.913   1.763  33.823  1.00  0.00     0.089 A 
HETATM    9  C14 UNK     1      18.286   1.733  36.195  1.00  0.00     0.033 A 
HETATM   10  C15 UNK     1      17.534   0.422  33.838  1.00  0.00     0.039 A 
HETATM   11  C16 UNK     1      17.909   0.387  36.224  1.00  0.00     0.011 A 
HETATM   12  C17 UNK     1      17.534  -0.267  35.048  1.00  0.00     0.022 A 
ENDROOT
BRANCH   4  13
HETATM   13  C6  UNK     1      19.071   5.881  33.732  1.00  0.00     0.260 C 
HETATM   14  O1  UNK     1      20.240   6.143  33.448  1.00  0.00    -0.267 OA
HETATM   15  N2  UNK     1      18.106   6.828  34.071  1.00  0.00    -0.344 N 
HETATM   16  C3  UNK     1      18.478   8.243  34.102  1.00  0.00     0.156 C 
HETATM   17  C4  UNK     1      16.746   6.544  34.545  1.00  0.00     0.156 C 
HETATM   18  C1  UNK     1      17.417   9.124  33.448  1.00  0.00     0.292 C 
HETATM   19  N1  UNK     1      16.103   8.888  34.061  1.00  0.00     0.095 N 
HETATM   20  C2  UNK     1      15.717   7.479  33.902  1.00  0.00     0.292 C 
BRANCH  19  21
HETATM   21  C5  UNK     1      15.095   9.767  33.470  1.00  0.00     0.299 C 
BRANCH  21  22
HETATM   22  C8  UNK     1      14.171  10.322  34.510  1.00  0.00    -0.007 C 
HETATM   23  C13 UNK     1      13.404  11.403  34.328  1.00  0.00     0.008 C 
ENDBRANCH  21  22
ENDBRANCH  19  21
ENDBRANCH   4  13
TORSDOF 3
ENDMDL
