MODEL 1
REMARK VINA RESULT:      -8.1      0.000      0.000
REMARK  1 active torsions:
REMARK  status: ('A' for Active; 'I' for Inactive)
REMARK    1  A    between atoms: C3_8  and  C5_10 
ROOT
HETATM    1 Cl1  UNK     1      19.085  -1.330  32.280  1.00  0.00    -0.084 Cl
HETATM    2  O1  UNK     1      18.956   3.940  29.664  1.00  0.00    -0.321 OA
HETATM    3  O2  UNK     1      17.980   3.705  33.619  1.00  0.00    -0.286 OA
HETATM    4  C1  UNK     1      18.640   2.588  31.655  1.00  0.00     0.050 A 
HETATM    5  C2  UNK     1      18.974   2.730  30.309  1.00  0.00     0.089 A 
HETATM    6  C3  UNK     1      18.226   5.073  31.685  1.00  0.00     0.049 A 
HETATM    7  C4  UNK     1      18.252   3.783  32.428  1.00  0.00     0.198 A 
HETATM    8  C6  UNK     1      19.384   0.356  30.161  1.00  0.00    -0.038 A 
HETATM    9  C7  UNK     1      19.347   1.613  29.559  1.00  0.00     0.046 A 
HETATM   10  C8  UNK     1      18.677   1.329  32.260  1.00  0.00     0.042 A 
HETATM   11  C9  UNK     1      19.050   0.214  31.508  1.00  0.00     0.041 A 
HETATM   12  C10 UNK     1      18.574   5.043  30.390  1.00  0.00     0.159 A 
HETATM   13  C13 UNK     1      19.787  -0.817  29.327  1.00  0.00     0.050 C 
ENDROOT
BRANCH   6  14
HETATM   14  C5  UNK     1      17.820   6.333  32.327  1.00  0.00     0.002 A 
HETATM   15  C11 UNK     1      18.733   7.181  32.963  1.00  0.00     0.046 A 
HETATM   16 Cl2  UNK     1      20.419   6.803  33.040  1.00  0.00    -0.083 Cl
HETATM   17  C14 UNK     1      18.297   8.365  33.557  1.00  0.00     0.048 A 
HETATM   18  C16 UNK     1      16.946   8.709  33.517  1.00  0.00     0.035 A 
HETATM   19  C15 UNK     1      16.030   7.868  32.884  1.00  0.00     0.025 A 
HETATM   20 Cl3  UNK     1      16.409  10.172  34.248  1.00  0.00    -0.084 Cl
HETATM   21  C12 UNK     1      16.467   6.684  32.291  1.00  0.00     0.016 A 
ENDBRANCH   6  14
TORSDOF 1
ENDMDL
MODEL 2
REMARK VINA RESULT:      -7.9      1.225      2.141
REMARK  1 active torsions:
REMARK  status: ('A' for Active; 'I' for Inactive)
REMARK    1  A    between atoms: C3_8  and  C5_10 
ROOT
HETATM    1 Cl1  UNK     1      19.599   0.027  28.685  1.00  0.00    -0.084 Cl
HETATM    2  O1  UNK     1      18.315   2.468  33.883  1.00  0.00    -0.321 OA
HETATM    3  O2  UNK     1      18.424   4.863  30.581  1.00  0.00    -0.286 OA
HETATM    4  C1  UNK     1      18.673   2.708  31.494  1.00  0.00     0.050 A 
HETATM    5  C2  UNK     1      18.611   1.937  32.655  1.00  0.00     0.089 A 
HETATM    6  C3  UNK     1      18.111   4.696  32.936  1.00  0.00     0.049 A 
HETATM    7  C4  UNK     1      18.409   4.157  31.581  1.00  0.00     0.198 A 
HETATM    8  C6  UNK     1      19.160  -0.034  31.372  1.00  0.00    -0.038 A 
HETATM    9  C7  UNK     1      18.854   0.564  32.595  1.00  0.00     0.046 A 
HETATM   10  C8  UNK     1      18.979   2.111  30.269  1.00  0.00     0.042 A 
HETATM   11  C9  UNK     1      19.221   0.738  30.212  1.00  0.00     0.041 A 
HETATM   12  C10 UNK     1      18.090   3.822  33.954  1.00  0.00     0.159 A 
HETATM   13  C13 UNK     1      19.416  -1.507  31.348  1.00  0.00     0.050 C 
ENDROOT
BRANCH   6  14
HETATM   14  C5  UNK     1      17.867   6.129  33.168  1.00  0.00     0.002 A 
HETATM   15  C11 UNK     1      18.907   7.056  33.295  1.00  0.00     0.046 A 
HETATM   16 Cl2  UNK     1      20.565   6.579  33.186  1.00  0.00    -0.083 Cl
HETATM   17  C14 UNK     1      18.623   8.404  33.514  1.00  0.00     0.048 A 
HETATM   18  C16 UNK     1      17.300   8.832  33.607  1.00  0.00     0.035 A 
HETATM   19  C15 UNK     1      16.258   7.912  33.482  1.00  0.00     0.025 A 
HETATM   20 Cl3  UNK     1      16.950  10.496  33.874  1.00  0.00    -0.084 Cl
HETATM   21  C12 UNK     1      16.542   6.564  33.263  1.00  0.00     0.016 A 
ENDBRANCH   6  14
TORSDOF 1
ENDMDL
MODEL 3
REMARK VINA RESULT:      -7.9      1.617      2.137
REMARK  1 active torsions:
REMARK  status: ('A' for Active; 'I' for Inactive)
REMARK    1  A    between atoms: C3_8  and  C5_10 
ROOT
HETATM    1 Cl1  UNK     1      18.719   0.011  32.479  1.00  0.00    -0.084 Cl
HETATM    2  O1  UNK     1      18.643   5.332  29.966  1.00  0.00    -0.321 OA
HETATM    3  O2  UNK     1      17.665   5.030  33.916  1.00  0.00    -0.286 OA
HETATM    4  C1  UNK     1      18.314   3.945  31.930  1.00  0.00     0.050 A 
HETATM    5  C2  UNK     1      18.648   4.110  30.587  1.00  0.00     0.089 A 
HETATM    6  C3  UNK     1      17.925   6.433  32.008  1.00  0.00     0.049 A 
HETATM    7  C4  UNK     1      17.937   5.128  32.726  1.00  0.00     0.198 A 
HETATM    8  C6  UNK     1      19.035   1.734  30.393  1.00  0.00    -0.038 A 
HETATM    9  C7  UNK     1      19.011   3.004  29.816  1.00  0.00     0.046 A 
HETATM   10  C8  UNK     1      18.338   2.674  32.510  1.00  0.00     0.042 A 
HETATM   11  C9  UNK     1      18.700   1.570  31.737  1.00  0.00     0.041 A 
HETATM   12  C10 UNK     1      18.272   6.424  30.712  1.00  0.00     0.159 A 
HETATM   13  C13 UNK     1      19.426   0.574  29.536  1.00  0.00     0.050 C 
ENDROOT
BRANCH   6  14
HETATM   14  C5  UNK     1      17.531   7.685  32.675  1.00  0.00     0.002 A 
HETATM   15  C11 UNK     1      16.215   8.160  32.663  1.00  0.00     0.046 A 
HETATM   16 Cl2  UNK     1      14.949   7.302  31.857  1.00  0.00    -0.083 Cl
HETATM   17  C14 UNK     1      15.893   9.352  33.310  1.00  0.00     0.048 A 
HETATM   18  C16 UNK     1      16.884  10.076  33.973  1.00  0.00     0.035 A 
HETATM   19  C15 UNK     1      18.198   9.607  33.988  1.00  0.00     0.025 A 
HETATM   20 Cl3  UNK     1      16.485  11.547  34.774  1.00  0.00    -0.084 Cl
HETATM   21  C12 UNK     1      18.520   8.414  33.341  1.00  0.00     0.016 A 
ENDBRANCH   6  14
TORSDOF 1
ENDMDL
MODEL 4
REMARK VINA RESULT:      -7.7      2.254      7.765
REMARK  1 active torsions:
REMARK  status: ('A' for Active; 'I' for Inactive)
REMARK    1  A    between atoms: C3_8  and  C5_10 
ROOT
HETATM    1 Cl1  UNK     1      13.594  11.146  33.537  1.00  0.00    -0.084 Cl
HETATM    2  O1  UNK     1      18.831   8.463  33.640  1.00  0.00    -0.321 OA
HETATM    3  O2  UNK     1      15.671   6.502  31.961  1.00  0.00    -0.286 OA
HETATM    4  C1  UNK     1      16.478   8.429  33.046  1.00  0.00     0.050 A 
HETATM    5  C2  UNK     1      17.595   9.055  33.598  1.00  0.00     0.089 A 
HETATM    6  C3  UNK     1      17.975   6.461  32.565  1.00  0.00     0.049 A 
HETATM    7  C4  UNK     1      16.621   7.074  32.481  1.00  0.00     0.198 A 
HETATM    8  C6  UNK     1      16.250  10.991  34.121  1.00  0.00    -0.038 A 
HETATM    9  C7  UNK     1      17.483  10.339  34.135  1.00  0.00     0.046 A 
HETATM   10  C8  UNK     1      15.242   9.082  33.030  1.00  0.00     0.042 A 
HETATM   11  C9  UNK     1      15.133  10.364  33.568  1.00  0.00     0.041 A 
HETATM   12  C10 UNK     1      18.947   7.194  33.128  1.00  0.00     0.159 A 
HETATM   13  C13 UNK     1      16.168  12.364  34.707  1.00  0.00     0.050 C 
ENDROOT
BRANCH   6  14
HETATM   14  C5  UNK     1      18.245   5.100  32.074  1.00  0.00     0.002 A 
HETATM   15  C11 UNK     1      18.706   4.847  30.778  1.00  0.00     0.046 A 
HETATM   16 Cl2  UNK     1      18.993   6.128  29.652  1.00  0.00    -0.083 Cl
HETATM   17  C14 UNK     1      18.947   3.539  30.361  1.00  0.00     0.048 A 
HETATM   18  C16 UNK     1      18.730   2.476  31.237  1.00  0.00     0.035 A 
HETATM   19  C15 UNK     1      18.271   2.721  32.531  1.00  0.00     0.025 A 
HETATM   20 Cl3  UNK     1      19.031   0.861  30.722  1.00  0.00    -0.084 Cl
HETATM   21  C12 UNK     1      18.030   4.030  32.948  1.00  0.00     0.016 A 
ENDBRANCH   6  14
TORSDOF 1
ENDMDL
MODEL 5
REMARK VINA RESULT:      -7.3      6.768     11.093
REMARK  1 active torsions:
REMARK  status: ('A' for Active; 'I' for Inactive)
REMARK    1  A    between atoms: C3_8  and  C5_10 
ROOT
HETATM    1 Cl1  UNK     1      19.033   0.042  31.523  1.00  0.00    -0.084 Cl
HETATM    2  O1  UNK     1      18.840  -1.428  37.218  1.00  0.00    -0.321 OA
HETATM    3  O2  UNK     1      20.386  -4.115  34.566  1.00  0.00    -0.286 OA
HETATM    4  C1  UNK     1      19.409  -2.004  34.930  1.00  0.00     0.050 A 
HETATM    5  C2  UNK     1      18.901  -1.122  35.883  1.00  0.00     0.089 A 
HETATM    6  C3  UNK     1      19.802  -3.622  36.821  1.00  0.00     0.049 A 
HETATM    7  C4  UNK     1      19.906  -3.323  35.366  1.00  0.00     0.198 A 
HETATM    8  C6  UNK     1      18.467   0.499  34.148  1.00  0.00    -0.038 A 
HETATM    9  C7  UNK     1      18.430   0.133  35.493  1.00  0.00     0.046 A 
HETATM   10  C8  UNK     1      19.448  -1.638  33.583  1.00  0.00     0.042 A 
HETATM   11  C9  UNK     1      18.976  -0.384  33.196  1.00  0.00     0.041 A 
HETATM   12  C10 UNK     1      19.287  -2.666  37.610  1.00  0.00     0.159 A 
HETATM   13  C13 UNK     1      17.952   1.850  33.768  1.00  0.00     0.050 C 
ENDROOT
BRANCH   6  14
HETATM   14  C5  UNK     1      20.225  -4.915  37.383  1.00  0.00     0.002 A 
HETATM   15  C11 UNK     1      19.402  -6.047  37.365  1.00  0.00     0.046 A 
HETATM   16 Cl2  UNK     1      17.817  -6.004  36.676  1.00  0.00    -0.083 Cl
HETATM   17  C14 UNK     1      19.849  -7.249  37.910  1.00  0.00     0.048 A 
HETATM   18  C16 UNK     1      21.122  -7.329  38.476  1.00  0.00     0.035 A 
HETATM   19  C15 UNK     1      21.947  -6.204  38.497  1.00  0.00     0.025 A 
HETATM   20 Cl3  UNK     1      21.674  -8.815  39.146  1.00  0.00    -0.084 Cl
HETATM   21  C12 UNK     1      21.499  -5.001  37.951  1.00  0.00     0.016 A 
ENDBRANCH   6  14
TORSDOF 1
ENDMDL
MODEL 6
REMARK VINA RESULT:      -7.3      1.720      2.529
REMARK  1 active torsions:
REMARK  status: ('A' for Active; 'I' for Inactive)
REMARK    1  A    between atoms: C3_8  and  C5_10 
ROOT
HETATM    1 Cl1  UNK     1      18.445   0.966  33.670  1.00  0.00    -0.084 Cl
HETATM    2  O1  UNK     1      18.264   5.989  30.610  1.00  0.00    -0.321 OA
HETATM    3  O2  UNK     1      17.299   6.088  34.573  1.00  0.00    -0.286 OA
HETATM    4  C1  UNK     1      17.964   4.811  32.710  1.00  0.00     0.050 A 
HETATM    5  C2  UNK     1      18.294   4.839  31.356  1.00  0.00     0.089 A 
HETATM    6  C3  UNK     1      17.529   7.286  32.527  1.00  0.00     0.049 A 
HETATM    7  C4  UNK     1      17.567   6.065  33.379  1.00  0.00     0.198 A 
HETATM    8  C6  UNK     1      18.724   2.464  31.413  1.00  0.00    -0.038 A 
HETATM    9  C7  UNK     1      18.675   3.665  30.705  1.00  0.00     0.046 A 
HETATM   10  C8  UNK     1      18.013   3.609  33.422  1.00  0.00     0.042 A 
HETATM   11  C9  UNK     1      18.395   2.437  32.768  1.00  0.00     0.041 A 
HETATM   12  C10 UNK     1      17.874   7.146  31.238  1.00  0.00     0.159 A 
HETATM   13  C13 UNK     1      19.136   1.227  30.682  1.00  0.00     0.050 C 
ENDROOT
BRANCH   6  14
HETATM   14  C5  UNK     1      17.113   8.593  33.059  1.00  0.00     0.002 A 
HETATM   15  C11 UNK     1      17.974   9.412  33.798  1.00  0.00     0.046 A 
HETATM   16 Cl2  UNK     1      19.601   8.939  34.141  1.00  0.00    -0.083 Cl
HETATM   17  C14 UNK     1      17.531  10.643  34.280  1.00  0.00     0.048 A 
HETATM   18  C16 UNK     1      16.226  11.064  34.026  1.00  0.00     0.035 A 
HETATM   19  C15 UNK     1      15.363  10.252  33.289  1.00  0.00     0.025 A 
HETATM   20 Cl3  UNK     1      15.682  12.585  34.619  1.00  0.00    -0.084 Cl
HETATM   21  C12 UNK     1      15.806   9.021  32.807  1.00  0.00     0.016 A 
ENDBRANCH   6  14
TORSDOF 1
ENDMDL
MODEL 7
REMARK VINA RESULT:      -7.3      2.257      7.766
REMARK  1 active torsions:
REMARK  status: ('A' for Active; 'I' for Inactive)
REMARK    1  A    between atoms: C3_8  and  C5_10 
ROOT
HETATM    1 Cl1  UNK     1      18.967  12.218  34.727  1.00  0.00    -0.084 Cl
HETATM    2  O1  UNK     1      15.596   7.775  32.847  1.00  0.00    -0.321 OA
HETATM    3  O2  UNK     1      19.633   7.213  33.032  1.00  0.00    -0.286 OA
HETATM    4  C1  UNK     1      17.801   8.655  33.353  1.00  0.00     0.050 A 
HETATM    5  C2  UNK     1      16.415   8.786  33.279  1.00  0.00     0.089 A 
HETATM    6  C3  UNK     1      17.500   6.314  32.472  1.00  0.00     0.049 A 
HETATM    7  C4  UNK     1      18.423   7.379  32.954  1.00  0.00     0.198 A 
HETATM    8  C6  UNK     1      16.586  11.049  34.103  1.00  0.00    -0.038 A 
HETATM    9  C7  UNK     1      15.805   9.984  33.655  1.00  0.00     0.046 A 
HETATM   10  C8  UNK     1      18.585   9.720  33.802  1.00  0.00     0.042 A 
HETATM   11  C9  UNK     1      17.973  10.917  34.177  1.00  0.00     0.041 A 
HETATM   12  C10 UNK     1      16.189   6.598  32.459  1.00  0.00     0.159 A 
HETATM   13  C13 UNK     1      15.898  12.317  34.496  1.00  0.00     0.050 C 
ENDROOT
BRANCH   6  14
HETATM   14  C5  UNK     1      17.993   5.007  32.007  1.00  0.00     0.002 A 
HETATM   15  C11 UNK     1      18.606   4.836  30.761  1.00  0.00     0.046 A 
HETATM   16 Cl2  UNK     1      18.829   6.160  29.671  1.00  0.00    -0.083 Cl
HETATM   17  C14 UNK     1      19.057   3.577  30.367  1.00  0.00     0.048 A 
HETATM   18  C16 UNK     1      18.898   2.482  31.216  1.00  0.00     0.035 A 
HETATM   19  C15 UNK     1      18.287   2.646  32.460  1.00  0.00     0.025 A 
HETATM   20 Cl3  UNK     1      19.457   0.928  30.730  1.00  0.00    -0.084 Cl
HETATM   21  C12 UNK     1      17.837   3.906  32.854  1.00  0.00     0.016 A 
ENDBRANCH   6  14
TORSDOF 1
ENDMDL
MODEL 8
REMARK VINA RESULT:      -7.2      4.350      9.325
REMARK  1 active torsions:
REMARK  status: ('A' for Active; 'I' for Inactive)
REMARK    1  A    between atoms: C3_8  and  C5_10 
ROOT
HETATM    1 Cl1  UNK     1      15.825  14.983  35.872  1.00  0.00    -0.084 Cl
HETATM    2  O1  UNK     1      14.594   9.316  34.870  1.00  0.00    -0.321 OA
HETATM    3  O2  UNK     1      18.146  10.804  33.524  1.00  0.00    -0.286 OA
HETATM    4  C1  UNK     1      16.110  11.197  34.638  1.00  0.00     0.050 A 
HETATM    5  C2  UNK     1      14.916  10.631  35.084  1.00  0.00     0.089 A 
HETATM    6  C3  UNK     1      16.675   8.937  33.679  1.00  0.00     0.049 A 
HETATM    7  C4  UNK     1      17.074  10.353  33.906  1.00  0.00     0.198 A 
HETATM    8  C6  UNK     1      14.264  12.755  36.028  1.00  0.00    -0.038 A 
HETATM    9  C7  UNK     1      13.991  11.410  35.781  1.00  0.00     0.046 A 
HETATM   10  C8  UNK     1      16.386  12.544  34.885  1.00  0.00     0.042 A 
HETATM   11  C9  UNK     1      15.459  13.320  35.582  1.00  0.00     0.041 A 
HETATM   12  C10 UNK     1      15.490   8.545  34.171  1.00  0.00     0.159 A 
HETATM   13  C13 UNK     1      13.249  13.558  36.777  1.00  0.00     0.050 C 
ENDROOT
BRANCH   6  14
HETATM   14  C5  UNK     1      17.528   7.999  32.930  1.00  0.00     0.002 A 
HETATM   15  C11 UNK     1      18.689   7.441  33.474  1.00  0.00     0.046 A 
HETATM   16 Cl2  UNK     1      19.210   7.818  35.079  1.00  0.00    -0.083 Cl
HETATM   17  C14 UNK     1      19.463   6.557  32.723  1.00  0.00     0.048 A 
HETATM   18  C16 UNK     1      19.079   6.224  31.424  1.00  0.00     0.035 A 
HETATM   19  C15 UNK     1      17.921   6.777  30.875  1.00  0.00     0.025 A 
HETATM   20 Cl3  UNK     1      20.033   5.131  30.498  1.00  0.00    -0.084 Cl
HETATM   21  C12 UNK     1      17.148   7.662  31.627  1.00  0.00     0.016 A 
ENDBRANCH   6  14
TORSDOF 1
ENDMDL
MODEL 9
REMARK VINA RESULT:      -7.2      1.977      3.029
REMARK  1 active torsions:
REMARK  status: ('A' for Active; 'I' for Inactive)
REMARK    1  A    between atoms: C3_8  and  C5_10 
ROOT
HETATM    1 Cl1  UNK     1      18.900   1.420  28.833  1.00  0.00    -0.084 Cl
HETATM    2  O1  UNK     1      18.237   3.906  34.126  1.00  0.00    -0.321 OA
HETATM    3  O2  UNK     1      18.044   6.288  30.819  1.00  0.00    -0.286 OA
HETATM    4  C1  UNK     1      18.341   4.130  31.712  1.00  0.00     0.050 A 
HETATM    5  C2  UNK     1      18.387   3.364  32.876  1.00  0.00     0.089 A 
HETATM    6  C3  UNK     1      17.982   6.134  33.195  1.00  0.00     0.049 A 
HETATM    7  C4  UNK     1      18.120   5.584  31.818  1.00  0.00     0.198 A 
HETATM    8  C6  UNK     1      18.751   1.377  31.553  1.00  0.00    -0.038 A 
HETATM    9  C7  UNK     1      18.591   1.985  32.798  1.00  0.00     0.046 A 
HETATM   10  C8  UNK     1      18.500   3.523  30.463  1.00  0.00     0.042 A 
HETATM   11  C9  UNK     1      18.705   2.144  30.388  1.00  0.00     0.041 A 
HETATM   12  C10 UNK     1      18.051   5.264  34.213  1.00  0.00     0.159 A 
HETATM   13  C13 UNK     1      18.970  -0.101  31.509  1.00  0.00     0.050 C 
ENDROOT
BRANCH   6  14
HETATM   14  C5  UNK     1      17.797   7.573  33.444  1.00  0.00     0.002 A 
HETATM   15  C11 UNK     1      16.552   8.201  33.331  1.00  0.00     0.046 A 
HETATM   16 Cl2  UNK     1      15.131   7.322  32.886  1.00  0.00    -0.083 Cl
HETATM   17  C14 UNK     1      16.429   9.567  33.577  1.00  0.00     0.048 A 
HETATM   18  C16 UNK     1      17.549  10.315  33.939  1.00  0.00     0.035 A 
HETATM   19  C15 UNK     1      18.794   9.695  34.054  1.00  0.00     0.025 A 
HETATM   20 Cl3  UNK     1      17.396  12.001  34.246  1.00  0.00    -0.084 Cl
HETATM   21  C12 UNK     1      18.916   8.327  33.807  1.00  0.00     0.016 A 
ENDBRANCH   6  14
TORSDOF 1
ENDMDL
MODEL 10
REMARK VINA RESULT:      -7.1      8.025     10.401
REMARK  1 active torsions:
REMARK  status: ('A' for Active; 'I' for Inactive)
REMARK    1  A    between atoms: C3_8  and  C5_10 
ROOT
HETATM    1 Cl1  UNK     1      18.680 -10.157  36.827  1.00  0.00    -0.084 Cl
HETATM    2  O1  UNK     1      21.707  -5.138  37.356  1.00  0.00    -0.321 OA
HETATM    3  O2  UNK     1      17.702  -4.926  36.606  1.00  0.00    -0.286 OA
HETATM    4  C1  UNK     1      19.599  -6.274  36.959  1.00  0.00     0.050 A 
HETATM    5  C2  UNK     1      20.968  -6.285  37.226  1.00  0.00     0.089 A 
HETATM    6  C3  UNK     1      19.752  -3.759  36.941  1.00  0.00     0.049 A 
HETATM    7  C4  UNK     1      18.908  -4.979  36.811  1.00  0.00     0.198 A 
HETATM    8  C6  UNK     1      20.942  -8.699  37.251  1.00  0.00    -0.038 A 
HETATM    9  C7  UNK     1      21.642  -7.499  37.373  1.00  0.00     0.046 A 
HETATM   10  C8  UNK     1      18.897  -7.475  36.838  1.00  0.00     0.042 A 
HETATM   11  C9  UNK     1      19.572  -8.687  36.985  1.00  0.00     0.041 A 
HETATM   12  C10 UNK     1      21.056  -3.939  37.197  1.00  0.00     0.159 A 
HETATM   13  C13 UNK     1      21.697  -9.979  37.413  1.00  0.00     0.050 C 
ENDROOT
BRANCH   6  14
HETATM   14  C5  UNK     1      19.195  -2.407  36.777  1.00  0.00     0.002 A 
HETATM   15  C11 UNK     1      19.300  -1.692  35.579  1.00  0.00     0.046 A 
HETATM   16 Cl2  UNK     1      20.099  -2.353  34.195  1.00  0.00    -0.083 Cl
HETATM   17  C14 UNK     1      18.755  -0.412  35.474  1.00  0.00     0.048 A 
HETATM   18  C16 UNK     1      18.102   0.159  36.565  1.00  0.00     0.035 A 
HETATM   19  C15 UNK     1      17.993  -0.549  37.763  1.00  0.00     0.025 A 
HETATM   20 Cl3  UNK     1      17.427   1.737  36.435  1.00  0.00    -0.084 Cl
HETATM   21  C12 UNK     1      18.538  -1.829  37.867  1.00  0.00     0.016 A 
ENDBRANCH   6  14
TORSDOF 1
ENDMDL
