MODEL 1
REMARK VINA RESULT:      -8.1      0.000      0.000
REMARK  3 active torsions:
REMARK  status: ('A' for Active; 'I' for Inactive)
REMARK    1  A    between atoms: C10_17  and  O2_5 
REMARK    2  A    between atoms: C11_18  and  O2_5 
REMARK    3  A    between atoms: C10_17  and  C4_11 
ROOT
HETATM    1 Br1  UNK     1      18.973  -1.392  32.161  1.00  0.00    -0.048 Br
HETATM    2 Br2  UNK     1      17.904  -0.101  37.582  1.00  0.00    -0.051 Br
HETATM    3  O1  UNK     1      18.603   1.639  31.812  1.00  0.00    -0.273 OA
HETATM    4  O3  UNK     1      18.633   3.282  30.225  1.00  0.00    -0.259 OA
HETATM    5  C1  UNK     1      18.144   2.216  34.128  1.00  0.00     0.002 A 
HETATM    6  C2  UNK     1      18.436   1.262  33.158  1.00  0.00     0.107 A 
HETATM    7  C3  UNK     1      18.013   3.608  33.729  1.00  0.00     0.038 A 
HETATM    8  C4  UNK     1      18.173   3.961  32.448  1.00  0.00     0.116 A 
HETATM    9  C5  UNK     1      17.985   1.803  35.454  1.00  0.00     0.033 A 
HETATM   10  C6  UNK     1      18.575  -0.088  33.475  1.00  0.00     0.047 A 
HETATM   11  C7  UNK     1      18.486   2.963  31.400  1.00  0.00     0.304 A 
HETATM   12  C8  UNK     1      18.120   0.451  35.787  1.00  0.00     0.013 A 
HETATM   13  C9  UNK     1      18.415  -0.492  34.799  1.00  0.00     0.041 A 
ENDROOT
BRANCH   8  14
HETATM   14  C10 UNK     1      18.023   5.389  32.145  1.00  0.00     0.304 C 
HETATM   15  O4  UNK     1      18.961   6.127  31.889  1.00  0.00    -0.259 OA
BRANCH  14  16
HETATM   16  O2  UNK     1      16.678   5.698  32.206  1.00  0.00    -0.275 OA
BRANCH  16  17
HETATM   17  C11 UNK     1      16.438   6.907  32.862  1.00  0.00     0.079 A 
HETATM   18  C12 UNK     1      16.774   7.013  34.194  1.00  0.00     0.039 A 
HETATM   19  C14 UNK     1      16.534   8.221  34.851  1.00  0.00     0.026 A 
HETATM   20  C16 UNK     1      15.964   9.290  34.160  1.00  0.00     0.034 A 
HETATM   21  C15 UNK     1      15.635   9.152  32.811  1.00  0.00     0.026 A 
HETATM   22 Cl1  UNK     1      15.667  10.778  34.970  1.00  0.00    -0.084 Cl
HETATM   23  C13 UNK     1      15.875   7.945  32.154  1.00  0.00     0.039 A 
ENDBRANCH  16  17
ENDBRANCH  14  16
ENDBRANCH   8  14
TORSDOF 3
ENDMDL
MODEL 2
REMARK VINA RESULT:      -7.9     23.916     25.358
REMARK  3 active torsions:
REMARK  status: ('A' for Active; 'I' for Inactive)
REMARK    1  A    between atoms: C10_17  and  O2_5 
REMARK    2  A    between atoms: C11_18  and  O2_5 
REMARK    3  A    between atoms: C10_17  and  C4_11 
ROOT
HETATM    1 Br1  UNK     1      14.092  12.390  11.660  1.00  0.00    -0.048 Br
HETATM    2 Br2  UNK     1      19.449  12.127   9.810  1.00  0.00    -0.051 Br
HETATM    3  O1  UNK     1      14.144   9.405  10.929  1.00  0.00    -0.273 OA
HETATM    4  O3  UNK     1      12.833   7.534  10.920  1.00  0.00    -0.259 OA
HETATM    5  C1  UNK     1      16.436   9.269  10.132  1.00  0.00     0.002 A 
HETATM    6  C2  UNK     1      15.386  10.013  10.659  1.00  0.00     0.107 A 
HETATM    7  C3  UNK     1      16.232   7.854   9.862  1.00  0.00     0.038 A 
HETATM    8  C4  UNK     1      15.049   7.282  10.120  1.00  0.00     0.116 A 
HETATM    9  C5  UNK     1      17.653   9.906   9.879  1.00  0.00     0.033 A 
HETATM   10  C6  UNK     1      15.517  11.371  10.941  1.00  0.00     0.047 A 
HETATM   11  C7  UNK     1      13.918   8.055  10.683  1.00  0.00     0.304 A 
HETATM   12  C8  UNK     1      17.800  11.270  10.155  1.00  0.00     0.013 A 
HETATM   13  C9  UNK     1      16.733  12.000  10.685  1.00  0.00     0.041 A 
ENDROOT
BRANCH   8  14
HETATM   14  C10 UNK     1      14.940   5.850   9.815  1.00  0.00     0.304 C 
HETATM   15  O4  UNK     1      14.934   4.977  10.669  1.00  0.00    -0.259 OA
BRANCH  14  16
HETATM   16  O2  UNK     1      14.853   5.713   8.444  1.00  0.00    -0.275 OA
BRANCH  16  17
HETATM   17  C11 UNK     1      13.537   5.794   7.983  1.00  0.00     0.079 A 
HETATM   18  C12 UNK     1      12.597   4.939   8.514  1.00  0.00     0.039 A 
HETATM   19  C14 UNK     1      11.282   5.020   8.053  1.00  0.00     0.026 A 
HETATM   20  C16 UNK     1      10.942   5.953   7.073  1.00  0.00     0.034 A 
HETATM   21  C15 UNK     1      11.916   6.806   6.556  1.00  0.00     0.026 A 
HETATM   22 Cl1  UNK     1       9.321   6.052   6.505  1.00  0.00    -0.084 Cl
HETATM   23  C13 UNK     1      13.231   6.725   7.016  1.00  0.00     0.039 A 
ENDBRANCH  16  17
ENDBRANCH  14  16
ENDBRANCH   8  14
TORSDOF 3
ENDMDL
MODEL 3
REMARK VINA RESULT:      -7.9     23.908     25.370
REMARK  3 active torsions:
REMARK  status: ('A' for Active; 'I' for Inactive)
REMARK    1  A    between atoms: C10_17  and  O2_5 
REMARK    2  A    between atoms: C11_18  and  O2_5 
REMARK    3  A    between atoms: C10_17  and  C4_11 
ROOT
HETATM    1 Br1  UNK     1      14.100  12.421  11.683  1.00  0.00    -0.048 Br
HETATM    2 Br2  UNK     1      19.450  12.165   9.812  1.00  0.00    -0.051 Br
HETATM    3  O1  UNK     1      14.150   9.438  10.945  1.00  0.00    -0.273 OA
HETATM    4  O3  UNK     1      12.840   7.566  10.937  1.00  0.00    -0.259 OA
HETATM    5  C1  UNK     1      16.440   9.304  10.140  1.00  0.00     0.002 A 
HETATM    6  C2  UNK     1      15.391  10.047  10.673  1.00  0.00     0.107 A 
HETATM    7  C3  UNK     1      16.235   7.891   9.867  1.00  0.00     0.038 A 
HETATM    8  C4  UNK     1      15.054   7.317  10.129  1.00  0.00     0.116 A 
HETATM    9  C5  UNK     1      17.655   9.943   9.883  1.00  0.00     0.033 A 
HETATM   10  C6  UNK     1      15.522  11.405  10.957  1.00  0.00     0.047 A 
HETATM   11  C7  UNK     1      13.924   8.088  10.697  1.00  0.00     0.304 A 
HETATM   12  C8  UNK     1      17.802  11.306  10.161  1.00  0.00     0.013 A 
HETATM   13  C9  UNK     1      16.737  12.034  10.697  1.00  0.00     0.041 A 
ENDROOT
BRANCH   8  14
HETATM   14  C10 UNK     1      14.945   5.886   9.821  1.00  0.00     0.304 C 
HETATM   15  O4  UNK     1      14.936   5.012  10.673  1.00  0.00    -0.259 OA
BRANCH  14  16
HETATM   16  O2  UNK     1      14.859   5.751   8.449  1.00  0.00    -0.275 OA
BRANCH  16  17
HETATM   17  C11 UNK     1      13.543   5.818   7.988  1.00  0.00     0.079 A 
HETATM   18  C12 UNK     1      13.229   6.745   7.018  1.00  0.00     0.039 A 
HETATM   19  C14 UNK     1      11.913   6.813   6.559  1.00  0.00     0.026 A 
HETATM   20  C16 UNK     1      10.946   5.954   7.080  1.00  0.00     0.034 A 
HETATM   21  C15 UNK     1      11.294   5.026   8.061  1.00  0.00     0.026 A 
HETATM   22 Cl1  UNK     1       9.324   6.039   6.514  1.00  0.00    -0.084 Cl
HETATM   23  C13 UNK     1      12.610   4.957   8.521  1.00  0.00     0.039 A 
ENDBRANCH  16  17
ENDBRANCH  14  16
ENDBRANCH   8  14
TORSDOF 3
ENDMDL
MODEL 4
REMARK VINA RESULT:      -7.8     12.484     15.153
REMARK  3 active torsions:
REMARK  status: ('A' for Active; 'I' for Inactive)
REMARK    1  A    between atoms: C10_17  and  O2_5 
REMARK    2  A    between atoms: C11_18  and  O2_5 
REMARK    3  A    between atoms: C10_17  and  C4_11 
ROOT
HETATM    1 Br1  UNK     1      29.157  -4.360  38.926  1.00  0.00    -0.048 Br
HETATM    2 Br2  UNK     1      30.907  -9.699  38.129  1.00  0.00    -0.051 Br
HETATM    3  O1  UNK     1      26.397  -5.712  38.885  1.00  0.00    -0.273 OA
HETATM    4  O3  UNK     1      24.166  -5.248  39.060  1.00  0.00    -0.259 OA
HETATM    5  C1  UNK     1      27.124  -8.006  38.545  1.00  0.00     0.002 A 
HETATM    6  C2  UNK     1      27.425  -6.658  38.708  1.00  0.00     0.107 A 
HETATM    7  C3  UNK     1      25.730  -8.423  38.560  1.00  0.00     0.038 A 
HETATM    8  C4  UNK     1      24.757  -7.519  38.729  1.00  0.00     0.116 A 
HETATM    9  C5  UNK     1      28.170  -8.915  38.372  1.00  0.00     0.033 A 
HETATM   10  C6  UNK     1      28.739  -6.194  38.704  1.00  0.00     0.047 A 
HETATM   11  C7  UNK     1      25.055  -6.079  38.905  1.00  0.00     0.304 A 
HETATM   12  C8  UNK     1      29.494  -8.464  38.364  1.00  0.00     0.013 A 
HETATM   13  C9  UNK     1      29.777  -7.106  38.530  1.00  0.00     0.041 A 
ENDROOT
BRANCH   8  14
HETATM   14  C10 UNK     1      23.384  -8.037  38.731  1.00  0.00     0.304 C 
HETATM   15  O4  UNK     1      22.764  -8.303  39.748  1.00  0.00    -0.259 OA
BRANCH  14  16
HETATM   16  O2  UNK     1      22.970  -8.151  37.418  1.00  0.00    -0.275 OA
BRANCH  16  17
HETATM   17  C11 UNK     1      21.654  -7.722  37.235  1.00  0.00     0.079 A 
HETATM   18  C12 UNK     1      21.354  -6.396  37.454  1.00  0.00     0.039 A 
HETATM   19  C14 UNK     1      20.038  -5.968  37.272  1.00  0.00     0.026 A 
HETATM   20  C16 UNK     1      19.057  -6.877  36.877  1.00  0.00     0.034 A 
HETATM   21  C15 UNK     1      19.391  -8.214  36.662  1.00  0.00     0.026 A 
HETATM   22 Cl1  UNK     1      17.434  -6.349  36.654  1.00  0.00    -0.084 Cl
HETATM   23  C13 UNK     1      20.706  -8.642  36.844  1.00  0.00     0.039 A 
ENDBRANCH  16  17
ENDBRANCH  14  16
ENDBRANCH   8  14
TORSDOF 3
ENDMDL
MODEL 5
REMARK VINA RESULT:      -7.8      7.285     11.401
REMARK  3 active torsions:
REMARK  status: ('A' for Active; 'I' for Inactive)
REMARK    1  A    between atoms: C10_17  and  O2_5 
REMARK    2  A    between atoms: C11_18  and  O2_5 
REMARK    3  A    between atoms: C10_17  and  C4_11 
ROOT
HETATM    1 Br1  UNK     1      17.922   1.643  33.766  1.00  0.00    -0.048 Br
HETATM    2 Br2  UNK     1      20.425  -1.134  29.498  1.00  0.00    -0.051 Br
HETATM    3  O1  UNK     1      18.812  -0.843  35.339  1.00  0.00    -0.273 OA
HETATM    4  O3  UNK     1      18.762  -1.758  37.432  1.00  0.00    -0.259 OA
HETATM    5  C1  UNK     1      19.891  -2.050  33.526  1.00  0.00     0.002 A 
HETATM    6  C2  UNK     1      19.198  -0.935  33.988  1.00  0.00     0.107 A 
HETATM    7  C3  UNK     1      20.208  -3.118  34.460  1.00  0.00     0.038 A 
HETATM    8  C4  UNK     1      19.839  -3.025  35.743  1.00  0.00     0.116 A 
HETATM    9  C5  UNK     1      20.257  -2.106  32.179  1.00  0.00     0.033 A 
HETATM   10  C6  UNK     1      18.863   0.123  33.145  1.00  0.00     0.047 A 
HETATM   11  C7  UNK     1      19.102  -1.847  36.257  1.00  0.00     0.304 A 
HETATM   12  C8  UNK     1      19.927  -1.053  31.320  1.00  0.00     0.013 A 
HETATM   13  C9  UNK     1      19.232   0.059  31.803  1.00  0.00     0.041 A 
ENDROOT
BRANCH   8  14
HETATM   14  C10 UNK     1      20.206  -4.153  36.608  1.00  0.00     0.304 C 
HETATM   15  O4  UNK     1      21.246  -4.204  37.245  1.00  0.00    -0.259 OA
BRANCH  14  16
HETATM   16  O2  UNK     1      19.187  -5.083  36.551  1.00  0.00    -0.275 OA
BRANCH  16  17
HETATM   17  C11 UNK     1      19.663  -6.387  36.402  1.00  0.00     0.079 A 
HETATM   18  C12 UNK     1      20.256  -6.742  35.211  1.00  0.00     0.039 A 
HETATM   19  C14 UNK     1      20.732  -8.045  35.061  1.00  0.00     0.026 A 
HETATM   20  C16 UNK     1      20.602  -8.960  36.107  1.00  0.00     0.034 A 
HETATM   21  C15 UNK     1      19.998  -8.570  37.302  1.00  0.00     0.026 A 
HETATM   22 Cl1  UNK     1      21.188 -10.567  35.922  1.00  0.00    -0.084 Cl
HETATM   23  C13 UNK     1      19.522  -7.267  37.451  1.00  0.00     0.039 A 
ENDBRANCH  16  17
ENDBRANCH  14  16
ENDBRANCH   8  14
TORSDOF 3
ENDMDL
MODEL 6
REMARK VINA RESULT:      -7.7     24.442     26.389
REMARK  3 active torsions:
REMARK  status: ('A' for Active; 'I' for Inactive)
REMARK    1  A    between atoms: C10_17  and  O2_5 
REMARK    2  A    between atoms: C11_18  and  O2_5 
REMARK    3  A    between atoms: C10_17  and  C4_11 
ROOT
HETATM    1 Br1  UNK     1      19.935  11.798   8.388  1.00  0.00    -0.048 Br
HETATM    2 Br2  UNK     1      15.232  14.376   6.535  1.00  0.00    -0.051 Br
HETATM    3  O1  UNK     1      17.905   9.667   9.272  1.00  0.00    -0.273 OA
HETATM    4  O3  UNK     1      17.768   7.636  10.310  1.00  0.00    -0.259 OA
HETATM    5  C1  UNK     1      15.877  10.752   8.485  1.00  0.00     0.002 A 
HETATM    6  C2  UNK     1      17.260  10.748   8.641  1.00  0.00     0.107 A 
HETATM    7  C3  UNK     1      15.109   9.624   8.987  1.00  0.00     0.038 A 
HETATM    8  C4  UNK     1      15.727   8.599   9.586  1.00  0.00     0.116 A 
HETATM    9  C5  UNK     1      15.273  11.842   7.854  1.00  0.00     0.033 A 
HETATM   10  C6  UNK     1      18.053  11.798   8.182  1.00  0.00     0.047 A 
HETATM   11  C7  UNK     1      17.198   8.573   9.761  1.00  0.00     0.304 A 
HETATM   12  C8  UNK     1      16.055  12.904   7.389  1.00  0.00     0.013 A 
HETATM   13  C9  UNK     1      17.443  12.881   7.553  1.00  0.00     0.041 A 
ENDROOT
BRANCH   8  14
HETATM   14  C10 UNK     1      14.867   7.507  10.058  1.00  0.00     0.304 C 
HETATM   15  O4  UNK     1      14.284   7.523  11.130  1.00  0.00    -0.259 OA
BRANCH  14  16
HETATM   16  O2  UNK     1      14.859   6.522   9.089  1.00  0.00    -0.275 OA
BRANCH  16  17
HETATM   17  C11 UNK     1      13.604   6.365   8.499  1.00  0.00     0.079 A 
HETATM   18  C12 UNK     1      13.377   6.937   7.267  1.00  0.00     0.039 A 
HETATM   19  C14 UNK     1      12.122   6.781   6.677  1.00  0.00     0.026 A 
HETATM   20  C16 UNK     1      11.126   6.058   7.335  1.00  0.00     0.034 A 
HETATM   21  C15 UNK     1      11.386   5.490   8.582  1.00  0.00     0.026 A 
HETATM   22 Cl1  UNK     1       9.579   5.867   6.608  1.00  0.00    -0.084 Cl
HETATM   23  C13 UNK     1      12.641   5.646   9.172  1.00  0.00     0.039 A 
ENDBRANCH  16  17
ENDBRANCH  14  16
ENDBRANCH   8  14
TORSDOF 3
ENDMDL
MODEL 7
REMARK VINA RESULT:      -7.7      4.906      7.695
REMARK  3 active torsions:
REMARK  status: ('A' for Active; 'I' for Inactive)
REMARK    1  A    between atoms: C10_17  and  O2_5 
REMARK    2  A    between atoms: C11_18  and  O2_5 
REMARK    3  A    between atoms: C10_17  and  C4_11 
ROOT
HETATM    1 Br1  UNK     1      20.233   9.504  34.573  1.00  0.00    -0.048 Br
HETATM    2 Br2  UNK     1      14.560   9.444  34.475  1.00  0.00    -0.051 Br
HETATM    3  O1  UNK     1      19.865   7.148  32.633  1.00  0.00    -0.273 OA
HETATM    4  O3  UNK     1      21.051   5.635  31.399  1.00  0.00    -0.259 OA
HETATM    5  C1  UNK     1      17.436   7.104  32.575  1.00  0.00     0.002 A 
HETATM    6  C2  UNK     1      18.621   7.662  33.046  1.00  0.00     0.107 A 
HETATM    7  C3  UNK     1      17.503   5.982  31.653  1.00  0.00     0.038 A 
HETATM    8  C4  UNK     1      18.689   5.498  31.265  1.00  0.00     0.116 A 
HETATM    9  C5  UNK     1      16.220   7.642  33.007  1.00  0.00     0.033 A 
HETATM   10  C6  UNK     1      18.625   8.739  33.930  1.00  0.00     0.047 A 
HETATM   11  C7  UNK     1      19.963   6.076  31.752  1.00  0.00     0.304 A 
HETATM   12  C8  UNK     1      16.208   8.721  33.895  1.00  0.00     0.013 A 
HETATM   13  C9  UNK     1      17.409   9.269  34.355  1.00  0.00     0.041 A 
ENDROOT
BRANCH   8  14
HETATM   14  C10 UNK     1      18.654   4.364  30.332  1.00  0.00     0.304 C 
HETATM   15  O4  UNK     1      19.060   4.424  29.183  1.00  0.00    -0.259 OA
BRANCH  14  16
HETATM   16  O2  UNK     1      18.099   3.286  30.993  1.00  0.00    -0.275 OA
BRANCH  16  17
HETATM   17  C11 UNK     1      18.676   2.073  30.611  1.00  0.00     0.079 A 
HETATM   18  C12 UNK     1      19.211   1.260  31.586  1.00  0.00     0.039 A 
HETATM   19  C14 UNK     1      19.788   0.049  31.204  1.00  0.00     0.026 A 
HETATM   20  C16 UNK     1      19.817  -0.318  29.859  1.00  0.00     0.034 A 
HETATM   21  C15 UNK     1      19.267   0.526  28.895  1.00  0.00     0.026 A 
HETATM   22 Cl1  UNK     1      20.530  -1.812  29.388  1.00  0.00    -0.084 Cl
HETATM   23  C13 UNK     1      18.689   1.737  29.276  1.00  0.00     0.039 A 
ENDBRANCH  16  17
ENDBRANCH  14  16
ENDBRANCH   8  14
TORSDOF 3
ENDMDL
MODEL 8
REMARK VINA RESULT:      -7.7      1.547      1.737
REMARK  3 active torsions:
REMARK  status: ('A' for Active; 'I' for Inactive)
REMARK    1  A    between atoms: C10_17  and  O2_5 
REMARK    2  A    between atoms: C11_18  and  O2_5 
REMARK    3  A    between atoms: C10_17  and  C4_11 
ROOT
HETATM    1 Br1  UNK     1      19.873  -2.168  31.137  1.00  0.00    -0.048 Br
HETATM    2 Br2  UNK     1      18.290  -1.608  36.557  1.00  0.00    -0.051 Br
HETATM    3  O1  UNK     1      19.126   0.812  31.057  1.00  0.00    -0.273 OA
HETATM    4  O3  UNK     1      19.040   2.606  29.644  1.00  0.00    -0.259 OA
HETATM    5  C1  UNK     1      18.444   1.076  33.375  1.00  0.00     0.002 A 
HETATM    6  C2  UNK     1      18.923   0.275  32.343  1.00  0.00     0.107 A 
HETATM    7  C3  UNK     1      18.155   2.475  33.105  1.00  0.00     0.038 A 
HETATM    8  C4  UNK     1      18.350   2.980  31.881  1.00  0.00     0.116 A 
HETATM    9  C5  UNK     1      18.255   0.507  34.637  1.00  0.00     0.033 A 
HETATM   10  C6  UNK     1      19.220  -1.073  32.536  1.00  0.00     0.047 A 
HETATM   11  C7  UNK     1      18.860   2.147  30.768  1.00  0.00     0.304 A 
HETATM   12  C8  UNK     1      18.547  -0.844  34.847  1.00  0.00     0.013 A 
HETATM   13  C9  UNK     1      19.028  -1.632  33.798  1.00  0.00     0.041 A 
ENDROOT
BRANCH   8  14
HETATM   14  C10 UNK     1      18.031   4.403  31.706  1.00  0.00     0.304 C 
HETATM   15  O4  UNK     1      18.271   5.028  30.686  1.00  0.00    -0.259 OA
BRANCH  14  16
HETATM   16  O2  UNK     1      17.438   4.852  32.870  1.00  0.00    -0.275 OA
BRANCH  16  17
HETATM   17  C11 UNK     1      17.727   6.192  33.132  1.00  0.00     0.079 A 
HETATM   18  C12 UNK     1      18.985   6.521  33.585  1.00  0.00     0.039 A 
HETATM   19  C14 UNK     1      19.273   7.861  33.848  1.00  0.00     0.026 A 
HETATM   20  C16 UNK     1      18.296   8.837  33.651  1.00  0.00     0.034 A 
HETATM   21  C15 UNK     1      17.031   8.473  33.191  1.00  0.00     0.026 A 
HETATM   22 Cl1  UNK     1      18.652  10.489  33.976  1.00  0.00    -0.084 Cl
HETATM   23  C13 UNK     1      16.742   7.134  32.929  1.00  0.00     0.039 A 
ENDBRANCH  16  17
ENDBRANCH  14  16
ENDBRANCH   8  14
TORSDOF 3
ENDMDL
MODEL 9
REMARK VINA RESULT:      -7.7     23.746     25.335
REMARK  3 active torsions:
REMARK  status: ('A' for Active; 'I' for Inactive)
REMARK    1  A    between atoms: C10_17  and  O2_5 
REMARK    2  A    between atoms: C11_18  and  O2_5 
REMARK    3  A    between atoms: C10_17  and  C4_11 
ROOT
HETATM    1 Br1  UNK     1       9.413   6.554   5.625  1.00  0.00    -0.048 Br
HETATM    2 Br2  UNK     1       6.845   4.649  10.312  1.00  0.00    -0.051 Br
HETATM    3  O1  UNK     1      11.930   6.056   7.317  1.00  0.00    -0.273 OA
HETATM    4  O3  UNK     1      14.208   6.211   7.238  1.00  0.00    -0.259 OA
HETATM    5  C1  UNK     1      10.851   5.237   9.335  1.00  0.00     0.002 A 
HETATM    6  C2  UNK     1      10.765   5.723   8.034  1.00  0.00     0.107 A 
HETATM    7  C3  UNK     1      12.164   5.081   9.943  1.00  0.00     0.038 A 
HETATM    8  C4  UNK     1      13.267   5.399   9.256  1.00  0.00     0.116 A 
HETATM    9  C5  UNK     1       9.674   4.916  10.015  1.00  0.00     0.033 A 
HETATM   10  C6  UNK     1       9.539   5.895   7.395  1.00  0.00     0.047 A 
HETATM   11  C7  UNK     1      13.199   5.917   7.870  1.00  0.00     0.304 A 
HETATM   12  C8  UNK     1       8.435   5.085   9.387  1.00  0.00     0.013 A 
HETATM   13  C9  UNK     1       8.369   5.573   8.080  1.00  0.00     0.041 A 
ENDROOT
BRANCH   8  14
HETATM   14  C10 UNK     1      14.544   5.206   9.954  1.00  0.00     0.304 C 
HETATM   15  O4  UNK     1      15.330   4.310   9.688  1.00  0.00    -0.259 OA
BRANCH  14  16
HETATM   16  O2  UNK     1      14.659   6.193  10.914  1.00  0.00    -0.275 OA
BRANCH  16  17
HETATM   17  C11 UNK     1      15.410   7.283  10.471  1.00  0.00     0.079 A 
HETATM   18  C12 UNK     1      16.775   7.142  10.354  1.00  0.00     0.039 A 
HETATM   19  C14 UNK     1      17.526   8.231   9.912  1.00  0.00     0.026 A 
HETATM   20  C16 UNK     1      16.893   9.434   9.599  1.00  0.00     0.034 A 
HETATM   21  C15 UNK     1      15.508   9.547   9.726  1.00  0.00     0.026 A 
HETATM   22 Cl1  UNK     1      17.819  10.778   9.054  1.00  0.00    -0.084 Cl
HETATM   23  C13 UNK     1      14.758   8.457  10.168  1.00  0.00     0.039 A 
ENDBRANCH  16  17
ENDBRANCH  14  16
ENDBRANCH   8  14
TORSDOF 3
ENDMDL
MODEL 10
REMARK VINA RESULT:      -7.6     24.394     25.914
REMARK  3 active torsions:
REMARK  status: ('A' for Active; 'I' for Inactive)
REMARK    1  A    between atoms: C10_17  and  O2_5 
REMARK    2  A    between atoms: C11_18  and  O2_5 
REMARK    3  A    between atoms: C10_17  and  C4_11 
ROOT
HETATM    1 Br1  UNK     1       5.893   4.755  13.588  1.00  0.00    -0.048 Br
HETATM    2 Br2  UNK     1       3.713   9.741  11.984  1.00  0.00    -0.051 Br
HETATM    3  O1  UNK     1       7.506   5.110  10.996  1.00  0.00    -0.273 OA
HETATM    4  O3  UNK     1       9.100   4.089   9.717  1.00  0.00    -0.259 OA
HETATM    5  C1  UNK     1       6.587   7.247  10.289  1.00  0.00     0.002 A 
HETATM    6  C2  UNK     1       6.634   6.197  11.201  1.00  0.00     0.107 A 
HETATM    7  C3  UNK     1       7.451   7.202   9.120  1.00  0.00     0.038 A 
HETATM    8  C4  UNK     1       8.277   6.167   8.930  1.00  0.00     0.116 A 
HETATM    9  C5  UNK     1       5.710   8.307  10.527  1.00  0.00     0.033 A 
HETATM   10  C6  UNK     1       5.834   6.179  12.342  1.00  0.00     0.047 A 
HETATM   11  C7  UNK     1       8.345   5.040   9.888  1.00  0.00     0.304 A 
HETATM   12  C8  UNK     1       4.899   8.303  11.667  1.00  0.00     0.013 A 
HETATM   13  C9  UNK     1       4.961   7.240  12.572  1.00  0.00     0.041 A 
ENDROOT
BRANCH   8  14
HETATM   14  C10 UNK     1       9.109   6.214   7.722  1.00  0.00     0.304 C 
HETATM   15  O4  UNK     1       8.906   5.524   6.735  1.00  0.00    -0.259 OA
BRANCH  14  16
HETATM   16  O2  UNK     1      10.108   7.146   7.927  1.00  0.00    -0.275 OA
BRANCH  16  17
HETATM   17  C11 UNK     1      11.297   6.564   8.369  1.00  0.00     0.079 A 
HETATM   18  C12 UNK     1      12.003   7.184   9.376  1.00  0.00     0.039 A 
HETATM   19  C14 UNK     1      13.192   6.603   9.817  1.00  0.00     0.026 A 
HETATM   20  C16 UNK     1      13.645   5.417   9.240  1.00  0.00     0.034 A 
HETATM   21  C15 UNK     1      12.909   4.811   8.222  1.00  0.00     0.026 A 
HETATM   22 Cl1  UNK     1      15.112   4.700   9.783  1.00  0.00    -0.084 Cl
HETATM   23  C13 UNK     1      11.720   5.392   7.781  1.00  0.00     0.039 A 
ENDBRANCH  16  17
ENDBRANCH  14  16
ENDBRANCH   8  14
TORSDOF 3
ENDMDL
