MODEL 1
REMARK VINA RESULT:      -7.8      0.000      0.000
REMARK  3 active torsions:
REMARK  status: ('A' for Active; 'I' for Inactive)
REMARK    1  A    between atoms: C14_18  and  O2_2 
REMARK    2  A    between atoms: C15_19  and  O2_2 
REMARK    3  A    between atoms: C14_18  and  C9_13 
ROOT
HETATM    1  O1  UNK     1      18.642   1.112  31.755  1.00  0.00    -0.274 OA
HETATM    2  O3  UNK     1      18.629   2.852  30.277  1.00  0.00    -0.259 OA
HETATM    3  C1  UNK     1      18.217   1.502  34.135  1.00  0.00     0.010 A 
HETATM    4  C2  UNK     1      18.087   0.968  35.450  1.00  0.00    -0.013 A 
HETATM    5  C3  UNK     1      18.255  -0.433  35.634  1.00  0.00    -0.025 A 
HETATM    6  C4  UNK     1      18.504   0.637  33.077  1.00  0.00     0.090 A 
HETATM    7  C5  UNK     1      18.071   2.923  33.803  1.00  0.00     0.039 A 
HETATM    8  C6  UNK     1      18.542  -1.260  34.536  1.00  0.00     0.015 A 
HETATM    9  C7  UNK     1      18.667  -0.731  33.259  1.00  0.00     0.039 A 
HETATM   10  C8  UNK     1      17.799   1.739  36.604  1.00  0.00     0.013 A 
HETATM   11  C9  UNK     1      18.203   3.368  32.549  1.00  0.00     0.115 A 
HETATM   12  C10 UNK     1      18.135  -0.999  36.914  1.00  0.00     0.012 A 
HETATM   13  C11 UNK     1      18.504   2.454  31.430  1.00  0.00     0.304 A 
HETATM   14  C12 UNK     1      17.682   1.158  37.870  1.00  0.00     0.001 A 
HETATM   15  C13 UNK     1      17.850  -0.210  38.024  1.00  0.00     0.001 A 
ENDROOT
BRANCH  11  16
HETATM   16  C14 UNK     1      18.032   4.812  32.346  1.00  0.00     0.299 C 
HETATM   17  O4  UNK     1      16.947   5.344  32.188  1.00  0.00    -0.259 OA
BRANCH  16  18
HETATM   18  O2  UNK     1      19.254   5.400  32.371  1.00  0.00    -0.318 OA
BRANCH  18  19
HETATM   19  C15 UNK     1      19.445   6.450  31.417  1.00  0.00     0.174 C 
HETATM   20  C16 UNK     1      20.101   5.878  30.179  1.00  0.00     0.034 C 
ENDBRANCH  18  19
ENDBRANCH  16  18
ENDBRANCH  11  16
TORSDOF 3
ENDMDL
MODEL 2
REMARK VINA RESULT:      -7.8     14.894     17.788
REMARK  3 active torsions:
REMARK  status: ('A' for Active; 'I' for Inactive)
REMARK    1  A    between atoms: C14_18  and  O2_2 
REMARK    2  A    between atoms: C15_19  and  O2_2 
REMARK    3  A    between atoms: C14_18  and  C9_13 
ROOT
HETATM    1  O1  UNK     1      19.223   0.638  14.744  1.00  0.00    -0.274 OA
HETATM    2  O3  UNK     1      19.048  -1.070  13.240  1.00  0.00    -0.259 OA
HETATM    3  C1  UNK     1      19.105   0.191  17.148  1.00  0.00     0.010 A 
HETATM    4  C2  UNK     1      19.134   0.696  18.481  1.00  0.00    -0.013 A 
HETATM    5  C3  UNK     1      19.303   2.095  18.674  1.00  0.00    -0.025 A 
HETATM    6  C4  UNK     1      19.243   1.083  16.083  1.00  0.00     0.090 A 
HETATM    7  C5  UNK     1      18.936  -1.225  16.806  1.00  0.00     0.039 A 
HETATM    8  C6  UNK     1      19.438   2.949  17.569  1.00  0.00     0.015 A 
HETATM    9  C7  UNK     1      19.409   2.449  16.274  1.00  0.00     0.039 A 
HETATM   10  C8  UNK     1      19.005  -0.104  19.644  1.00  0.00     0.013 A 
HETATM   11  C9  UNK     1      18.917  -1.641  15.534  1.00  0.00     0.115 A 
HETATM   12  C10 UNK     1      19.338   2.633  19.972  1.00  0.00     0.012 A 
HETATM   13  C11 UNK     1      19.065  -0.699  14.408  1.00  0.00     0.304 A 
HETATM   14  C12 UNK     1      19.043   0.448  20.928  1.00  0.00     0.001 A 
HETATM   15  C13 UNK     1      19.209   1.815  21.091  1.00  0.00     0.001 A 
ENDROOT
BRANCH  11  16
HETATM   16  C14 UNK     1      18.743  -3.083  15.322  1.00  0.00     0.299 C 
HETATM   17  O4  UNK     1      17.733  -3.576  14.851  1.00  0.00    -0.259 OA
BRANCH  16  18
HETATM   18  O2  UNK     1      19.869  -3.719  15.731  1.00  0.00    -0.318 OA
BRANCH  18  19
HETATM   19  C15 UNK     1      20.704  -4.219  14.681  1.00  0.00     0.174 C 
HETATM   20  C16 UNK     1      20.676  -5.732  14.707  1.00  0.00     0.034 C 
ENDBRANCH  18  19
ENDBRANCH  16  18
ENDBRANCH  11  16
TORSDOF 3
ENDMDL
MODEL 3
REMARK VINA RESULT:      -7.7     24.087     26.466
REMARK  3 active torsions:
REMARK  status: ('A' for Active; 'I' for Inactive)
REMARK    1  A    between atoms: C14_18  and  O2_2 
REMARK    2  A    between atoms: C15_19  and  O2_2 
REMARK    3  A    between atoms: C14_18  and  C9_13 
ROOT
HETATM    1  O1  UNK     1      14.253   6.501  10.430  1.00  0.00    -0.274 OA
HETATM    2  O3  UNK     1      12.219   5.475  10.291  1.00  0.00    -0.259 OA
HETATM    3  C1  UNK     1      14.674   8.590   9.223  1.00  0.00     0.010 A 
HETATM    4  C2  UNK     1      15.577   9.642   8.892  1.00  0.00    -0.013 A 
HETATM    5  C3  UNK     1      16.890   9.607   9.439  1.00  0.00    -0.025 A 
HETATM    6  C4  UNK     1      15.106   7.566  10.068  1.00  0.00     0.090 A 
HETATM    7  C5  UNK     1      13.296   8.500   8.729  1.00  0.00     0.039 A 
HETATM    8  C6  UNK     1      17.275   8.555  10.285  1.00  0.00     0.015 A 
HETATM    9  C7  UNK     1      16.389   7.535  10.602  1.00  0.00     0.039 A 
HETATM   10  C8  UNK     1      15.261  10.734   8.047  1.00  0.00     0.013 A 
HETATM   11  C9  UNK     1      12.492   7.488   9.074  1.00  0.00     0.115 A 
HETATM   12  C10 UNK     1      17.811  10.625   9.138  1.00  0.00     0.012 A 
HETATM   13  C11 UNK     1      12.947   6.407   9.970  1.00  0.00     0.304 A 
HETATM   14  C12 UNK     1      16.189  11.739   7.759  1.00  0.00     0.001 A 
HETATM   15  C13 UNK     1      17.463  11.683   8.304  1.00  0.00     0.001 A 
ENDROOT
BRANCH  11  16
HETATM   16  C14 UNK     1      11.134   7.513   8.516  1.00  0.00     0.299 C 
HETATM   17  O4  UNK     1      10.128   7.585   9.200  1.00  0.00    -0.259 OA
BRANCH  16  18
HETATM   18  O2  UNK     1      11.222   7.444   7.164  1.00  0.00    -0.318 OA
BRANCH  18  19
HETATM   19  C15 UNK     1      11.038   6.139   6.606  1.00  0.00     0.174 C 
HETATM   20  C16 UNK     1       9.721   6.103   5.860  1.00  0.00     0.034 C 
ENDBRANCH  18  19
ENDBRANCH  16  18
ENDBRANCH  11  16
TORSDOF 3
ENDMDL
MODEL 4
REMARK VINA RESULT:      -7.7      1.970      5.941
REMARK  3 active torsions:
REMARK  status: ('A' for Active; 'I' for Inactive)
REMARK    1  A    between atoms: C14_18  and  O2_2 
REMARK    2  A    between atoms: C15_19  and  O2_2 
REMARK    3  A    between atoms: C14_18  and  C9_13 
ROOT
HETATM    1  O1  UNK     1      18.768   0.648  31.345  1.00  0.00    -0.274 OA
HETATM    2  O3  UNK     1      18.755  -1.335  32.476  1.00  0.00    -0.259 OA
HETATM    3  C1  UNK     1      18.427   2.759  32.538  1.00  0.00     0.010 A 
HETATM    4  C2  UNK     1      18.324   4.180  32.489  1.00  0.00    -0.013 A 
HETATM    5  C3  UNK     1      18.459   4.828  31.229  1.00  0.00    -0.025 A 
HETATM    6  C4  UNK     1      18.656   2.055  31.354  1.00  0.00     0.090 A 
HETATM    7  C5  UNK     1      18.306   1.965  33.765  1.00  0.00     0.039 A 
HETATM    8  C6  UNK     1      18.690   4.074  30.068  1.00  0.00     0.015 A 
HETATM    9  C7  UNK     1      18.789   2.690  30.125  1.00  0.00     0.039 A 
HETATM   10  C8  UNK     1      18.093   5.007  33.616  1.00  0.00     0.013 A 
HETATM   11  C9  UNK     1      18.412   0.632  33.750  1.00  0.00     0.115 A 
HETATM   12  C10 UNK     1      18.365   6.227  31.137  1.00  0.00     0.012 A 
HETATM   13  C11 UNK     1      18.657  -0.113  32.500  1.00  0.00     0.304 A 
HETATM   14  C12 UNK     1      18.002   6.397  33.506  1.00  0.00     0.001 A 
HETATM   15  C13 UNK     1      18.138   7.006  32.268  1.00  0.00     0.001 A 
ENDROOT
BRANCH  11  16
HETATM   16  C14 UNK     1      18.274  -0.048  35.044  1.00  0.00     0.299 C 
HETATM   17  O4  UNK     1      19.210  -0.548  35.643  1.00  0.00    -0.259 OA
BRANCH  16  18
HETATM   18  O2  UNK     1      16.971  -0.008  35.417  1.00  0.00    -0.318 OA
BRANCH  18  19
HETATM   19  C15 UNK     1      16.741   0.087  36.826  1.00  0.00     0.174 C 
HETATM   20  C16 UNK     1      16.838   1.539  37.244  1.00  0.00     0.034 C 
ENDBRANCH  18  19
ENDBRANCH  16  18
ENDBRANCH  11  16
TORSDOF 3
ENDMDL
MODEL 5
REMARK VINA RESULT:      -7.6      3.072      6.880
REMARK  3 active torsions:
REMARK  status: ('A' for Active; 'I' for Inactive)
REMARK    1  A    between atoms: C14_18  and  O2_2 
REMARK    2  A    between atoms: C15_19  and  O2_2 
REMARK    3  A    between atoms: C14_18  and  C9_13 
ROOT
HETATM    1  O1  UNK     1      17.887   1.643  34.272  1.00  0.00    -0.274 OA
HETATM    2  O3  UNK     1      17.433   1.105  36.444  1.00  0.00    -0.259 OA
HETATM    3  C1  UNK     1      18.884  -0.010  32.766  1.00  0.00     0.010 A 
HETATM    4  C2  UNK     1      19.372  -0.331  31.466  1.00  0.00    -0.013 A 
HETATM    5  C3  UNK     1      19.331   0.672  30.457  1.00  0.00    -0.025 A 
HETATM    6  C4  UNK     1      18.384   1.272  33.005  1.00  0.00     0.090 A 
HETATM    7  C5  UNK     1      18.869  -0.944  33.896  1.00  0.00     0.039 A 
HETATM    8  C6  UNK     1      18.817   1.946  30.749  1.00  0.00     0.015 A 
HETATM    9  C7  UNK     1      18.344   2.250  32.018  1.00  0.00     0.039 A 
HETATM   10  C8  UNK     1      19.904  -1.592  31.097  1.00  0.00     0.013 A 
HETATM   11  C9  UNK     1      18.398  -0.587  35.095  1.00  0.00     0.115 A 
HETATM   12  C10 UNK     1      19.801   0.396  29.163  1.00  0.00     0.012 A 
HETATM   13  C11 UNK     1      17.867   0.767  35.348  1.00  0.00     0.304 A 
HETATM   14  C12 UNK     1      20.367  -1.849  29.804  1.00  0.00     0.001 A 
HETATM   15  C13 UNK     1      20.316  -0.855  28.838  1.00  0.00     0.001 A 
ENDROOT
BRANCH  11  16
HETATM   16  C14 UNK     1      18.435  -1.614  36.144  1.00  0.00     0.299 C 
HETATM   17  O4  UNK     1      17.438  -2.054  36.689  1.00  0.00    -0.259 OA
BRANCH  16  18
HETATM   18  O2  UNK     1      19.729  -1.953  36.370  1.00  0.00    -0.318 OA
BRANCH  18  19
HETATM   19  C15 UNK     1      19.922  -3.086  37.223  1.00  0.00     0.174 C 
HETATM   20  C16 UNK     1      19.974  -4.339  36.374  1.00  0.00     0.034 C 
ENDBRANCH  18  19
ENDBRANCH  16  18
ENDBRANCH  11  16
TORSDOF 3
ENDMDL
MODEL 6
REMARK VINA RESULT:      -7.5     24.149     26.614
REMARK  3 active torsions:
REMARK  status: ('A' for Active; 'I' for Inactive)
REMARK    1  A    between atoms: C14_18  and  O2_2 
REMARK    2  A    between atoms: C15_19  and  O2_2 
REMARK    3  A    between atoms: C14_18  and  C9_13 
ROOT
HETATM    1  O1  UNK     1      13.757   5.234   9.348  1.00  0.00    -0.274 OA
HETATM    2  O3  UNK     1      12.074   4.140   8.261  1.00  0.00    -0.259 OA
HETATM    3  C1  UNK     1      14.275   7.565   8.806  1.00  0.00     0.010 A 
HETATM    4  C2  UNK     1      15.077   8.719   9.045  1.00  0.00    -0.013 A 
HETATM    5  C3  UNK     1      16.101   8.643  10.030  1.00  0.00    -0.025 A 
HETATM    6  C4  UNK     1      14.521   6.404   9.542  1.00  0.00     0.090 A 
HETATM    7  C5  UNK     1      13.190   7.504   7.821  1.00  0.00     0.039 A 
HETATM    8  C6  UNK     1      16.307   7.452  10.744  1.00  0.00     0.015 A 
HETATM    9  C7  UNK     1      15.521   6.333  10.504  1.00  0.00     0.039 A 
HETATM   10  C8  UNK     1      14.928   9.953   8.365  1.00  0.00     0.013 A 
HETATM   11  C9  UNK     1      12.470   6.391   7.640  1.00  0.00     0.115 A 
HETATM   12  C10 UNK     1      16.913   9.758  10.296  1.00  0.00     0.012 A 
HETATM   13  C11 UNK     1      12.727   5.165   8.420  1.00  0.00     0.304 A 
HETATM   14  C12 UNK     1      15.745  11.053   8.643  1.00  0.00     0.001 A 
HETATM   15  C13 UNK     1      16.736  10.955   9.608  1.00  0.00     0.001 A 
ENDROOT
BRANCH  11  16
HETATM   16  C14 UNK     1      11.410   6.457   6.626  1.00  0.00     0.299 C 
HETATM   17  O4  UNK     1      11.591   6.204   5.448  1.00  0.00    -0.259 OA
BRANCH  16  18
HETATM   18  O2  UNK     1      10.256   6.834   7.231  1.00  0.00    -0.318 OA
BRANCH  18  19
HETATM   19  C15 UNK     1       9.071   6.207   6.730  1.00  0.00     0.174 C 
HETATM   20  C16 UNK     1       8.191   5.812   7.898  1.00  0.00     0.034 C 
ENDBRANCH  18  19
ENDBRANCH  16  18
ENDBRANCH  11  16
TORSDOF 3
ENDMDL
MODEL 7
REMARK VINA RESULT:      -7.4     13.287     15.736
REMARK  3 active torsions:
REMARK  status: ('A' for Active; 'I' for Inactive)
REMARK    1  A    between atoms: C14_18  and  O2_2 
REMARK    2  A    between atoms: C15_19  and  O2_2 
REMARK    3  A    between atoms: C14_18  and  C9_13 
ROOT
HETATM    1  O1  UNK     1      27.623  -4.686  38.695  1.00  0.00    -0.274 OA
HETATM    2  O3  UNK     1      25.433  -5.310  38.850  1.00  0.00    -0.259 OA
HETATM    3  C1  UNK     1      29.367  -6.361  38.309  1.00  0.00     0.010 A 
HETATM    4  C2  UNK     1      30.749  -6.657  38.128  1.00  0.00    -0.013 A 
HETATM    5  C3  UNK     1      31.684  -5.585  38.161  1.00  0.00    -0.025 A 
HETATM    6  C4  UNK     1      28.978  -5.036  38.512  1.00  0.00     0.090 A 
HETATM    7  C5  UNK     1      28.300  -7.367  38.300  1.00  0.00     0.039 A 
HETATM    8  C6  UNK     1      31.241  -4.269  38.367  1.00  0.00     0.015 A 
HETATM    9  C7  UNK     1      29.893  -3.990  38.543  1.00  0.00     0.039 A 
HETATM   10  C8  UNK     1      31.270  -7.958  37.914  1.00  0.00     0.013 A 
HETATM   11  C9  UNK     1      27.017  -7.030  38.475  1.00  0.00     0.115 A 
HETATM   12  C10 UNK     1      33.055  -5.834  37.986  1.00  0.00     0.012 A 
HETATM   13  C11 UNK     1      26.605  -5.629  38.687  1.00  0.00     0.304 A 
HETATM   14  C12 UNK     1      32.637  -8.187  37.742  1.00  0.00     0.001 A 
HETATM   15  C13 UNK     1      33.529  -7.126  37.778  1.00  0.00     0.001 A 
ENDROOT
BRANCH  11  16
HETATM   16  C14 UNK     1      26.043  -8.129  38.443  1.00  0.00     0.299 C 
HETATM   17  O4  UNK     1      25.249  -8.296  37.534  1.00  0.00    -0.259 OA
BRANCH  16  18
HETATM   18  O2  UNK     1      26.198  -8.876  39.564  1.00  0.00    -0.318 OA
BRANCH  18  19
HETATM   19  C15 UNK     1      26.845 -10.138  39.372  1.00  0.00     0.174 C 
HETATM   20  C16 UNK     1      27.974 -10.270  40.372  1.00  0.00     0.034 C 
ENDBRANCH  18  19
ENDBRANCH  16  18
ENDBRANCH  11  16
TORSDOF 3
ENDMDL
MODEL 8
REMARK VINA RESULT:      -7.3      3.374      6.065
REMARK  3 active torsions:
REMARK  status: ('A' for Active; 'I' for Inactive)
REMARK    1  A    between atoms: C14_18  and  O2_2 
REMARK    2  A    between atoms: C15_19  and  O2_2 
REMARK    3  A    between atoms: C14_18  and  C9_13 
ROOT
HETATM    1  O1  UNK     1      19.313  -2.186  34.894  1.00  0.00    -0.274 OA
HETATM    2  O3  UNK     1      18.126  -1.733  36.790  1.00  0.00    -0.259 OA
HETATM    3  C1  UNK     1      19.072  -0.770  32.911  1.00  0.00     0.010 A 
HETATM    4  C2  UNK     1      19.444  -0.492  31.564  1.00  0.00    -0.013 A 
HETATM    5  C3  UNK     1      20.391  -1.345  30.930  1.00  0.00    -0.025 A 
HETATM    6  C4  UNK     1      19.645  -1.865  33.561  1.00  0.00     0.090 A 
HETATM    7  C5  UNK     1      18.109   0.024  33.681  1.00  0.00     0.039 A 
HETATM    8  C6  UNK     1      20.938  -2.433  31.628  1.00  0.00     0.015 A 
HETATM    9  C7  UNK     1      20.569  -2.697  32.940  1.00  0.00     0.039 A 
HETATM   10  C8  UNK     1      18.936   0.586  30.797  1.00  0.00     0.013 A 
HETATM   11  C9  UNK     1      17.798  -0.285  34.945  1.00  0.00     0.115 A 
HETATM   12  C10 UNK     1      20.785  -1.105  29.603  1.00  0.00     0.012 A 
HETATM   13  C11 UNK     1      18.405  -1.441  35.633  1.00  0.00     0.304 A 
HETATM   14  C12 UNK     1      19.340   0.810  29.478  1.00  0.00     0.001 A 
HETATM   15  C13 UNK     1      20.264  -0.035  28.882  1.00  0.00     0.001 A 
ENDROOT
BRANCH  11  16
HETATM   16  C14 UNK     1      16.822   0.589  35.610  1.00  0.00     0.299 C 
HETATM   17  O4  UNK     1      15.677   0.253  35.854  1.00  0.00    -0.259 OA
BRANCH  16  18
HETATM   18  O2  UNK     1      17.420   1.775  35.882  1.00  0.00    -0.318 OA
BRANCH  18  19
HETATM   19  C15 UNK     1      18.317   1.765  36.997  1.00  0.00     0.174 C 
HETATM   20  C16 UNK     1      17.550   1.377  38.243  1.00  0.00     0.034 C 
ENDBRANCH  18  19
ENDBRANCH  16  18
ENDBRANCH  11  16
TORSDOF 3
ENDMDL
MODEL 9
REMARK VINA RESULT:      -7.3      3.551      6.296
REMARK  3 active torsions:
REMARK  status: ('A' for Active; 'I' for Inactive)
REMARK    1  A    between atoms: C14_18  and  O2_2 
REMARK    2  A    between atoms: C15_19  and  O2_2 
REMARK    3  A    between atoms: C14_18  and  C9_13 
ROOT
HETATM    1  O1  UNK     1      20.384  -3.154  34.335  1.00  0.00    -0.274 OA
HETATM    2  O3  UNK     1      19.828  -3.087  36.548  1.00  0.00    -0.259 OA
HETATM    3  C1  UNK     1      19.667  -1.369  32.820  1.00  0.00     0.010 A 
HETATM    4  C2  UNK     1      19.650  -0.828  31.502  1.00  0.00    -0.013 A 
HETATM    5  C3  UNK     1      20.316  -1.541  30.466  1.00  0.00    -0.025 A 
HETATM    6  C4  UNK     1      20.334  -2.575  33.050  1.00  0.00     0.090 A 
HETATM    7  C5  UNK     1      19.021  -0.742  33.978  1.00  0.00     0.039 A 
HETATM    8  C6  UNK     1      20.973  -2.748  30.749  1.00  0.00     0.015 A 
HETATM    9  C7  UNK     1      20.984  -3.268  32.036  1.00  0.00     0.039 A 
HETATM   10  C8  UNK     1      19.009   0.383  31.140  1.00  0.00     0.013 A 
HETATM   11  C9  UNK     1      19.071  -1.297  35.194  1.00  0.00     0.115 A 
HETATM   12  C10 UNK     1      20.323  -1.041  29.153  1.00  0.00     0.012 A 
HETATM   13  C11 UNK     1      19.778  -2.570  35.438  1.00  0.00     0.304 A 
HETATM   14  C12 UNK     1      19.027   0.866  29.829  1.00  0.00     0.001 A 
HETATM   15  C13 UNK     1      19.683   0.154  28.836  1.00  0.00     0.001 A 
ENDROOT
BRANCH  11  16
HETATM   16  C14 UNK     1      18.387  -0.571  36.272  1.00  0.00     0.299 C 
HETATM   17  O4  UNK     1      17.403  -0.997  36.850  1.00  0.00    -0.259 OA
BRANCH  16  18
HETATM   18  O2  UNK     1      19.035   0.602  36.482  1.00  0.00    -0.318 OA
BRANCH  18  19
HETATM   19  C15 UNK     1      18.208   1.769  36.461  1.00  0.00     0.174 C 
HETATM   20  C16 UNK     1      18.460   2.529  35.176  1.00  0.00     0.034 C 
ENDBRANCH  18  19
ENDBRANCH  16  18
ENDBRANCH  11  16
TORSDOF 3
ENDMDL
MODEL 10
REMARK VINA RESULT:      -7.2      2.160      3.535
REMARK  3 active torsions:
REMARK  status: ('A' for Active; 'I' for Inactive)
REMARK    1  A    between atoms: C14_18  and  O2_2 
REMARK    2  A    between atoms: C15_19  and  O2_2 
REMARK    3  A    between atoms: C14_18  and  C9_13 
ROOT
HETATM    1  O1  UNK     1      20.263  -2.401  32.726  1.00  0.00    -0.274 OA
HETATM    2  O3  UNK     1      20.718  -2.180  30.500  1.00  0.00    -0.259 OA
HETATM    3  C1  UNK     1      18.988  -0.677  33.909  1.00  0.00     0.010 A 
HETATM    4  C2  UNK     1      18.411  -0.213  35.127  1.00  0.00    -0.013 A 
HETATM    5  C3  UNK     1      18.557  -1.012  36.295  1.00  0.00    -0.025 A 
HETATM    6  C4  UNK     1      19.674  -1.893  33.904  1.00  0.00     0.090 A 
HETATM    7  C5  UNK     1      18.916   0.045  32.635  1.00  0.00     0.039 A 
HETATM    8  C6  UNK     1      19.255  -2.228  36.237  1.00  0.00     0.015 A 
HETATM    9  C7  UNK     1      19.814  -2.672  35.046  1.00  0.00     0.039 A 
HETATM   10  C8  UNK     1      17.693   1.001  35.263  1.00  0.00     0.013 A 
HETATM   11  C9  UNK     1      19.477  -0.440  31.521  1.00  0.00     0.115 A 
HETATM   12  C10 UNK     1      18.002  -0.591  37.516  1.00  0.00     0.012 A 
HETATM   13  C11 UNK     1      20.200  -1.727  31.514  1.00  0.00     0.304 A 
HETATM   14  C12 UNK     1      17.148   1.404  36.486  1.00  0.00     0.001 A 
HETATM   15  C13 UNK     1      17.303   0.608  37.610  1.00  0.00     0.001 A 
ENDROOT
BRANCH  11  16
HETATM   16  C14 UNK     1      19.334   0.376  30.309  1.00  0.00     0.299 C 
HETATM   17  O4  UNK     1      20.133   0.358  29.389  1.00  0.00    -0.259 OA
BRANCH  16  18
HETATM   18  O2  UNK     1      18.197   1.109  30.413  1.00  0.00    -0.318 OA
BRANCH  18  19
HETATM   19  C15 UNK     1      18.197   2.341  29.685  1.00  0.00     0.174 C 
HETATM   20  C16 UNK     1      18.701   3.447  30.588  1.00  0.00     0.034 C 
ENDBRANCH  18  19
ENDBRANCH  16  18
ENDBRANCH  11  16
TORSDOF 3
ENDMDL
