MODEL 1
REMARK VINA RESULT:      -9.4      0.000      0.000
REMARK  1 active torsions:
REMARK  status: ('A' for Active; 'I' for Inactive)
REMARK       I    between atoms: C7_12  and  N1_5 
REMARK    1  A    between atoms: C10_15  and  C7_12 
ROOT
HETATM    1  F1  UNK     1      22.771  -8.948  40.496  1.00  0.00    -0.206 F 
HETATM    2  O1  UNK     1      21.564  -3.246  37.970  1.00  0.00    -0.267 OA
HETATM    3  N1  UNK     1      20.235  -5.073  37.306  1.00  0.00    -0.309 N 
HETATM    4  C1  UNK     1      19.094  -5.555  36.485  1.00  0.00     0.089 C 
HETATM    5  C2  UNK     1      18.182  -6.468  37.304  1.00  0.00     0.030 C 
HETATM    6  C3  UNK     1      18.930  -7.685  37.813  1.00  0.00     0.043 C 
HETATM    7  C4  UNK     1      20.268  -7.311  38.394  1.00  0.00    -0.028 A 
HETATM    8  C5  UNK     1      20.886  -6.064  38.143  1.00  0.00     0.044 A 
HETATM    9  C6  UNK     1      19.579  -6.207  35.185  1.00  0.00     0.033 C 
HETATM   10  C7  UNK     1      20.634  -3.724  37.321  1.00  0.00     0.264 C 
HETATM   11  C8  UNK     1      20.917  -8.277  39.188  1.00  0.00     0.051 A 
HETATM   12  C9  UNK     1      22.160  -5.844  38.698  1.00  0.00     0.033 A 
HETATM   13  C11 UNK     1      22.166  -8.022  39.741  1.00  0.00     0.117 A 
HETATM   14  C12 UNK     1      22.789  -6.807  39.494  1.00  0.00     0.044 A 
ENDROOT
BRANCH  10  15
HETATM   15  C10 UNK     1      19.846  -2.775  36.503  1.00  0.00     0.108 A 
HETATM   16  C13 UNK     1      18.846  -2.143  37.129  1.00  0.00     0.037 A 
HETATM   17  C15 UNK     1      18.016  -1.190  36.409  1.00  0.00    -0.001 A 
HETATM   18  C16 UNK     1      18.279  -0.949  35.064  1.00  0.00     0.089 A 
HETATM   19  C17 UNK     1      16.961  -0.508  37.021  1.00  0.00     0.014 A 
HETATM   20  O2  UNK     1      19.334  -1.617  34.411  1.00  0.00    -0.274 OA
HETATM   21  C18 UNK     1      17.522  -0.049  34.317  1.00  0.00     0.038 A 
HETATM   22  C14 UNK     1      20.145  -2.534  35.073  1.00  0.00     0.304 A 
HETATM   23  O3  UNK     1      21.061  -3.111  34.497  1.00  0.00    -0.259 OA
HETATM   24  C20 UNK     1      16.472   0.626  34.936  1.00  0.00     0.003 A 
HETATM   25  C19 UNK     1      16.193   0.397  36.284  1.00  0.00     0.001 A 
ENDBRANCH  10  15
TORSDOF 1
ENDMDL
MODEL 2
REMARK VINA RESULT:      -8.9      1.362      2.260
REMARK  1 active torsions:
REMARK  status: ('A' for Active; 'I' for Inactive)
REMARK       I    between atoms: C7_12  and  N1_5 
REMARK    1  A    between atoms: C10_15  and  C7_12 
ROOT
HETATM    1  F1  UNK     1      22.453  -9.159  40.745  1.00  0.00    -0.206 F 
HETATM    2  O1  UNK     1      21.709  -3.516  37.925  1.00  0.00    -0.267 OA
HETATM    3  N1  UNK     1      20.353  -5.309  37.224  1.00  0.00    -0.309 N 
HETATM    4  C1  UNK     1      19.258  -5.774  36.333  1.00  0.00     0.089 C 
HETATM    5  C2  UNK     1      18.244  -6.614  37.111  1.00  0.00     0.030 C 
HETATM    6  C3  UNK     1      18.894  -7.840  37.720  1.00  0.00     0.043 C 
HETATM    7  C4  UNK     1      20.198  -7.502  38.392  1.00  0.00    -0.028 A 
HETATM    8  C5  UNK     1      20.890  -6.293  38.146  1.00  0.00     0.044 A 
HETATM    9  C6  UNK     1      19.812  -6.498  35.100  1.00  0.00     0.033 C 
HETATM   10  C7  UNK     1      20.811  -3.979  37.221  1.00  0.00     0.264 C 
HETATM   11  C8  UNK     1      20.739  -8.462  39.270  1.00  0.00     0.051 A 
HETATM   12  C9  UNK     1      22.126  -6.106  38.792  1.00  0.00     0.033 A 
HETATM   13  C11 UNK     1      21.952  -8.239  39.911  1.00  0.00     0.117 A 
HETATM   14  C12 UNK     1      22.647  -7.062  39.669  1.00  0.00     0.044 A 
ENDROOT
BRANCH  10  15
HETATM   15  C10 UNK     1      20.133  -3.030  36.309  1.00  0.00     0.108 A 
HETATM   16  C13 UNK     1      20.519  -3.063  35.028  1.00  0.00     0.037 A 
HETATM   17  C15 UNK     1      19.910  -2.169  34.056  1.00  0.00    -0.001 A 
HETATM   18  C16 UNK     1      18.925  -1.283  34.480  1.00  0.00     0.089 A 
HETATM   19  C17 UNK     1      20.282  -2.167  32.709  1.00  0.00     0.014 A 
HETATM   20  O2  UNK     1      18.523  -1.253  35.831  1.00  0.00    -0.274 OA
HETATM   21  C18 UNK     1      18.303  -0.399  33.600  1.00  0.00     0.038 A 
HETATM   22  C14 UNK     1      19.087  -2.096  36.784  1.00  0.00     0.304 A 
HETATM   23  O3  UNK     1      18.731  -2.064  37.957  1.00  0.00    -0.259 OA
HETATM   24  C20 UNK     1      18.680  -0.405  32.259  1.00  0.00     0.003 A 
HETATM   25  C19 UNK     1      19.667  -1.287  31.815  1.00  0.00     0.001 A 
ENDBRANCH  10  15
TORSDOF 1
ENDMDL
MODEL 3
REMARK VINA RESULT:      -8.9     10.214     12.098
REMARK  1 active torsions:
REMARK  status: ('A' for Active; 'I' for Inactive)
REMARK       I    between atoms: C7_12  and  N1_5 
REMARK    1  A    between atoms: C10_15  and  C7_12 
ROOT
HETATM    1  F1  UNK     1      28.536 -10.699  28.065  1.00  0.00    -0.206 F 
HETATM    2  O1  UNK     1      30.954  -8.788  33.620  1.00  0.00    -0.267 OA
HETATM    3  N1  UNK     1      29.438  -7.371  32.508  1.00  0.00    -0.309 N 
HETATM    4  C1  UNK     1      28.680  -6.091  32.524  1.00  0.00     0.089 C 
HETATM    5  C2  UNK     1      27.222  -6.318  32.125  1.00  0.00     0.030 C 
HETATM    6  C3  UNK     1      27.115  -6.899  30.728  1.00  0.00     0.043 C 
HETATM    7  C4  UNK     1      28.091  -8.027  30.520  1.00  0.00    -0.028 A 
HETATM    8  C5  UNK     1      29.199  -8.242  31.372  1.00  0.00     0.044 A 
HETATM    9  C6  UNK     1      29.374  -5.023  31.671  1.00  0.00     0.033 C 
HETATM   10  C7  UNK     1      30.294  -7.750  33.557  1.00  0.00     0.264 C 
HETATM   11  C8  UNK     1      27.881  -8.863  29.406  1.00  0.00     0.051 A 
HETATM   12  C9  UNK     1      30.073  -9.297  31.051  1.00  0.00     0.033 A 
HETATM   13  C11 UNK     1      28.750  -9.911  29.127  1.00  0.00     0.117 A 
HETATM   14  C12 UNK     1      29.847 -10.126  29.948  1.00  0.00     0.044 A 
ENDROOT
BRANCH  10  15
HETATM   15  C10 UNK     1      30.397  -6.834  34.715  1.00  0.00     0.108 A 
HETATM   16  C13 UNK     1      29.515  -7.029  35.703  1.00  0.00     0.037 A 
HETATM   17  C15 UNK     1      29.537  -6.179  36.883  1.00  0.00    -0.001 A 
HETATM   18  C16 UNK     1      30.487  -5.165  36.965  1.00  0.00     0.089 A 
HETATM   19  C17 UNK     1      28.636  -6.345  37.938  1.00  0.00     0.014 A 
HETATM   20  O2  UNK     1      31.412  -4.965  35.922  1.00  0.00    -0.274 OA
HETATM   21  C18 UNK     1      30.561  -4.316  38.068  1.00  0.00     0.038 A 
HETATM   22  C14 UNK     1      31.416  -5.762  34.780  1.00  0.00     0.304 A 
HETATM   23  O3  UNK     1      32.225  -5.581  33.877  1.00  0.00    -0.259 OA
HETATM   24  C20 UNK     1      29.659  -4.489  39.115  1.00  0.00     0.003 A 
HETATM   25  C19 UNK     1      28.699  -5.501  39.050  1.00  0.00     0.001 A 
ENDBRANCH  10  15
TORSDOF 1
ENDMDL
MODEL 4
REMARK VINA RESULT:      -8.9      8.621     11.927
REMARK  1 active torsions:
REMARK  status: ('A' for Active; 'I' for Inactive)
REMARK       I    between atoms: C7_12  and  N1_5 
REMARK    1  A    between atoms: C10_15  and  C7_12 
ROOT
HETATM    1  F1  UNK     1      17.246   9.335  34.876  1.00  0.00    -0.206 F 
HETATM    2  O1  UNK     1      16.839   3.701  31.968  1.00  0.00    -0.267 OA
HETATM    3  N1  UNK     1      18.821   4.949  31.727  1.00  0.00    -0.309 N 
HETATM    4  C1  UNK     1      20.192   5.020  31.156  1.00  0.00     0.089 C 
HETATM    5  C2  UNK     1      21.194   5.503  32.206  1.00  0.00     0.030 C 
HETATM    6  C3  UNK     1      20.836   6.884  32.717  1.00  0.00     0.043 C 
HETATM    7  C4  UNK     1      19.368   6.997  33.034  1.00  0.00    -0.028 A 
HETATM    8  C5  UNK     1      18.413   6.071  32.553  1.00  0.00     0.044 A 
HETATM    9  C6  UNK     1      20.219   5.861  29.875  1.00  0.00     0.033 C 
HETATM   10  C7  UNK     1      17.982   3.838  31.532  1.00  0.00     0.264 C 
HETATM   11  C8  UNK     1      18.959   8.095  33.814  1.00  0.00     0.051 A 
HETATM   12  C9  UNK     1      17.062   6.304  32.871  1.00  0.00     0.033 A 
HETATM   13  C11 UNK     1      17.620   8.287  34.130  1.00  0.00     0.117 A 
HETATM   14  C12 UNK     1      16.671   7.393  33.656  1.00  0.00     0.044 A 
ENDROOT
BRANCH  10  15
HETATM   15  C10 UNK     1      18.528   2.705  30.751  1.00  0.00     0.108 A 
HETATM   16  C13 UNK     1      19.018   1.681  31.460  1.00  0.00     0.037 A 
HETATM   17  C15 UNK     1      19.575   0.520  30.782  1.00  0.00    -0.001 A 
HETATM   18  C16 UNK     1      19.589   0.495  29.391  1.00  0.00     0.089 A 
HETATM   19  C17 UNK     1      20.099  -0.571  31.480  1.00  0.00     0.014 A 
HETATM   20  O2  UNK     1      19.071   1.577  28.651  1.00  0.00    -0.274 OA
HETATM   21  C18 UNK     1      20.109  -0.585  28.680  1.00  0.00     0.038 A 
HETATM   22  C14 UNK     1      18.532   2.700  29.271  1.00  0.00     0.304 A 
HETATM   23  O3  UNK     1      18.083   3.636  28.619  1.00  0.00    -0.259 OA
HETATM   24  C20 UNK     1      20.629  -1.668  29.385  1.00  0.00     0.003 A 
HETATM   25  C19 UNK     1      20.623  -1.662  30.781  1.00  0.00     0.001 A 
ENDBRANCH  10  15
TORSDOF 1
ENDMDL
MODEL 5
REMARK VINA RESULT:      -8.3     10.353     12.604
REMARK  1 active torsions:
REMARK  status: ('A' for Active; 'I' for Inactive)
REMARK       I    between atoms: C7_12  and  N1_5 
REMARK    1  A    between atoms: C10_15  and  C7_12 
ROOT
HETATM    1  F1  UNK     1      29.904  -3.896  39.453  1.00  0.00    -0.206 F 
HETATM    2  O1  UNK     1      28.603  -8.504  35.277  1.00  0.00    -0.267 OA
HETATM    3  N1  UNK     1      30.097  -6.799  34.639  1.00  0.00    -0.309 N 
HETATM    4  C1  UNK     1      30.998  -6.254  33.590  1.00  0.00     0.089 C 
HETATM    5  C2  UNK     1      32.341  -5.836  34.189  1.00  0.00     0.030 C 
HETATM    6  C3  UNK     1      32.164  -4.763  35.246  1.00  0.00     0.043 C 
HETATM    7  C4  UNK     1      31.038  -5.093  36.190  1.00  0.00    -0.028 A 
HETATM    8  C5  UNK     1      30.053  -6.063  35.890  1.00  0.00     0.044 A 
HETATM    9  C6  UNK     1      30.320  -5.128  32.802  1.00  0.00     0.033 C 
HETATM   10  C7  UNK     1      29.368  -7.988  34.461  1.00  0.00     0.264 C 
HETATM   11  C8  UNK     1      30.973  -4.367  37.395  1.00  0.00     0.051 A 
HETATM   12  C9  UNK     1      29.018  -6.252  36.824  1.00  0.00     0.033 A 
HETATM   13  C11 UNK     1      29.951  -4.592  38.309  1.00  0.00     0.117 A 
HETATM   14  C12 UNK     1      28.972  -5.532  38.022  1.00  0.00     0.044 A 
ENDROOT
BRANCH  10  15
HETATM   15  C10 UNK     1      29.554  -8.713  33.185  1.00  0.00     0.108 A 
HETATM   16  C13 UNK     1      28.639  -8.484  32.235  1.00  0.00     0.037 A 
HETATM   17  C15 UNK     1      28.738  -9.150  30.945  1.00  0.00    -0.001 A 
HETATM   18  C16 UNK     1      29.795 -10.026  30.719  1.00  0.00     0.089 A 
HETATM   19  C17 UNK     1      27.806  -8.942  29.926  1.00  0.00     0.014 A 
HETATM   20  O2  UNK     1      30.755 -10.263  31.723  1.00  0.00    -0.274 OA
HETATM   21  C18 UNK     1      29.947 -10.696  29.507  1.00  0.00     0.038 A 
HETATM   22  C14 UNK     1      30.687  -9.641  32.966  1.00  0.00     0.304 A 
HETATM   23  O3  UNK     1      31.528  -9.853  33.834  1.00  0.00    -0.259 OA
HETATM   24  C20 UNK     1      29.013 -10.482  28.496  1.00  0.00     0.003 A 
HETATM   25  C19 UNK     1      27.945  -9.607  28.705  1.00  0.00     0.001 A 
ENDBRANCH  10  15
TORSDOF 1
ENDMDL
MODEL 6
REMARK VINA RESULT:      -8.2     10.105     12.104
REMARK  1 active torsions:
REMARK  status: ('A' for Active; 'I' for Inactive)
REMARK       I    between atoms: C7_12  and  N1_5 
REMARK    1  A    between atoms: C10_15  and  C7_12 
ROOT
HETATM    1  F1  UNK     1      30.477 -10.118  27.620  1.00  0.00    -0.206 F 
HETATM    2  O1  UNK     1      30.719  -9.128  33.890  1.00  0.00    -0.267 OA
HETATM    3  N1  UNK     1      29.403  -7.685  32.575  1.00  0.00    -0.309 N 
HETATM    4  C1  UNK     1      28.475  -6.523  32.539  1.00  0.00     0.089 C 
HETATM    5  C2  UNK     1      27.268  -6.818  31.648  1.00  0.00     0.030 C 
HETATM    6  C3  UNK     1      27.694  -7.112  30.222  1.00  0.00     0.043 C 
HETATM    7  C4  UNK     1      28.861  -8.063  30.175  1.00  0.00    -0.028 A 
HETATM    8  C5  UNK     1      29.673  -8.327  31.302  1.00  0.00     0.044 A 
HETATM    9  C6  UNK     1      29.208  -5.236  32.146  1.00  0.00     0.033 C 
HETATM   10  C7  UNK     1      29.947  -8.176  33.775  1.00  0.00     0.264 C 
HETATM   11  C8  UNK     1      29.145  -8.672  28.938  1.00  0.00     0.051 A 
HETATM   12  C9  UNK     1      30.767  -9.196  31.128  1.00  0.00     0.033 A 
HETATM   13  C11 UNK     1      30.219  -9.544  28.802  1.00  0.00     0.117 A 
HETATM   14  C12 UNK     1      31.032  -9.803  29.897  1.00  0.00     0.044 A 
ENDROOT
BRANCH  10  15
HETATM   15  C10 UNK     1      29.534  -7.508  35.031  1.00  0.00     0.108 A 
HETATM   16  C13 UNK     1      30.263  -6.450  35.405  1.00  0.00     0.037 A 
HETATM   17  C15 UNK     1      29.935  -5.727  36.624  1.00  0.00    -0.001 A 
HETATM   18  C16 UNK     1      28.854  -6.155  37.390  1.00  0.00     0.089 A 
HETATM   19  C17 UNK     1      30.668  -4.619  37.054  1.00  0.00     0.014 A 
HETATM   20  O2  UNK     1      28.091  -7.270  36.990  1.00  0.00    -0.274 OA
HETATM   21  C18 UNK     1      28.487  -5.507  38.568  1.00  0.00     0.038 A 
HETATM   22  C14 UNK     1      28.381  -7.981  35.829  1.00  0.00     0.304 A 
HETATM   23  O3  UNK     1      27.710  -8.950  35.489  1.00  0.00    -0.259 OA
HETATM   24  C20 UNK     1      29.225  -4.403  38.989  1.00  0.00     0.003 A 
HETATM   25  C19 UNK     1      30.311  -3.959  38.233  1.00  0.00     0.001 A 
ENDBRANCH  10  15
TORSDOF 1
ENDMDL
MODEL 7
REMARK VINA RESULT:      -8.2      9.944     11.873
REMARK  1 active torsions:
REMARK  status: ('A' for Active; 'I' for Inactive)
REMARK       I    between atoms: C7_12  and  N1_5 
REMARK    1  A    between atoms: C10_15  and  C7_12 
ROOT
HETATM    1  F1  UNK     1      29.523  -3.584  40.029  1.00  0.00    -0.206 F 
HETATM    2  O1  UNK     1      30.913  -5.514  34.139  1.00  0.00    -0.267 OA
HETATM    3  N1  UNK     1      29.701  -6.967  35.540  1.00  0.00    -0.309 N 
HETATM    4  C1  UNK     1      29.011  -8.276  35.688  1.00  0.00     0.089 C 
HETATM    5  C2  UNK     1      27.648  -8.100  36.357  1.00  0.00     0.030 C 
HETATM    6  C3  UNK     1      27.785  -7.494  37.740  1.00  0.00     0.043 C 
HETATM    7  C4  UNK     1      28.733  -6.323  37.742  1.00  0.00    -0.028 A 
HETATM    8  C5  UNK     1      29.646  -6.082  36.690  1.00  0.00     0.044 A 
HETATM    9  C6  UNK     1      29.901  -9.297  36.405  1.00  0.00     0.033 C 
HETATM   10  C7  UNK     1      30.323  -6.576  34.342  1.00  0.00     0.264 C 
HETATM   11  C8  UNK     1      28.704  -5.473  38.864  1.00  0.00     0.051 A 
HETATM   12  C9  UNK     1      30.519  -4.986  36.822  1.00  0.00     0.033 A 
HETATM   13  C11 UNK     1      29.563  -4.385  38.957  1.00  0.00     0.117 A 
HETATM   14  C12 UNK     1      30.473  -4.143  37.937  1.00  0.00     0.044 A 
ENDROOT
BRANCH  10  15
HETATM   15  C10 UNK     1      30.241  -7.512  33.198  1.00  0.00     0.108 A 
HETATM   16  C13 UNK     1      29.162  -7.397  32.415  1.00  0.00     0.037 A 
HETATM   17  C15 UNK     1      28.993  -8.272  31.266  1.00  0.00    -0.001 A 
HETATM   18  C16 UNK     1      29.969  -9.227  30.997  1.00  0.00     0.089 A 
HETATM   19  C17 UNK     1      27.882  -8.189  30.423  1.00  0.00     0.014 A 
HETATM   20  O2  UNK     1      31.104  -9.342  31.824  1.00  0.00    -0.274 OA
HETATM   21  C18 UNK     1      29.868 -10.096  29.912  1.00  0.00     0.038 A 
HETATM   22  C14 UNK     1      31.293  -8.520  32.931  1.00  0.00     0.304 A 
HETATM   23  O3  UNK     1      32.284  -8.627  33.645  1.00  0.00    -0.259 OA
HETATM   24  C20 UNK     1      28.757 -10.006  29.077  1.00  0.00     0.003 A 
HETATM   25  C19 UNK     1      27.767  -9.054  29.331  1.00  0.00     0.001 A 
ENDBRANCH  10  15
TORSDOF 1
ENDMDL
MODEL 8
REMARK VINA RESULT:      -8.1     10.476     13.671
REMARK  1 active torsions:
REMARK  status: ('A' for Active; 'I' for Inactive)
REMARK       I    between atoms: C7_12  and  N1_5 
REMARK    1  A    between atoms: C10_15  and  C7_12 
ROOT
HETATM    1  F1  UNK     1      26.258  -9.326  40.216  1.00  0.00    -0.206 F 
HETATM    2  O1  UNK     1      31.707  -9.861  36.995  1.00  0.00    -0.267 OA
HETATM    3  N1  UNK     1      30.745  -7.725  37.226  1.00  0.00    -0.309 N 
HETATM    4  C1  UNK     1      30.853  -6.268  36.949  1.00  0.00     0.089 C 
HETATM    5  C2  UNK     1      30.541  -5.452  38.204  1.00  0.00     0.030 C 
HETATM    6  C3  UNK     1      29.136  -5.722  38.704  1.00  0.00     0.043 C 
HETATM    7  C4  UNK     1      28.826  -7.196  38.722  1.00  0.00    -0.028 A 
HETATM    8  C5  UNK     1      29.597  -8.144  38.010  1.00  0.00     0.044 A 
HETATM    9  C6  UNK     1      29.994  -5.865  35.745  1.00  0.00     0.033 C 
HETATM   10  C7  UNK     1      31.722  -8.645  36.807  1.00  0.00     0.264 C 
HETATM   11  C8  UNK     1      27.700  -7.609  39.460  1.00  0.00     0.051 A 
HETATM   12  C9  UNK     1      29.185  -9.488  38.059  1.00  0.00     0.033 A 
HETATM   13  C11 UNK     1      27.330  -8.947  39.508  1.00  0.00     0.117 A 
HETATM   14  C12 UNK     1      28.071  -9.887  38.805  1.00  0.00     0.044 A 
ENDROOT
BRANCH  10  15
HETATM   15  C10 UNK     1      32.902  -8.104  36.095  1.00  0.00     0.108 A 
HETATM   16  C13 UNK     1      32.900  -8.233  34.763  1.00  0.00     0.037 A 
HETATM   17  C15 UNK     1      34.015  -7.731  33.975  1.00  0.00    -0.001 A 
HETATM   18  C16 UNK     1      35.079  -7.118  34.629  1.00  0.00     0.089 A 
HETATM   19  C17 UNK     1      34.056  -7.846  32.583  1.00  0.00     0.014 A 
HETATM   20  O2  UNK     1      35.075  -6.984  36.032  1.00  0.00    -0.274 OA
HETATM   21  C18 UNK     1      36.178  -6.617  33.934  1.00  0.00     0.038 A 
HETATM   22  C14 UNK     1      34.023  -7.454  36.812  1.00  0.00     0.304 A 
HETATM   23  O3  UNK     1      34.028  -7.333  38.032  1.00  0.00    -0.259 OA
HETATM   24  C20 UNK     1      36.210  -6.735  32.546  1.00  0.00     0.003 A 
HETATM   25  C19 UNK     1      35.151  -7.347  31.873  1.00  0.00     0.001 A 
ENDBRANCH  10  15
TORSDOF 1
ENDMDL
MODEL 9
REMARK VINA RESULT:      -7.9      9.940     13.024
REMARK  1 active torsions:
REMARK  status: ('A' for Active; 'I' for Inactive)
REMARK       I    between atoms: C7_12  and  N1_5 
REMARK    1  A    between atoms: C10_15  and  C7_12 
ROOT
HETATM    1  F1  UNK     1      36.641  -6.237  32.655  1.00  0.00    -0.206 F 
HETATM    2  O1  UNK     1      31.088  -8.801  34.371  1.00  0.00    -0.267 OA
HETATM    3  N1  UNK     1      31.861  -6.911  35.542  1.00  0.00    -0.309 N 
HETATM    4  C1  UNK     1      31.604  -5.910  36.611  1.00  0.00     0.089 C 
HETATM    5  C2  UNK     1      31.911  -4.496  36.119  1.00  0.00     0.030 C 
HETATM    6  C3  UNK     1      33.362  -4.359  35.700  1.00  0.00     0.043 C 
HETATM    7  C4  UNK     1      33.806  -5.519  34.849  1.00  0.00    -0.028 A 
HETATM    8  C5  UNK     1      33.086  -6.735  34.782  1.00  0.00     0.044 A 
HETATM    9  C6  UNK     1      32.351  -6.269  37.901  1.00  0.00     0.033 C 
HETATM   10  C7  UNK     1      30.950  -7.937  35.237  1.00  0.00     0.264 C 
HETATM   11  C8  UNK     1      35.006  -5.366  34.128  1.00  0.00     0.051 A 
HETATM   12  C9  UNK     1      33.622  -7.768  33.992  1.00  0.00     0.033 A 
HETATM   13  C11 UNK     1      35.500  -6.397  33.337  1.00  0.00     0.117 A 
HETATM   14  C12 UNK     1      34.810  -7.600  33.273  1.00  0.00     0.044 A 
ENDROOT
BRANCH  10  15
HETATM   15  C10 UNK     1      29.687  -7.974  36.008  1.00  0.00     0.108 A 
HETATM   16  C13 UNK     1      29.674  -8.767  37.085  1.00  0.00     0.037 A 
HETATM   17  C15 UNK     1      28.478  -8.869  37.907  1.00  0.00    -0.001 A 
HETATM   18  C16 UNK     1      27.353  -8.130  37.553  1.00  0.00     0.089 A 
HETATM   19  C17 UNK     1      28.418  -9.685  39.039  1.00  0.00     0.014 A 
HETATM   20  O2  UNK     1      27.373  -7.296  36.417  1.00  0.00    -0.274 OA
HETATM   21  C18 UNK     1      26.175  -8.183  38.296  1.00  0.00     0.038 A 
HETATM   22  C14 UNK     1      28.502  -7.178  35.612  1.00  0.00     0.304 A 
HETATM   23  O3  UNK     1      28.511  -6.450  34.626  1.00  0.00    -0.259 OA
HETATM   24  C20 UNK     1      26.125  -8.999  39.424  1.00  0.00     0.003 A 
HETATM   25  C19 UNK     1      27.244  -9.748  39.795  1.00  0.00     0.001 A 
ENDBRANCH  10  15
TORSDOF 1
ENDMDL
MODEL 10
REMARK VINA RESULT:      -7.9     10.163     13.250
REMARK  1 active torsions:
REMARK  status: ('A' for Active; 'I' for Inactive)
REMARK       I    between atoms: C7_12  and  N1_5 
REMARK    1  A    between atoms: C10_15  and  C7_12 
ROOT
HETATM    1  F1  UNK     1      37.644  -6.951  34.338  1.00  0.00    -0.206 F 
HETATM    2  O1  UNK     1      32.601  -6.209  38.129  1.00  0.00    -0.267 OA
HETATM    3  N1  UNK     1      32.327  -7.398  36.115  1.00  0.00    -0.309 N 
HETATM    4  C1  UNK     1      31.410  -8.164  35.230  1.00  0.00     0.089 C 
HETATM    5  C2  UNK     1      32.076  -9.449  34.739  1.00  0.00     0.030 C 
HETATM    6  C3  UNK     1      33.336  -9.152  33.950  1.00  0.00     0.043 C 
HETATM    7  C4  UNK     1      34.196  -8.127  34.641  1.00  0.00    -0.028 A 
HETATM    8  C5  UNK     1      33.705  -7.291  35.670  1.00  0.00     0.044 A 
HETATM    9  C6  UNK     1      30.881  -7.291  34.087  1.00  0.00     0.033 C 
HETATM   10  C7  UNK     1      31.907  -6.853  37.342  1.00  0.00     0.264 C 
HETATM   11  C8  UNK     1      35.527  -7.999  34.199  1.00  0.00     0.051 A 
HETATM   12  C9  UNK     1      34.585  -6.334  36.210  1.00  0.00     0.033 A 
HETATM   13  C11 UNK     1      36.380  -7.060  34.767  1.00  0.00     0.117 A 
HETATM   14  C12 UNK     1      35.908  -6.225  35.770  1.00  0.00     0.044 A 
ENDROOT
BRANCH  10  15
HETATM   15  C10 UNK     1      30.506  -7.098  37.749  1.00  0.00     0.108 A 
HETATM   16  C13 UNK     1      30.233  -8.319  38.227  1.00  0.00     0.037 A 
HETATM   17  C15 UNK     1      28.884  -8.654  38.654  1.00  0.00    -0.001 A 
HETATM   18  C16 UNK     1      27.887  -7.688  38.556  1.00  0.00     0.089 A 
HETATM   19  C17 UNK     1      28.553  -9.915  39.157  1.00  0.00     0.014 A 
HETATM   20  O2  UNK     1      28.180  -6.406  38.052  1.00  0.00    -0.274 OA
HETATM   21  C18 UNK     1      26.574  -7.946  38.947  1.00  0.00     0.038 A 
HETATM   22  C14 UNK     1      29.461  -6.055  37.636  1.00  0.00     0.304 A 
HETATM   23  O3  UNK     1      29.708  -4.936  37.200  1.00  0.00    -0.259 OA
HETATM   24  C20 UNK     1      26.254  -9.206  39.448  1.00  0.00     0.003 A 
HETATM   25  C19 UNK     1      27.241 -10.187  39.554  1.00  0.00     0.001 A 
ENDBRANCH  10  15
TORSDOF 1
ENDMDL
