MODEL 1
REMARK VINA RESULT:      -6.9      0.000      0.000
REMARK  5 active torsions:
REMARK  status: ('A' for Active; 'I' for Inactive)
REMARK    1  A    between atoms: C13_18  and  O2_2 
REMARK    2  A    between atoms: C1_6  and  N1_4 
REMARK    3  A    between atoms: C4_9  and  N1_4 
REMARK    4  A    between atoms: C1_6  and  C2_7 
REMARK    5  A    between atoms: C4_9  and  C9_14 
ROOT
HETATM    1  N2  UNK     1      13.817   6.950  31.611  1.00  0.00    -0.197 NA
HETATM    2  C9  UNK     1      15.753   7.231  33.370  1.00  0.00     0.154 C 
HETATM    3  C14 UNK     1      14.672   7.074  32.387  1.00  0.00     0.060 C 
ENDROOT
BRANCH   2   4
HETATM    4  C4  UNK     1      16.993   7.845  32.725  1.00  0.00     0.286 C 
BRANCH   4   5
HETATM    5  N1  UNK     1      18.181   7.604  33.566  1.00  0.00     0.089 N 
HETATM    6  C7  UNK     1      18.704   8.897  34.044  1.00  0.00     0.310 C 
BRANCH   5   7
HETATM    7  C1  UNK     1      19.178   6.857  32.867  1.00  0.00     0.311 C 
BRANCH   7   8
HETATM    8  C2  UNK     1      18.818   5.400  32.908  1.00  0.00    -0.011 A 
HETATM    9  C3  UNK     1      18.672   4.646  31.656  1.00  0.00     0.006 A 
HETATM   10  C5  UNK     1      18.336   3.293  31.726  1.00  0.00     0.093 A 
HETATM   11  C8  UNK     1      18.850   5.206  30.384  1.00  0.00     0.017 A 
HETATM   12  C10 UNK     1      18.178   2.503  30.585  1.00  0.00     0.075 A 
HETATM   13  O1  UNK     1      18.139   2.654  32.967  1.00  0.00    -0.275 OA
HETATM   14  C13 UNK     1      18.359   3.079  29.332  1.00  0.00     0.070 A 
HETATM   15  C12 UNK     1      18.695   4.427  29.231  1.00  0.00     0.038 A 
HETATM   16  C11 UNK     1      18.271   3.340  34.165  1.00  0.00     0.288 A 
HETATM   17  O3  UNK     1      18.103   2.795  35.249  1.00  0.00    -0.260 OA
HETATM   18  C6  UNK     1      18.626   4.767  34.074  1.00  0.00     0.092 A 
BRANCH  14  19
HETATM   19  O2  UNK     1      18.209   2.327  28.207  1.00  0.00    -0.356 OA
HETATM   20  C15 UNK     1      18.003   0.926  28.385  1.00  0.00     0.210 C 
ENDBRANCH  14  19
ENDBRANCH   7   8
ENDBRANCH   5   7
ENDBRANCH   4   5
ENDBRANCH   2   4
TORSDOF 5
ENDMDL
MODEL 2
REMARK VINA RESULT:      -6.7      2.436      4.747
REMARK  5 active torsions:
REMARK  status: ('A' for Active; 'I' for Inactive)
REMARK    1  A    between atoms: C13_18  and  O2_2 
REMARK    2  A    between atoms: C1_6  and  N1_4 
REMARK    3  A    between atoms: C4_9  and  N1_4 
REMARK    4  A    between atoms: C1_6  and  C2_7 
REMARK    5  A    between atoms: C4_9  and  C9_14 
ROOT
HETATM    1  N2  UNK     1      17.138   8.833  32.872  1.00  0.00    -0.197 NA
HETATM    2  C9  UNK     1      17.762   6.300  33.213  1.00  0.00     0.154 C 
HETATM    3  C14 UNK     1      17.414   7.715  33.023  1.00  0.00     0.060 C 
ENDROOT
BRANCH   2   4
HETATM    4  C4  UNK     1      19.207   6.032  32.799  1.00  0.00     0.286 C 
BRANCH   4   5
HETATM    5  N1  UNK     1      19.247   5.097  31.659  1.00  0.00     0.089 N 
HETATM    6  C7  UNK     1      19.541   5.852  30.426  1.00  0.00     0.310 C 
BRANCH   5   7
HETATM    7  C1  UNK     1      18.033   4.353  31.544  1.00  0.00     0.311 C 
BRANCH   7   8
HETATM    8  C2  UNK     1      18.364   2.906  31.319  1.00  0.00    -0.011 A 
HETATM    9  C3  UNK     1      18.366   1.970  32.450  1.00  0.00     0.006 A 
HETATM   10  C5  UNK     1      18.678   0.631  32.209  1.00  0.00     0.093 A 
HETATM   11  C8  UNK     1      18.070   2.340  33.768  1.00  0.00     0.017 A 
HETATM   12  C10 UNK     1      18.702  -0.325  33.227  1.00  0.00     0.075 A 
HETATM   13  O1  UNK     1      18.987   0.177  30.910  1.00  0.00    -0.275 OA
HETATM   14  C13 UNK     1      18.405   0.064  34.529  1.00  0.00     0.070 A 
HETATM   15  C12 UNK     1      18.090   1.394  34.800  1.00  0.00     0.038 A 
HETATM   16  C11 UNK     1      18.993   1.038  29.824  1.00  0.00     0.288 A 
HETATM   17  O3  UNK     1      19.259   0.653  28.691  1.00  0.00    -0.260 OA
HETATM   18  C6  UNK     1      18.661   2.447  30.095  1.00  0.00     0.092 A 
BRANCH  14  19
HETATM   19  O2  UNK     1      18.423  -0.852  35.536  1.00  0.00    -0.356 OA
HETATM   20  C15 UNK     1      19.658  -1.523  35.781  1.00  0.00     0.210 C 
ENDBRANCH  14  19
ENDBRANCH   7   8
ENDBRANCH   5   7
ENDBRANCH   4   5
ENDBRANCH   2   4
TORSDOF 5
ENDMDL
MODEL 3
REMARK VINA RESULT:      -6.5     16.967     18.813
REMARK  5 active torsions:
REMARK  status: ('A' for Active; 'I' for Inactive)
REMARK    1  A    between atoms: C13_18  and  O2_2 
REMARK    2  A    between atoms: C1_6  and  N1_4 
REMARK    3  A    between atoms: C4_9  and  N1_4 
REMARK    4  A    between atoms: C1_6  and  C2_7 
REMARK    5  A    between atoms: C4_9  and  C9_14 
ROOT
HETATM    1  N2  UNK     1      24.911  -7.310  38.467  1.00  0.00    -0.197 NA
HETATM    2  C9  UNK     1      26.454  -9.191  39.467  1.00  0.00     0.154 C 
HETATM    3  C14 UNK     1      25.592  -8.141  38.908  1.00  0.00     0.060 C 
ENDROOT
BRANCH   2   4
HETATM    4  C4  UNK     1      27.247  -9.892  38.366  1.00  0.00     0.286 C 
BRANCH   4   5
HETATM    5  N1  UNK     1      28.130  -8.931  37.679  1.00  0.00     0.089 N 
HETATM    6  C7  UNK     1      28.203  -9.280  36.249  1.00  0.00     0.310 C 
BRANCH   5   7
HETATM    7  C1  UNK     1      29.426  -8.885  38.278  1.00  0.00     0.311 C 
BRANCH   7   8
HETATM    8  C2  UNK     1      29.865  -7.454  38.389  1.00  0.00    -0.011 A 
HETATM    9  C3  UNK     1      31.237  -7.078  38.025  1.00  0.00     0.006 A 
HETATM   10  C5  UNK     1      31.616  -5.739  38.138  1.00  0.00     0.093 A 
HETATM   11  C8  UNK     1      32.198  -7.988  37.566  1.00  0.00     0.017 A 
HETATM   12  C10 UNK     1      32.899  -5.297  37.813  1.00  0.00     0.075 A 
HETATM   13  O1  UNK     1      30.707  -4.761  38.592  1.00  0.00    -0.275 OA
HETATM   14  C13 UNK     1      33.839  -6.217  37.359  1.00  0.00     0.070 A 
HETATM   15  C12 UNK     1      33.489  -7.560  37.236  1.00  0.00     0.038 A 
HETATM   16  C11 UNK     1      29.406  -5.086  38.942  1.00  0.00     0.288 A 
HETATM   17  O3  UNK     1      28.609  -4.244  39.337  1.00  0.00    -0.260 OA
HETATM   18  C6  UNK     1      29.022  -6.503  38.817  1.00  0.00     0.092 A 
BRANCH  14  19
HETATM   19  O2  UNK     1      35.096  -5.806  37.037  1.00  0.00    -0.356 OA
HETATM   20  C15 UNK     1      35.580  -6.150  35.740  1.00  0.00     0.210 C 
ENDBRANCH  14  19
ENDBRANCH   7   8
ENDBRANCH   5   7
ENDBRANCH   4   5
ENDBRANCH   2   4
TORSDOF 5
ENDMDL
MODEL 4
REMARK VINA RESULT:      -6.4     16.830     18.204
REMARK  5 active torsions:
REMARK  status: ('A' for Active; 'I' for Inactive)
REMARK    1  A    between atoms: C13_18  and  O2_2 
REMARK    2  A    between atoms: C1_6  and  N1_4 
REMARK    3  A    between atoms: C4_9  and  N1_4 
REMARK    4  A    between atoms: C1_6  and  C2_7 
REMARK    5  A    between atoms: C4_9  and  C9_14 
ROOT
HETATM    1  N2  UNK     1      32.305  -8.060  38.203  1.00  0.00    -0.197 NA
HETATM    2  C9  UNK     1      30.158  -9.572  38.356  1.00  0.00     0.154 C 
HETATM    3  C14 UNK     1      31.357  -8.727  38.270  1.00  0.00     0.060 C 
ENDROOT
BRANCH   2   4
HETATM    4  C4  UNK     1      29.126  -9.164  37.308  1.00  0.00     0.286 C 
BRANCH   4   5
HETATM    5  N1  UNK     1      28.142  -8.234  37.893  1.00  0.00     0.089 N 
HETATM    6  C7  UNK     1      26.880  -8.958  38.137  1.00  0.00     0.310 C 
BRANCH   5   7
HETATM    7  C1  UNK     1      27.940  -7.089  37.063  1.00  0.00     0.311 C 
BRANCH   7   8
HETATM    8  C2  UNK     1      28.885  -6.003  37.489  1.00  0.00    -0.011 A 
HETATM    9  C3  UNK     1      30.026  -5.648  36.635  1.00  0.00     0.006 A 
HETATM   10  C5  UNK     1      30.888  -4.634  37.058  1.00  0.00     0.093 A 
HETATM   11  C8  UNK     1      30.306  -6.269  35.411  1.00  0.00     0.017 A 
HETATM   12  C10 UNK     1      31.995  -4.234  36.307  1.00  0.00     0.075 A 
HETATM   13  O1  UNK     1      30.676  -3.959  38.278  1.00  0.00    -0.275 OA
HETATM   14  C13 UNK     1      32.255  -4.864  35.094  1.00  0.00     0.070 A 
HETATM   15  C12 UNK     1      31.412  -5.879  34.647  1.00  0.00     0.038 A 
HETATM   16  C11 UNK     1      29.607  -4.273  39.103  1.00  0.00     0.288 A 
HETATM   17  O3  UNK     1      29.414  -3.692  40.165  1.00  0.00    -0.260 OA
HETATM   18  C6  UNK     1      28.708  -5.344  38.643  1.00  0.00     0.092 A 
BRANCH  14  19
HETATM   19  O2  UNK     1      33.329  -4.489  34.347  1.00  0.00    -0.356 OA
HETATM   20  C15 UNK     1      34.568  -4.317  35.032  1.00  0.00     0.210 C 
ENDBRANCH  14  19
ENDBRANCH   7   8
ENDBRANCH   5   7
ENDBRANCH   4   5
ENDBRANCH   2   4
TORSDOF 5
ENDMDL
MODEL 5
REMARK VINA RESULT:      -6.3      3.733      7.021
REMARK  5 active torsions:
REMARK  status: ('A' for Active; 'I' for Inactive)
REMARK    1  A    between atoms: C13_18  and  O2_2 
REMARK    2  A    between atoms: C1_6  and  N1_4 
REMARK    3  A    between atoms: C4_9  and  N1_4 
REMARK    4  A    between atoms: C1_6  and  C2_7 
REMARK    5  A    between atoms: C4_9  and  C9_14 
ROOT
HETATM    1  N2  UNK     1      19.113   1.133  35.719  1.00  0.00    -0.197 NA
HETATM    2  C9  UNK     1      18.070   2.435  33.684  1.00  0.00     0.154 C 
HETATM    3  C14 UNK     1      18.653   1.708  34.821  1.00  0.00     0.060 C 
ENDROOT
BRANCH   2   4
HETATM    4  C4  UNK     1      18.352   3.932  33.791  1.00  0.00     0.286 C 
BRANCH   4   5
HETATM    5  N1  UNK     1      17.942   4.620  32.552  1.00  0.00     0.089 N 
HETATM    6  C7  UNK     1      18.477   3.883  31.392  1.00  0.00     0.310 C 
BRANCH   5   7
HETATM    7  C1  UNK     1      18.358   5.987  32.546  1.00  0.00     0.311 C 
BRANCH   7   8
HETATM    8  C2  UNK     1      17.145   6.868  32.611  1.00  0.00    -0.011 A 
HETATM    9  C3  UNK     1      17.257   8.231  33.148  1.00  0.00     0.006 A 
HETATM   10  C5  UNK     1      16.111   9.026  33.196  1.00  0.00     0.093 A 
HETATM   11  C8  UNK     1      18.454   8.786  33.618  1.00  0.00     0.017 A 
HETATM   12  C10 UNK     1      16.130  10.332  33.690  1.00  0.00     0.075 A 
HETATM   13  O1  UNK     1      14.867   8.542  32.741  1.00  0.00    -0.275 OA
HETATM   14  C13 UNK     1      17.328  10.865  34.152  1.00  0.00     0.070 A 
HETATM   15  C12 UNK     1      18.488  10.094  34.117  1.00  0.00     0.038 A 
HETATM   16  C11 UNK     1      14.732   7.260  32.229  1.00  0.00     0.288 A 
HETATM   17  O3  UNK     1      13.656   6.830  31.831  1.00  0.00    -0.260 OA
HETATM   18  C6  UNK     1      15.950   6.434  32.185  1.00  0.00     0.092 A 
BRANCH  14  19
HETATM   19  O2  UNK     1      17.368  12.136  34.639  1.00  0.00    -0.356 OA
HETATM   20  C15 UNK     1      16.217  12.598  35.344  1.00  0.00     0.210 C 
ENDBRANCH  14  19
ENDBRANCH   7   8
ENDBRANCH   5   7
ENDBRANCH   4   5
ENDBRANCH   2   4
TORSDOF 5
ENDMDL
MODEL 6
REMARK VINA RESULT:      -6.2     16.385     17.672
REMARK  5 active torsions:
REMARK  status: ('A' for Active; 'I' for Inactive)
REMARK    1  A    between atoms: C13_18  and  O2_2 
REMARK    2  A    between atoms: C1_6  and  N1_4 
REMARK    3  A    between atoms: C4_9  and  N1_4 
REMARK    4  A    between atoms: C1_6  and  C2_7 
REMARK    5  A    between atoms: C4_9  and  C9_14 
ROOT
HETATM    1  N2  UNK     1      29.987  -5.056  31.406  1.00  0.00    -0.197 NA
HETATM    2  C9  UNK     1      30.101  -6.044  33.842  1.00  0.00     0.154 C 
HETATM    3  C14 UNK     1      30.038  -5.492  32.481  1.00  0.00     0.060 C 
ENDROOT
BRANCH   2   4
HETATM    4  C4  UNK     1      31.541  -6.088  34.347  1.00  0.00     0.286 C 
BRANCH   4   5
HETATM    5  N1  UNK     1      31.700  -5.207  35.520  1.00  0.00     0.089 N 
HETATM    6  C7  UNK     1      32.758  -4.219  35.241  1.00  0.00     0.310 C 
BRANCH   5   7
HETATM    7  C1  UNK     1      31.974  -5.954  36.706  1.00  0.00     0.311 C 
BRANCH   7   8
HETATM    8  C2  UNK     1      30.821  -5.808  37.655  1.00  0.00    -0.011 A 
HETATM    9  C3  UNK     1      29.835  -6.889  37.782  1.00  0.00     0.006 A 
HETATM   10  C5  UNK     1      28.773  -6.724  38.673  1.00  0.00     0.093 A 
HETATM   11  C8  UNK     1      29.894  -8.087  37.057  1.00  0.00     0.017 A 
HETATM   12  C10 UNK     1      27.792  -7.702  38.854  1.00  0.00     0.075 A 
HETATM   13  O1  UNK     1      28.641  -5.549  39.440  1.00  0.00    -0.275 OA
HETATM   14  C13 UNK     1      27.870  -8.884  38.125  1.00  0.00     0.070 A 
HETATM   15  C12 UNK     1      28.919  -9.076  37.228  1.00  0.00     0.038 A 
HETATM   16  C11 UNK     1      29.557  -4.513  39.342  1.00  0.00     0.288 A 
HETATM   17  O3  UNK     1      29.451  -3.487  40.004  1.00  0.00    -0.260 OA
HETATM   18  C6  UNK     1      30.671  -4.702  38.398  1.00  0.00     0.092 A 
BRANCH  14  19
HETATM   19  O2  UNK     1      26.924  -9.849  38.286  1.00  0.00    -0.356 OA
HETATM   20  C15 UNK     1      26.274 -10.325  37.109  1.00  0.00     0.210 C 
ENDBRANCH  14  19
ENDBRANCH   7   8
ENDBRANCH   5   7
ENDBRANCH   4   5
ENDBRANCH   2   4
TORSDOF 5
ENDMDL
MODEL 7
REMARK VINA RESULT:      -6.2      3.387      6.176
REMARK  5 active torsions:
REMARK  status: ('A' for Active; 'I' for Inactive)
REMARK    1  A    between atoms: C13_18  and  O2_2 
REMARK    2  A    between atoms: C1_6  and  N1_4 
REMARK    3  A    between atoms: C4_9  and  N1_4 
REMARK    4  A    between atoms: C1_6  and  C2_7 
REMARK    5  A    between atoms: C4_9  and  C9_14 
ROOT
HETATM    1  N2  UNK     1      17.864   1.265  38.392  1.00  0.00    -0.197 NA
HETATM    2  C9  UNK     1      17.098  -0.132  36.299  1.00  0.00     0.154 C 
HETATM    3  C14 UNK     1      17.526   0.649  37.468  1.00  0.00     0.060 C 
ENDROOT
BRANCH   2   4
HETATM    4  C4  UNK     1      16.546   0.780  35.205  1.00  0.00     0.286 C 
BRANCH   4   5
HETATM    5  N1  UNK     1      17.535   0.937  34.122  1.00  0.00     0.089 N 
HETATM    6  C7  UNK     1      18.409  -0.251  34.091  1.00  0.00     0.310 C 
BRANCH   5   7
HETATM    7  C1  UNK     1      18.288   2.142  34.266  1.00  0.00     0.311 C 
BRANCH   7   8
HETATM    8  C2  UNK     1      18.329   2.855  32.946  1.00  0.00    -0.011 A 
HETATM    9  C3  UNK     1      18.207   4.318  32.899  1.00  0.00     0.006 A 
HETATM   10  C5  UNK     1      18.248   4.953  31.657  1.00  0.00     0.093 A 
HETATM   11  C8  UNK     1      18.049   5.123  34.035  1.00  0.00     0.017 A 
HETATM   12  C10 UNK     1      18.140   6.338  31.523  1.00  0.00     0.075 A 
HETATM   13  O1  UNK     1      18.405   4.214  30.466  1.00  0.00    -0.275 OA
HETATM   14  C13 UNK     1      17.983   7.120  32.663  1.00  0.00     0.070 A 
HETATM   15  C12 UNK     1      17.938   6.513  33.917  1.00  0.00     0.038 A 
HETATM   16  C11 UNK     1      18.524   2.833  30.480  1.00  0.00     0.288 A 
HETATM   17  O3  UNK     1      18.661   2.182  29.451  1.00  0.00    -0.260 OA
HETATM   18  C6  UNK     1      18.478   2.179  31.798  1.00  0.00     0.092 A 
BRANCH  14  19
HETATM   19  O2  UNK     1      17.875   8.472  32.554  1.00  0.00    -0.356 OA
HETATM   20  C15 UNK     1      17.516   9.192  33.732  1.00  0.00     0.210 C 
ENDBRANCH  14  19
ENDBRANCH   7   8
ENDBRANCH   5   7
ENDBRANCH   4   5
ENDBRANCH   2   4
TORSDOF 5
ENDMDL
MODEL 8
REMARK VINA RESULT:      -6.2      3.669      6.622
REMARK  5 active torsions:
REMARK  status: ('A' for Active; 'I' for Inactive)
REMARK    1  A    between atoms: C13_18  and  O2_2 
REMARK    2  A    between atoms: C1_6  and  N1_4 
REMARK    3  A    between atoms: C4_9  and  N1_4 
REMARK    4  A    between atoms: C1_6  and  C2_7 
REMARK    5  A    between atoms: C4_9  and  C9_14 
ROOT
HETATM    1  N2  UNK     1      18.163   1.676  28.437  1.00  0.00    -0.197 NA
HETATM    2  C9  UNK     1      18.742   3.566  30.173  1.00  0.00     0.154 C 
HETATM    3  C14 UNK     1      18.418   2.509  29.204  1.00  0.00     0.060 C 
ENDROOT
BRANCH   2   4
HETATM    4  C4  UNK     1      18.250   3.195  31.570  1.00  0.00     0.286 C 
BRANCH   4   5
HETATM    5  N1  UNK     1      18.367   4.351  32.478  1.00  0.00     0.089 N 
HETATM    6  C7  UNK     1      18.191   3.893  33.868  1.00  0.00     0.310 C 
BRANCH   5   7
HETATM    7  C1  UNK     1      17.437   5.382  32.140  1.00  0.00     0.311 C 
BRANCH   7   8
HETATM    8  C2  UNK     1      17.809   6.637  32.873  1.00  0.00    -0.011 A 
HETATM    9  C3  UNK     1      16.758   7.528  33.383  1.00  0.00     0.006 A 
HETATM   10  C5  UNK     1      17.135   8.688  34.061  1.00  0.00     0.093 A 
HETATM   11  C8  UNK     1      15.387   7.282  33.229  1.00  0.00     0.017 A 
HETATM   12  C10 UNK     1      16.200   9.588  34.577  1.00  0.00     0.075 A 
HETATM   13  O1  UNK     1      18.494   9.008  34.258  1.00  0.00    -0.275 OA
HETATM   14  C13 UNK     1      14.844   9.326  34.413  1.00  0.00     0.070 A 
HETATM   15  C12 UNK     1      14.438   8.175  33.740  1.00  0.00     0.038 A 
HETATM   16  C11 UNK     1      19.507   8.186  33.789  1.00  0.00     0.288 A 
HETATM   17  O3  UNK     1      20.691   8.455  33.956  1.00  0.00    -0.260 OA
HETATM   18  C6  UNK     1      19.093   6.966  33.076  1.00  0.00     0.092 A 
BRANCH  14  19
HETATM   19  O2  UNK     1      13.917  10.190  34.908  1.00  0.00    -0.356 OA
HETATM   20  C15 UNK     1      13.473  11.233  34.042  1.00  0.00     0.210 C 
ENDBRANCH  14  19
ENDBRANCH   7   8
ENDBRANCH   5   7
ENDBRANCH   4   5
ENDBRANCH   2   4
TORSDOF 5
ENDMDL
MODEL 9
REMARK VINA RESULT:      -6.1      5.216      7.760
REMARK  5 active torsions:
REMARK  status: ('A' for Active; 'I' for Inactive)
REMARK    1  A    between atoms: C13_18  and  O2_2 
REMARK    2  A    between atoms: C1_6  and  N1_4 
REMARK    3  A    between atoms: C4_9  and  N1_4 
REMARK    4  A    between atoms: C1_6  and  C2_7 
REMARK    5  A    between atoms: C4_9  and  C9_14 
ROOT
HETATM    1  N2  UNK     1      18.291   1.574  28.316  1.00  0.00    -0.197 NA
HETATM    2  C9  UNK     1      19.307   0.970  30.666  1.00  0.00     0.154 C 
HETATM    3  C14 UNK     1      18.740   1.307  29.353  1.00  0.00     0.060 C 
ENDROOT
BRANCH   2   4
HETATM    4  C4  UNK     1      20.522   0.058  30.518  1.00  0.00     0.286 C 
BRANCH   4   5
HETATM    5  N1  UNK     1      20.307  -1.205  31.249  1.00  0.00     0.089 N 
HETATM    6  C7  UNK     1      20.478  -2.336  30.318  1.00  0.00     0.310 C 
BRANCH   5   7
HETATM    7  C1  UNK     1      19.028  -1.234  31.886  1.00  0.00     0.311 C 
BRANCH   7   8
HETATM    8  C2  UNK     1      19.218  -1.457  33.357  1.00  0.00    -0.011 A 
HETATM    9  C3  UNK     1      18.673  -0.492  34.321  1.00  0.00     0.006 A 
HETATM   10  C5  UNK     1      18.866  -0.726  35.684  1.00  0.00     0.093 A 
HETATM   11  C8  UNK     1      17.965   0.660  33.955  1.00  0.00     0.017 A 
HETATM   12  C10 UNK     1      18.381   0.140  36.666  1.00  0.00     0.075 A 
HETATM   13  O1  UNK     1      19.568  -1.863  36.136  1.00  0.00    -0.275 OA
HETATM   14  C13 UNK     1      17.681   1.277  36.280  1.00  0.00     0.070 A 
HETATM   15  C12 UNK     1      17.473   1.538  34.927  1.00  0.00     0.038 A 
HETATM   16  C11 UNK     1      20.092  -2.791  35.249  1.00  0.00     0.288 A 
HETATM   17  O3  UNK     1      20.704  -3.782  35.631  1.00  0.00    -0.260 OA
HETATM   18  C6  UNK     1      19.880  -2.529  33.816  1.00  0.00     0.092 A 
BRANCH  14  19
HETATM   19  O2  UNK     1      17.200   2.135  37.222  1.00  0.00    -0.356 OA
HETATM   20  C15 UNK     1      17.388   1.771  38.588  1.00  0.00     0.210 C 
ENDBRANCH  14  19
ENDBRANCH   7   8
ENDBRANCH   5   7
ENDBRANCH   4   5
ENDBRANCH   2   4
TORSDOF 5
ENDMDL
MODEL 10
REMARK VINA RESULT:      -6.1     21.561     23.413
REMARK  5 active torsions:
REMARK  status: ('A' for Active; 'I' for Inactive)
REMARK    1  A    between atoms: C13_18  and  O2_2 
REMARK    2  A    between atoms: C1_6  and  N1_4 
REMARK    3  A    between atoms: C4_9  and  N1_4 
REMARK    4  A    between atoms: C1_6  and  C2_7 
REMARK    5  A    between atoms: C4_9  and  C9_14 
ROOT
HETATM    1  N2  UNK     1      10.851   9.880  11.239  1.00  0.00    -0.197 NA
HETATM    2  C9  UNK     1      13.405  10.500  11.118  1.00  0.00     0.154 C 
HETATM    3  C14 UNK     1      11.978  10.153  11.186  1.00  0.00     0.060 C 
ENDROOT
BRANCH   2   4
HETATM    4  C4  UNK     1      14.272   9.342  11.605  1.00  0.00     0.286 C 
BRANCH   4   5
HETATM    5  N1  UNK     1      15.441   9.172  10.722  1.00  0.00     0.089 N 
HETATM    6  C7  UNK     1      16.297  10.369  10.819  1.00  0.00     0.310 C 
BRANCH   5   7
HETATM    7  C1  UNK     1      15.050   8.911   9.373  1.00  0.00     0.311 C 
BRANCH   7   8
HETATM    8  C2  UNK     1      14.674   7.463   9.244  1.00  0.00    -0.011 A 
HETATM    9  C3  UNK     1      13.334   7.094   8.770  1.00  0.00     0.006 A 
HETATM   10  C5  UNK     1      13.014   5.740   8.660  1.00  0.00     0.093 A 
HETATM   11  C8  UNK     1      12.348   8.025   8.418  1.00  0.00     0.017 A 
HETATM   12  C10 UNK     1      11.764   5.302   8.218  1.00  0.00     0.075 A 
HETATM   13  O1  UNK     1      13.950   4.740   8.994  1.00  0.00    -0.275 OA
HETATM   14  C13 UNK     1      10.799   6.243   7.874  1.00  0.00     0.070 A 
HETATM   15  C12 UNK     1      11.090   7.602   7.974  1.00  0.00     0.038 A 
HETATM   16  C11 UNK     1      15.222   5.059   9.443  1.00  0.00     0.288 A 
HETATM   17  O3  UNK     1      16.044   4.198   9.735  1.00  0.00    -0.260 OA
HETATM   18  C6  UNK     1      15.544   6.492   9.553  1.00  0.00     0.092 A 
BRANCH  14  19
HETATM   19  O2  UNK     1       9.574   5.837   7.441  1.00  0.00    -0.356 OA
HETATM   20  C15 UNK     1       9.276   6.030   6.059  1.00  0.00     0.210 C 
ENDBRANCH  14  19
ENDBRANCH   7   8
ENDBRANCH   5   7
ENDBRANCH   4   5
ENDBRANCH   2   4
TORSDOF 5
ENDMDL
