MODEL 1
REMARK VINA RESULT:      -8.6      0.000      0.000
REMARK  8 active torsions:
REMARK  status: ('A' for Active; 'I' for Inactive)
REMARK    1  A    between atoms: C11_18  and  O2_2 
REMARK    2  A    between atoms: C19_26  and  O3_3 
REMARK    3  A    between atoms: C24_31  and  O3_3 
REMARK    4  A    between atoms: C5_12  and  N1_6 
REMARK    5  A    between atoms: C6_13  and  N2_7 
REMARK    6  A    between atoms: C5_12  and  C7_14 
REMARK    7  A    between atoms: C6_13  and  C8_15 
REMARK    8  A    between atoms: C15_22  and  C22_29 
ROOT
HETATM    1  N1  UNK     1      18.339   1.471  33.827  1.00  0.00     0.096 N 
HETATM    2  N2  UNK     1      18.265   4.296  33.215  1.00  0.00     0.096 N 
HETATM    3  C1  UNK     1      18.120   2.473  34.877  1.00  0.00     0.303 C 
HETATM    4  C2  UNK     1      17.829   1.959  32.539  1.00  0.00     0.303 C 
HETATM    5  C3  UNK     1      18.774   3.808  34.502  1.00  0.00     0.303 C 
HETATM    6  C4  UNK     1      18.482   3.294  32.164  1.00  0.00     0.303 C 
ENDROOT
BRANCH   1   7
HETATM    7  C5  UNK     1      17.714   0.199  34.183  1.00  0.00     0.312 C 
BRANCH   7   8
HETATM    8  C7  UNK     1      18.719  -0.877  34.408  1.00  0.00    -0.011 A 
HETATM    9  C10 UNK     1      18.987  -1.329  35.640  1.00  0.00     0.092 A 
HETATM   10  C16 UNK     1      19.972  -2.391  35.911  1.00  0.00     0.288 A 
HETATM   11  O1  UNK     1      20.632  -2.922  34.814  1.00  0.00    -0.275 OA
HETATM   12  O4  UNK     1      20.190  -2.779  37.053  1.00  0.00    -0.260 OA
HETATM   13  C13 UNK     1      20.373  -2.466  33.506  1.00  0.00     0.090 A 
HETATM   14  C9  UNK     1      19.437  -1.459  33.265  1.00  0.00     0.009 A 
HETATM   15  C18 UNK     1      21.098  -3.072  32.479  1.00  0.00     0.041 A 
HETATM   16  C14 UNK     1      19.238  -1.061  31.936  1.00  0.00     0.051 A 
HETATM   17  C19 UNK     1      19.958  -1.659  30.895  1.00  0.00     0.069 A 
HETATM   18  C21 UNK     1      20.886  -2.663  31.166  1.00  0.00     0.039 A 
BRANCH  17  19
HETATM   19  O3  UNK     1      19.749  -1.258  29.611  1.00  0.00    -0.351 OA
BRANCH  19  20
HETATM   20  C24 UNK     1      20.175   0.059  29.265  1.00  0.00     0.171 C 
HETATM   21  C25 UNK     1      18.965   0.882  28.879  1.00  0.00     0.034 C 
ENDBRANCH  19  20
ENDBRANCH  17  19
ENDBRANCH   7   8
ENDBRANCH   1   7
BRANCH   2  22
HETATM   22  C6  UNK     1      18.892   5.567  32.857  1.00  0.00     0.314 C 
BRANCH  22  23
HETATM   23  C8  UNK     1      17.952   6.727  33.045  1.00  0.00     0.004 A 
HETATM   24  C11 UNK     1      18.418   7.950  33.530  1.00  0.00     0.076 A 
HETATM   25  C17 UNK     1      17.534   9.017  33.696  1.00  0.00     0.038 A 
HETATM   26  C20 UNK     1      16.186   8.861  33.378  1.00  0.00     0.017 A 
HETATM   27  C15 UNK     1      15.719   7.639  32.893  1.00  0.00     0.002 A 
HETATM   28  C12 UNK     1      16.603   6.572  32.726  1.00  0.00     0.026 A 
BRANCH  24  29
HETATM   29  O2  UNK     1      19.732   8.118  33.845  1.00  0.00    -0.355 OA
HETATM   30  C23 UNK     1      20.099   9.355  34.455  1.00  0.00     0.210 C 
ENDBRANCH  24  29
BRANCH  27  31
HETATM   31  C22 UNK     1      14.313   7.477  32.563  1.00  0.00     0.269 C 
HETATM   32  O5  UNK     1      13.912   6.712  31.681  1.00  0.00    -0.301 OA
ENDBRANCH  27  31
ENDBRANCH  22  23
ENDBRANCH   2  22
TORSDOF 8
ENDMDL
MODEL 2
REMARK VINA RESULT:      -8.4     13.819     16.996
REMARK  8 active torsions:
REMARK  status: ('A' for Active; 'I' for Inactive)
REMARK    1  A    between atoms: C11_18  and  O2_2 
REMARK    2  A    between atoms: C19_26  and  O3_3 
REMARK    3  A    between atoms: C24_31  and  O3_3 
REMARK    4  A    between atoms: C5_12  and  N1_6 
REMARK    5  A    between atoms: C6_13  and  N2_7 
REMARK    6  A    between atoms: C5_12  and  C7_14 
REMARK    7  A    between atoms: C6_13  and  C8_15 
REMARK    8  A    between atoms: C15_22  and  C22_29 
ROOT
HETATM    1  N1  UNK     1      31.780  -8.734  33.380  1.00  0.00     0.096 N 
HETATM    2  N2  UNK     1      31.321  -8.280  36.199  1.00  0.00     0.096 N 
HETATM    3  C1  UNK     1      30.543  -8.105  33.860  1.00  0.00     0.303 C 
HETATM    4  C2  UNK     1      32.891  -8.443  34.297  1.00  0.00     0.303 C 
HETATM    5  C3  UNK     1      30.212  -8.569  35.283  1.00  0.00     0.303 C 
HETATM    6  C4  UNK     1      32.559  -8.906  35.720  1.00  0.00     0.303 C 
ENDROOT
BRANCH   1   7
HETATM    7  C5  UNK     1      32.097  -8.290  32.025  1.00  0.00     0.312 C 
BRANCH   7   8
HETATM    8  C7  UNK     1      31.880  -9.365  31.017  1.00  0.00    -0.011 A 
HETATM    9  C10 UNK     1      32.827 -10.279  30.764  1.00  0.00     0.092 A 
HETATM   10  C16 UNK     1      32.658 -11.360  29.778  1.00  0.00     0.288 A 
HETATM   11  O1  UNK     1      31.450 -11.401  29.099  1.00  0.00    -0.275 OA
HETATM   12  O4  UNK     1      33.547 -12.179  29.574  1.00  0.00    -0.260 OA
HETATM   13  C13 UNK     1      30.436 -10.453  29.342  1.00  0.00     0.090 A 
HETATM   14  C9  UNK     1      30.610  -9.434  30.280  1.00  0.00     0.009 A 
HETATM   15  C18 UNK     1      29.262 -10.589  28.599  1.00  0.00     0.041 A 
HETATM   16  C14 UNK     1      29.554  -8.530  30.462  1.00  0.00     0.051 A 
HETATM   17  C19 UNK     1      28.371  -8.654  29.725  1.00  0.00     0.069 A 
HETATM   18  C21 UNK     1      28.226  -9.683  28.795  1.00  0.00     0.039 A 
BRANCH  17  19
HETATM   19  O3  UNK     1      27.358  -7.766  29.917  1.00  0.00    -0.351 OA
BRANCH  19  20
HETATM   20  C24 UNK     1      27.708  -6.483  30.432  1.00  0.00     0.171 C 
HETATM   21  C25 UNK     1      27.335  -6.422  31.898  1.00  0.00     0.034 C 
ENDBRANCH  19  20
ENDBRANCH  17  19
ENDBRANCH   7   8
ENDBRANCH   1   7
BRANCH   2  22
HETATM   22  C6  UNK     1      31.005  -8.725  37.555  1.00  0.00     0.314 C 
BRANCH  22  23
HETATM   23  C8  UNK     1      29.971  -7.847  38.206  1.00  0.00     0.004 A 
HETATM   24  C11 UNK     1      28.790  -8.392  38.712  1.00  0.00     0.076 A 
HETATM   25  C17 UNK     1      27.843  -7.564  39.315  1.00  0.00     0.038 A 
HETATM   26  C20 UNK     1      28.076  -6.193  39.413  1.00  0.00     0.017 A 
HETATM   27  C15 UNK     1      29.257  -5.648  38.907  1.00  0.00     0.002 A 
HETATM   28  C12 UNK     1      30.204  -6.475  38.305  1.00  0.00     0.026 A 
BRANCH  24  29
HETATM   29  O2  UNK     1      28.548  -9.729  38.625  1.00  0.00    -0.355 OA
HETATM   30  C23 UNK     1      27.381 -10.220  39.283  1.00  0.00     0.210 C 
ENDBRANCH  24  29
BRANCH  27  31
HETATM   31  C22 UNK     1      29.498  -4.218  39.008  1.00  0.00     0.269 C 
HETATM   32  O5  UNK     1      29.536  -3.616  40.085  1.00  0.00    -0.301 OA
ENDBRANCH  27  31
ENDBRANCH  22  23
ENDBRANCH   2  22
TORSDOF 8
ENDMDL
MODEL 3
REMARK VINA RESULT:      -8.3      1.658      3.777
REMARK  8 active torsions:
REMARK  status: ('A' for Active; 'I' for Inactive)
REMARK    1  A    between atoms: C11_18  and  O2_2 
REMARK    2  A    between atoms: C19_26  and  O3_3 
REMARK    3  A    between atoms: C24_31  and  O3_3 
REMARK    4  A    between atoms: C5_12  and  N1_6 
REMARK    5  A    between atoms: C6_13  and  N2_7 
REMARK    6  A    between atoms: C5_12  and  C7_14 
REMARK    7  A    between atoms: C6_13  and  C8_15 
REMARK    8  A    between atoms: C15_22  and  C22_29 
ROOT
HETATM    1  N1  UNK     1      18.613   2.923  30.930  1.00  0.00     0.096 N 
HETATM    2  N2  UNK     1      18.333   5.641  31.875  1.00  0.00     0.096 N 
HETATM    3  C1  UNK     1      17.731   3.252  32.056  1.00  0.00     0.303 C 
HETATM    4  C2  UNK     1      18.717   4.065  30.011  1.00  0.00     0.303 C 
HETATM    5  C3  UNK     1      18.228   4.500  32.792  1.00  0.00     0.303 C 
HETATM    6  C4  UNK     1      19.213   5.314  30.747  1.00  0.00     0.303 C 
ENDROOT
BRANCH   1   7
HETATM    7  C5  UNK     1      18.137   1.734  30.226  1.00  0.00     0.312 C 
BRANCH   7   8
HETATM    8  C7  UNK     1      19.139   0.631  30.248  1.00  0.00    -0.011 A 
HETATM    9  C10 UNK     1      19.929   0.391  29.194  1.00  0.00     0.092 A 
HETATM   10  C16 UNK     1      20.933  -0.687  29.170  1.00  0.00     0.288 A 
HETATM   11  O1  UNK     1      21.034  -1.469  30.310  1.00  0.00    -0.275 OA
HETATM   12  O4  UNK     1      21.640  -0.876  28.186  1.00  0.00    -0.260 OA
HETATM   13  C13 UNK     1      20.216  -1.242  31.434  1.00  0.00     0.090 A 
HETATM   14  C9  UNK     1      19.269  -0.216  31.442  1.00  0.00     0.009 A 
HETATM   15  C18 UNK     1      20.404  -2.092  32.525  1.00  0.00     0.041 A 
HETATM   16  C14 UNK     1      18.493  -0.056  32.599  1.00  0.00     0.051 A 
HETATM   17  C19 UNK     1      18.670  -0.901  33.701  1.00  0.00     0.069 A 
HETATM   18  C21 UNK     1      19.624  -1.916  33.664  1.00  0.00     0.039 A 
BRANCH  17  19
HETATM   19  O3  UNK     1      17.907  -0.729  34.814  1.00  0.00    -0.351 OA
BRANCH  19  20
HETATM   20  C24 UNK     1      16.500  -0.918  34.673  1.00  0.00     0.171 C 
HETATM   21  C25 UNK     1      15.777   0.167  35.441  1.00  0.00     0.034 C 
ENDBRANCH  19  20
ENDBRANCH  17  19
ENDBRANCH   7   8
ENDBRANCH   1   7
BRANCH   2  22
HETATM   22  C6  UNK     1      18.810   6.831  32.578  1.00  0.00     0.314 C 
BRANCH  22  23
HETATM   23  C8  UNK     1      17.675   7.713  33.022  1.00  0.00     0.004 A 
HETATM   24  C11 UNK     1      17.921   8.895  33.721  1.00  0.00     0.076 A 
HETATM   25  C17 UNK     1      16.858   9.703  34.123  1.00  0.00     0.038 A 
HETATM   26  C20 UNK     1      15.548   9.329  33.827  1.00  0.00     0.017 A 
HETATM   27  C15 UNK     1      15.300   8.147  33.127  1.00  0.00     0.002 A 
HETATM   28  C12 UNK     1      16.363   7.340  32.725  1.00  0.00     0.026 A 
BRANCH  24  29
HETATM   29  O2  UNK     1      19.196   9.274  34.018  1.00  0.00    -0.355 OA
HETATM   30  C23 UNK     1      19.421  10.664  34.244  1.00  0.00     0.210 C 
ENDBRANCH  24  29
BRANCH  27  31
HETATM   31  C22 UNK     1      13.933   7.758  32.820  1.00  0.00     0.269 C 
HETATM   32  O5  UNK     1      13.651   6.892  31.987  1.00  0.00    -0.301 OA
ENDBRANCH  27  31
ENDBRANCH  22  23
ENDBRANCH   2  22
TORSDOF 8
ENDMDL
MODEL 4
REMARK VINA RESULT:      -8.3     13.884     17.099
REMARK  8 active torsions:
REMARK  status: ('A' for Active; 'I' for Inactive)
REMARK    1  A    between atoms: C11_18  and  O2_2 
REMARK    2  A    between atoms: C19_26  and  O3_3 
REMARK    3  A    between atoms: C24_31  and  O3_3 
REMARK    4  A    between atoms: C5_12  and  N1_6 
REMARK    5  A    between atoms: C6_13  and  N2_7 
REMARK    6  A    between atoms: C5_12  and  C7_14 
REMARK    7  A    between atoms: C6_13  and  C8_15 
REMARK    8  A    between atoms: C15_22  and  C22_29 
ROOT
HETATM    1  N1  UNK     1      30.481 -10.142  33.679  1.00  0.00     0.096 N 
HETATM    2  N2  UNK     1      30.504  -9.620  36.523  1.00  0.00     0.096 N 
HETATM    3  C1  UNK     1      31.051 -11.107  34.626  1.00  0.00     0.303 C 
HETATM    4  C2  UNK     1      29.411  -9.366  34.321  1.00  0.00     0.303 C 
HETATM    5  C3  UNK     1      31.571 -10.397  35.881  1.00  0.00     0.303 C 
HETATM    6  C4  UNK     1      29.931  -8.656  35.576  1.00  0.00     0.303 C 
ENDROOT
BRANCH   1   7
HETATM    7  C5  UNK     1      29.983 -10.820  32.484  1.00  0.00     0.312 C 
BRANCH   7   8
HETATM    8  C7  UNK     1      30.887 -10.631  31.314  1.00  0.00    -0.011 A 
HETATM    9  C10 UNK     1      31.830 -11.535  31.015  1.00  0.00     0.092 A 
HETATM   10  C16 UNK     1      32.746 -11.392  29.870  1.00  0.00     0.288 A 
HETATM   11  O1  UNK     1      32.595 -10.256  29.090  1.00  0.00    -0.275 OA
HETATM   12  O4  UNK     1      33.597 -12.240  29.627  1.00  0.00    -0.260 OA
HETATM   13  C13 UNK     1      31.612  -9.288  29.380  1.00  0.00     0.090 A 
HETATM   14  C9  UNK     1      30.752  -9.437  30.468  1.00  0.00     0.009 A 
HETATM   15  C18 UNK     1      31.552  -8.184  28.528  1.00  0.00     0.041 A 
HETATM   16  C14 UNK     1      29.803  -8.429  30.690  1.00  0.00     0.051 A 
HETATM   17  C19 UNK     1      29.731  -7.316  29.844  1.00  0.00     0.069 A 
HETATM   18  C21 UNK     1      30.604  -7.195  28.765  1.00  0.00     0.039 A 
BRANCH  17  19
HETATM   19  O3  UNK     1      28.803  -6.349  30.077  1.00  0.00    -0.351 OA
BRANCH  19  20
HETATM   20  C24 UNK     1      27.815  -6.622  31.070  1.00  0.00     0.171 C 
HETATM   21  C25 UNK     1      26.500  -6.928  30.385  1.00  0.00     0.034 C 
ENDBRANCH  19  20
ENDBRANCH  17  19
ENDBRANCH   7   8
ENDBRANCH   1   7
BRANCH   2  22
HETATM   22  C6  UNK     1      31.002  -8.941  37.718  1.00  0.00     0.314 C 
BRANCH  22  23
HETATM   23  C8  UNK     1      29.976  -8.007  38.300  1.00  0.00     0.004 A 
HETATM   24  C11 UNK     1      28.762  -8.494  38.785  1.00  0.00     0.076 A 
HETATM   25  C17 UNK     1      27.823  -7.615  39.324  1.00  0.00     0.038 A 
HETATM   26  C20 UNK     1      28.097  -6.249  39.377  1.00  0.00     0.017 A 
HETATM   27  C15 UNK     1      29.310  -5.761  38.891  1.00  0.00     0.002 A 
HETATM   28  C12 UNK     1      30.250  -6.640  38.353  1.00  0.00     0.026 A 
BRANCH  24  29
HETATM   29  O2  UNK     1      28.480  -9.826  38.741  1.00  0.00    -0.355 OA
HETATM   30  C23 UNK     1      27.260 -10.250  39.347  1.00  0.00     0.210 C 
ENDBRANCH  24  29
BRANCH  27  31
HETATM   31  C22 UNK     1      29.594  -4.336  38.946  1.00  0.00     0.269 C 
HETATM   32  O5  UNK     1      29.530  -3.676  39.987  1.00  0.00    -0.301 OA
ENDBRANCH  27  31
ENDBRANCH  22  23
ENDBRANCH   2  22
TORSDOF 8
ENDMDL
MODEL 5
REMARK VINA RESULT:      -8.2     13.770     16.707
REMARK  8 active torsions:
REMARK  status: ('A' for Active; 'I' for Inactive)
REMARK    1  A    between atoms: C11_18  and  O2_2 
REMARK    2  A    between atoms: C19_26  and  O3_3 
REMARK    3  A    between atoms: C24_31  and  O3_3 
REMARK    4  A    between atoms: C5_12  and  N1_6 
REMARK    5  A    between atoms: C6_13  and  N2_7 
REMARK    6  A    between atoms: C5_12  and  C7_14 
REMARK    7  A    between atoms: C6_13  and  C8_15 
REMARK    8  A    between atoms: C15_22  and  C22_29 
ROOT
HETATM    1  N1  UNK     1      31.507  -7.181  32.750  1.00  0.00     0.096 N 
HETATM    2  N2  UNK     1      30.745  -7.489  35.522  1.00  0.00     0.096 N 
HETATM    3  C1  UNK     1      30.097  -7.261  33.148  1.00  0.00     0.303 C 
HETATM    4  C2  UNK     1      32.313  -6.598  33.832  1.00  0.00     0.303 C 
HETATM    5  C3  UNK     1      29.940  -8.070  34.441  1.00  0.00     0.303 C 
HETATM    6  C4  UNK     1      32.155  -7.406  35.125  1.00  0.00     0.303 C 
ENDROOT
BRANCH   1   7
HETATM    7  C5  UNK     1      31.657  -6.408  31.519  1.00  0.00     0.312 C 
BRANCH   7   8
HETATM    8  C7  UNK     1      32.089  -7.256  30.373  1.00  0.00    -0.011 A 
HETATM    9  C10 UNK     1      33.373  -7.306  29.993  1.00  0.00     0.092 A 
HETATM   10  C16 UNK     1      33.847  -8.129  28.867  1.00  0.00     0.288 A 
HETATM   11  O1  UNK     1      32.891  -8.873  28.194  1.00  0.00    -0.275 OA
HETATM   12  O4  UNK     1      35.031  -8.150  28.548  1.00  0.00    -0.260 OA
HETATM   13  C13 UNK     1      31.532  -8.840  28.569  1.00  0.00     0.090 A 
HETATM   14  C9  UNK     1      31.099  -8.055  29.638  1.00  0.00     0.009 A 
HETATM   15  C18 UNK     1      30.658  -9.628  27.819  1.00  0.00     0.041 A 
HETATM   16  C14 UNK     1      29.731  -8.077  29.948  1.00  0.00     0.051 A 
HETATM   17  C19 UNK     1      28.842  -8.861  29.204  1.00  0.00     0.069 A 
HETATM   18  C21 UNK     1      29.306  -9.636  28.142  1.00  0.00     0.039 A 
BRANCH  17  19
HETATM   19  O3  UNK     1      27.519  -8.869  29.521  1.00  0.00    -0.351 OA
BRANCH  19  20
HETATM   20  C24 UNK     1      27.121  -8.114  30.665  1.00  0.00     0.171 C 
HETATM   21  C25 UNK     1      26.370  -6.883  30.205  1.00  0.00     0.034 C 
ENDBRANCH  19  20
ENDBRANCH  17  19
ENDBRANCH   7   8
ENDBRANCH   1   7
BRANCH   2  22
HETATM   22  C6  UNK     1      30.596  -8.263  36.753  1.00  0.00     0.314 C 
BRANCH  22  23
HETATM   23  C8  UNK     1      29.722  -7.559  37.755  1.00  0.00     0.004 A 
HETATM   24  C11 UNK     1      28.750  -8.261  38.470  1.00  0.00     0.076 A 
HETATM   25  C17 UNK     1      27.949  -7.594  39.397  1.00  0.00     0.038 A 
HETATM   26  C20 UNK     1      28.119  -6.227  39.610  1.00  0.00     0.017 A 
HETATM   27  C15 UNK     1      29.090  -5.525  38.896  1.00  0.00     0.002 A 
HETATM   28  C12 UNK     1      29.891  -6.191  37.969  1.00  0.00     0.026 A 
BRANCH  24  29
HETATM   29  O2  UNK     1      28.572  -9.597  38.274  1.00  0.00    -0.355 OA
HETATM   30  C23 UNK     1      27.592 -10.245  39.083  1.00  0.00     0.210 C 
ENDBRANCH  24  29
BRANCH  27  31
HETATM   31  C22 UNK     1      29.265  -4.099  39.118  1.00  0.00     0.269 C 
HETATM   32  O5  UNK     1      29.609  -3.624  40.204  1.00  0.00    -0.301 OA
ENDBRANCH  27  31
ENDBRANCH  22  23
ENDBRANCH   2  22
TORSDOF 8
ENDMDL
MODEL 6
REMARK VINA RESULT:      -8.1     13.770     16.801
REMARK  8 active torsions:
REMARK  status: ('A' for Active; 'I' for Inactive)
REMARK    1  A    between atoms: C11_18  and  O2_2 
REMARK    2  A    between atoms: C19_26  and  O3_3 
REMARK    3  A    between atoms: C24_31  and  O3_3 
REMARK    4  A    between atoms: C5_12  and  N1_6 
REMARK    5  A    between atoms: C6_13  and  N2_7 
REMARK    6  A    between atoms: C5_12  and  C7_14 
REMARK    7  A    between atoms: C6_13  and  C8_15 
REMARK    8  A    between atoms: C15_22  and  C22_29 
ROOT
HETATM    1  N1  UNK     1      31.789  -6.971  33.099  1.00  0.00     0.096 N 
HETATM    2  N2  UNK     1      31.231  -7.148  35.931  1.00  0.00     0.096 N 
HETATM    3  C1  UNK     1      30.525  -7.530  33.594  1.00  0.00     0.303 C 
HETATM    4  C2  UNK     1      32.312  -5.974  34.043  1.00  0.00     0.303 C 
HETATM    5  C3  UNK     1      30.707  -8.142  34.987  1.00  0.00     0.303 C 
HETATM    6  C4  UNK     1      32.494  -6.586  35.437  1.00  0.00     0.303 C 
ENDROOT
BRANCH   1   7
HETATM    7  C5  UNK     1      31.614  -6.385  31.772  1.00  0.00     0.312 C 
BRANCH   7   8
HETATM    8  C7  UNK     1      32.093  -7.292  30.691  1.00  0.00    -0.011 A 
HETATM    9  C10 UNK     1      33.398  -7.415  30.417  1.00  0.00     0.092 A 
HETATM   10  C16 UNK     1      33.918  -8.299  29.359  1.00  0.00     0.288 A 
HETATM   11  O1  UNK     1      32.982  -9.020  28.634  1.00  0.00    -0.275 OA
HETATM   12  O4  UNK     1      35.120  -8.386  29.136  1.00  0.00    -0.260 OA
HETATM   13  C13 UNK     1      31.601  -8.911  28.899  1.00  0.00     0.090 A 
HETATM   14  C9  UNK     1      31.124  -8.070  29.905  1.00  0.00     0.009 A 
HETATM   15  C18 UNK     1      30.751  -9.682  28.106  1.00  0.00     0.041 A 
HETATM   16  C14 UNK     1      29.738  -8.016  30.104  1.00  0.00     0.051 A 
HETATM   17  C19 UNK     1      28.872  -8.784  29.317  1.00  0.00     0.069 A 
HETATM   18  C21 UNK     1      29.378  -9.616  28.320  1.00  0.00     0.039 A 
BRANCH  17  19
HETATM   19  O3  UNK     1      27.529  -8.718  29.527  1.00  0.00    -0.351 OA
BRANCH  19  20
HETATM   20  C24 UNK     1      27.084  -7.958  30.649  1.00  0.00     0.171 C 
HETATM   21  C25 UNK     1      26.279  -6.775  30.155  1.00  0.00     0.034 C 
ENDBRANCH  19  20
ENDBRANCH  17  19
ENDBRANCH   7   8
ENDBRANCH   1   7
BRANCH   2  22
HETATM   22  C6  UNK     1      31.407  -7.734  37.258  1.00  0.00     0.314 C 
BRANCH  22  23
HETATM   23  C8  UNK     1      30.138  -7.683  38.066  1.00  0.00     0.004 A 
HETATM   24  C11 UNK     1      29.718  -6.492  38.658  1.00  0.00     0.076 A 
HETATM   25  C17 UNK     1      28.538  -6.462  39.402  1.00  0.00     0.038 A 
HETATM   26  C20 UNK     1      27.779  -7.621  39.554  1.00  0.00     0.017 A 
HETATM   27  C15 UNK     1      28.200  -8.813  38.963  1.00  0.00     0.002 A 
HETATM   28  C12 UNK     1      29.379  -8.843  38.218  1.00  0.00     0.026 A 
BRANCH  24  29
HETATM   29  O2  UNK     1      30.447  -5.350  38.518  1.00  0.00    -0.355 OA
HETATM   30  C23 UNK     1      29.841  -4.279  37.796  1.00  0.00     0.210 C 
ENDBRANCH  24  29
BRANCH  27  31
HETATM   31  C22 UNK     1      27.409 -10.022  39.123  1.00  0.00     0.269 C 
HETATM   32  O5  UNK     1      26.743 -10.262  40.135  1.00  0.00    -0.301 OA
ENDBRANCH  27  31
ENDBRANCH  22  23
ENDBRANCH   2  22
TORSDOF 8
ENDMDL
MODEL 7
REMARK VINA RESULT:      -8.1     23.851     25.967
REMARK  8 active torsions:
REMARK  status: ('A' for Active; 'I' for Inactive)
REMARK    1  A    between atoms: C11_18  and  O2_2 
REMARK    2  A    between atoms: C19_26  and  O3_3 
REMARK    3  A    between atoms: C24_31  and  O3_3 
REMARK    4  A    between atoms: C5_12  and  N1_6 
REMARK    5  A    between atoms: C6_13  and  N2_7 
REMARK    6  A    between atoms: C5_12  and  C7_14 
REMARK    7  A    between atoms: C6_13  and  C8_15 
REMARK    8  A    between atoms: C15_22  and  C22_29 
ROOT
HETATM    1  N1  UNK     1      11.870   6.261   7.423  1.00  0.00     0.096 N 
HETATM    2  N2  UNK     1       9.079   6.202   8.175  1.00  0.00     0.096 N 
HETATM    3  C1  UNK     1      10.830   6.787   6.532  1.00  0.00     0.303 C 
HETATM    4  C2  UNK     1      11.455   6.389   8.827  1.00  0.00     0.303 C 
HETATM    5  C3  UNK     1       9.494   6.075   6.773  1.00  0.00     0.303 C 
HETATM    6  C4  UNK     1      10.119   5.678   9.068  1.00  0.00     0.303 C 
ENDROOT
BRANCH   1   7
HETATM    7  C5  UNK     1      13.143   6.941   7.195  1.00  0.00     0.312 C 
BRANCH   7   8
HETATM    8  C7  UNK     1      14.128   6.668   8.280  1.00  0.00    -0.011 A 
HETATM    9  C10 UNK     1      14.559   5.423   8.527  1.00  0.00     0.092 A 
HETATM   10  C16 UNK     1      15.530   5.105   9.586  1.00  0.00     0.288 A 
HETATM   11  O1  UNK     1      15.998   6.168  10.343  1.00  0.00    -0.275 OA
HETATM   12  O4  UNK     1      15.902   3.953   9.783  1.00  0.00    -0.260 OA
HETATM   13  C13 UNK     1      15.563   7.488  10.108  1.00  0.00     0.090 A 
HETATM   14  C9  UNK     1      14.641   7.774   9.100  1.00  0.00     0.009 A 
HETATM   15  C18 UNK     1      16.099   8.478  10.932  1.00  0.00     0.041 A 
HETATM   16  C14 UNK     1      14.258   9.112   8.930  1.00  0.00     0.051 A 
HETATM   17  C19 UNK     1      14.787  10.116   9.749  1.00  0.00     0.069 A 
HETATM   18  C21 UNK     1      15.706   9.799  10.748  1.00  0.00     0.039 A 
BRANCH  17  19
HETATM   19  O3  UNK     1      14.402  11.409   9.568  1.00  0.00    -0.351 OA
BRANCH  19  20
HETATM   20  C24 UNK     1      15.392  12.321   9.094  1.00  0.00     0.171 C 
HETATM   21  C25 UNK     1      15.673  12.027   7.636  1.00  0.00     0.034 C 
ENDBRANCH  19  20
ENDBRANCH  17  19
ENDBRANCH   7   8
ENDBRANCH   1   7
BRANCH   2  22
HETATM   22  C6  UNK     1       7.806   5.520   8.403  1.00  0.00     0.314 C 
BRANCH  22  23
HETATM   23  C8  UNK     1       7.221   5.861   9.747  1.00  0.00     0.004 A 
HETATM   24  C11 UNK     1       6.819   4.855  10.626  1.00  0.00     0.076 A 
HETATM   25  C17 UNK     1       6.281   5.188  11.869  1.00  0.00     0.038 A 
HETATM   26  C20 UNK     1       6.144   6.527  12.233  1.00  0.00     0.017 A 
HETATM   27  C15 UNK     1       6.545   7.534  11.354  1.00  0.00     0.002 A 
HETATM   28  C12 UNK     1       7.084   7.200  10.112  1.00  0.00     0.026 A 
BRANCH  24  29
HETATM   29  O2  UNK     1       6.948   3.542  10.285  1.00  0.00    -0.355 OA
HETATM   30  C23 UNK     1       5.881   2.670  10.656  1.00  0.00     0.210 C 
ENDBRANCH  24  29
BRANCH  27  31
HETATM   31  C22 UNK     1       6.400   8.929  11.735  1.00  0.00     0.269 C 
HETATM   32  O5  UNK     1       7.208   9.803  11.408  1.00  0.00    -0.301 OA
ENDBRANCH  27  31
ENDBRANCH  22  23
ENDBRANCH   2  22
TORSDOF 8
ENDMDL
MODEL 8
REMARK VINA RESULT:      -8.0      3.319     10.024
REMARK  8 active torsions:
REMARK  status: ('A' for Active; 'I' for Inactive)
REMARK    1  A    between atoms: C11_18  and  O2_2 
REMARK    2  A    between atoms: C19_26  and  O3_3 
REMARK    3  A    between atoms: C24_31  and  O3_3 
REMARK    4  A    between atoms: C5_12  and  N1_6 
REMARK    5  A    between atoms: C6_13  and  N2_7 
REMARK    6  A    between atoms: C5_12  and  C7_14 
REMARK    7  A    between atoms: C6_13  and  C8_15 
REMARK    8  A    between atoms: C15_22  and  C22_29 
ROOT
HETATM    1  N1  UNK     1      18.875  -0.877  35.177  1.00  0.00     0.096 N 
HETATM    2  N2  UNK     1      19.659  -3.268  36.602  1.00  0.00     0.096 N 
HETATM    3  C1  UNK     1      19.580  -1.972  34.500  1.00  0.00     0.303 C 
HETATM    4  C2  UNK     1      18.073  -1.397  36.293  1.00  0.00     0.303 C 
HETATM    5  C3  UNK     1      20.459  -2.748  35.487  1.00  0.00     0.303 C 
HETATM    6  C4  UNK     1      18.952  -2.175  37.280  1.00  0.00     0.303 C 
ENDROOT
BRANCH   1   7
HETATM    7  C5  UNK     1      18.036  -0.138  34.237  1.00  0.00     0.312 C 
BRANCH   7   8
HETATM    8  C7  UNK     1      18.614  -0.119  32.864  1.00  0.00    -0.011 A 
HETATM    9  C10 UNK     1      19.128  -1.227  32.313  1.00  0.00     0.092 A 
HETATM   10  C16 UNK     1      19.710  -1.256  30.960  1.00  0.00     0.288 A 
HETATM   11  O1  UNK     1      19.707  -0.063  30.255  1.00  0.00    -0.275 OA
HETATM   12  O4  UNK     1      20.172  -2.290  30.489  1.00  0.00    -0.260 OA
HETATM   13  C13 UNK     1      19.174   1.119  30.808  1.00  0.00     0.090 A 
HETATM   14  C9  UNK     1      18.626   1.131  32.091  1.00  0.00     0.009 A 
HETATM   15  C18 UNK     1      19.226   2.261  30.008  1.00  0.00     0.041 A 
HETATM   16  C14 UNK     1      18.117   2.347  32.569  1.00  0.00     0.051 A 
HETATM   17  C19 UNK     1      18.163   3.501  31.779  1.00  0.00     0.069 A 
HETATM   18  C21 UNK     1      18.716   3.458  30.500  1.00  0.00     0.039 A 
BRANCH  17  19
HETATM   19  O3  UNK     1      17.663   4.672  32.262  1.00  0.00    -0.351 OA
BRANCH  19  20
HETATM   20  C24 UNK     1      18.192   5.141  33.500  1.00  0.00     0.171 C 
HETATM   21  C25 UNK     1      19.365   6.057  33.220  1.00  0.00     0.034 C 
ENDBRANCH  19  20
ENDBRANCH  17  19
ENDBRANCH   7   8
ENDBRANCH   1   7
BRANCH   2  22
HETATM   22  C6  UNK     1      20.499  -4.005  37.544  1.00  0.00     0.314 C 
BRANCH  22  23
HETATM   23  C8  UNK     1      20.449  -5.489  37.297  1.00  0.00     0.004 A 
HETATM   24  C11 UNK     1      21.520  -6.308  37.655  1.00  0.00     0.076 A 
HETATM   25  C17 UNK     1      21.457  -7.681  37.421  1.00  0.00     0.038 A 
HETATM   26  C20 UNK     1      20.324  -8.236  36.828  1.00  0.00     0.017 A 
HETATM   27  C15 UNK     1      19.253  -7.418  36.469  1.00  0.00     0.002 A 
HETATM   28  C12 UNK     1      19.315  -6.045  36.704  1.00  0.00     0.026 A 
BRANCH  24  29
HETATM   29  O2  UNK     1      22.634  -5.781  38.236  1.00  0.00    -0.355 OA
HETATM   30  C23 UNK     1      23.251  -6.549  39.268  1.00  0.00     0.210 C 
ENDBRANCH  24  29
BRANCH  27  31
HETATM   31  C22 UNK     1      18.072  -7.998  35.849  1.00  0.00     0.269 C 
HETATM   32  O5  UNK     1      17.465  -7.457  34.920  1.00  0.00    -0.301 OA
ENDBRANCH  27  31
ENDBRANCH  22  23
ENDBRANCH   2  22
TORSDOF 8
ENDMDL
MODEL 9
REMARK VINA RESULT:      -8.0     13.696     16.816
REMARK  8 active torsions:
REMARK  status: ('A' for Active; 'I' for Inactive)
REMARK    1  A    between atoms: C11_18  and  O2_2 
REMARK    2  A    between atoms: C19_26  and  O3_3 
REMARK    3  A    between atoms: C24_31  and  O3_3 
REMARK    4  A    between atoms: C5_12  and  N1_6 
REMARK    5  A    between atoms: C6_13  and  N2_7 
REMARK    6  A    between atoms: C5_12  and  C7_14 
REMARK    7  A    between atoms: C6_13  and  C8_15 
REMARK    8  A    between atoms: C15_22  and  C22_29 
ROOT
HETATM    1  N1  UNK     1      31.581 -10.063  34.243  1.00  0.00     0.096 N 
HETATM    2  N2  UNK     1      31.094  -8.496  36.624  1.00  0.00     0.096 N 
HETATM    3  C1  UNK     1      31.152 -10.694  35.497  1.00  0.00     0.303 C 
HETATM    4  C2  UNK     1      31.068  -8.689  34.160  1.00  0.00     0.303 C 
HETATM    5  C3  UNK     1      31.606  -9.869  36.706  1.00  0.00     0.303 C 
HETATM    6  C4  UNK     1      31.520  -7.864  35.370  1.00  0.00     0.303 C 
ENDROOT
BRANCH   1   7
HETATM    7  C5  UNK     1      31.147 -10.848  33.090  1.00  0.00     0.312 C 
BRANCH   7   8
HETATM    8  C7  UNK     1      31.898 -10.492  31.854  1.00  0.00    -0.011 A 
HETATM    9  C10 UNK     1      33.224 -10.671  31.772  1.00  0.00     0.092 A 
HETATM   10  C16 UNK     1      34.008 -10.334  30.572  1.00  0.00     0.288 A 
HETATM   11  O1  UNK     1      33.308  -9.810  29.497  1.00  0.00    -0.275 OA
HETATM   12  O4  UNK     1      35.221 -10.513  30.534  1.00  0.00    -0.260 OA
HETATM   13  C13 UNK     1      31.914  -9.609  29.553  1.00  0.00     0.090 A 
HETATM   14  C9  UNK     1      31.184  -9.933  30.698  1.00  0.00     0.009 A 
HETATM   15  C18 UNK     1      31.314  -9.073  28.413  1.00  0.00     0.041 A 
HETATM   16  C14 UNK     1      29.801  -9.701  30.674  1.00  0.00     0.051 A 
HETATM   17  C19 UNK     1      29.185  -9.164  29.538  1.00  0.00     0.069 A 
HETATM   18  C21 UNK     1      29.941  -8.851  28.409  1.00  0.00     0.039 A 
BRANCH  17  19
HETATM   19  O3  UNK     1      27.842  -8.947  29.535  1.00  0.00    -0.351 OA
BRANCH  19  20
HETATM   20  C24 UNK     1      27.306  -8.179  30.611  1.00  0.00     0.171 C 
HETATM   21  C25 UNK     1      27.249  -6.724  30.198  1.00  0.00     0.034 C 
ENDBRANCH  19  20
ENDBRANCH  17  19
ENDBRANCH   7   8
ENDBRANCH   1   7
BRANCH   2  22
HETATM   22  C6  UNK     1      31.530  -7.710  37.777  1.00  0.00     0.314 C 
BRANCH  22  23
HETATM   23  C8  UNK     1      30.607  -6.552  38.046  1.00  0.00     0.004 A 
HETATM   24  C11 UNK     1      31.098  -5.247  38.098  1.00  0.00     0.076 A 
HETATM   25  C17 UNK     1      30.229  -4.184  38.346  1.00  0.00     0.038 A 
HETATM   26  C20 UNK     1      28.870  -4.426  38.543  1.00  0.00     0.017 A 
HETATM   27  C15 UNK     1      28.379  -5.731  38.492  1.00  0.00     0.002 A 
HETATM   28  C12 UNK     1      29.247  -6.793  38.243  1.00  0.00     0.026 A 
BRANCH  24  29
HETATM   29  O2  UNK     1      32.423  -4.994  37.906  1.00  0.00    -0.355 OA
HETATM   30  C23 UNK     1      32.812  -4.518  36.619  1.00  0.00     0.210 C 
ENDBRANCH  24  29
BRANCH  27  31
HETATM   31  C22 UNK     1      26.962  -5.982  38.699  1.00  0.00     0.269 C 
HETATM   32  O5  UNK     1      26.128  -5.079  38.816  1.00  0.00    -0.301 OA
ENDBRANCH  27  31
ENDBRANCH  22  23
ENDBRANCH   2  22
TORSDOF 8
ENDMDL
MODEL 10
REMARK VINA RESULT:      -8.0     14.783     17.406
REMARK  8 active torsions:
REMARK  status: ('A' for Active; 'I' for Inactive)
REMARK    1  A    between atoms: C11_18  and  O2_2 
REMARK    2  A    between atoms: C19_26  and  O3_3 
REMARK    3  A    between atoms: C24_31  and  O3_3 
REMARK    4  A    between atoms: C5_12  and  N1_6 
REMARK    5  A    between atoms: C6_13  and  N2_7 
REMARK    6  A    between atoms: C5_12  and  C7_14 
REMARK    7  A    between atoms: C6_13  and  C8_15 
REMARK    8  A    between atoms: C15_22  and  C22_29 
ROOT
HETATM    1  N1  UNK     1      30.472  -9.800  35.959  1.00  0.00     0.096 N 
HETATM    2  N2  UNK     1      30.755  -9.961  33.086  1.00  0.00     0.096 N 
HETATM    3  C1  UNK     1      31.442 -10.710  35.338  1.00  0.00     0.303 C 
HETATM    4  C2  UNK     1      30.251  -8.626  35.103  1.00  0.00     0.303 C 
HETATM    5  C3  UNK     1      30.976 -11.133  33.941  1.00  0.00     0.303 C 
HETATM    6  C4  UNK     1      29.786  -9.049  33.706  1.00  0.00     0.303 C 
ENDROOT
BRANCH   1   7
HETATM    7  C5  UNK     1      30.917  -9.394  37.290  1.00  0.00     0.312 C 
BRANCH   7   8
HETATM    8  C7  UNK     1      29.864  -8.644  38.030  1.00  0.00    -0.011 A 
HETATM    9  C10 UNK     1      28.771  -9.262  38.496  1.00  0.00     0.092 A 
HETATM   10  C16 UNK     1      27.704  -8.563  39.232  1.00  0.00     0.288 A 
HETATM   11  O1  UNK     1      27.874  -7.202  39.432  1.00  0.00    -0.275 OA
HETATM   12  O4  UNK     1      26.717  -9.163  39.644  1.00  0.00    -0.260 OA
HETATM   13  C13 UNK     1      29.013  -6.523  38.953  1.00  0.00     0.090 A 
HETATM   14  C9  UNK     1      30.015  -7.200  38.257  1.00  0.00     0.009 A 
HETATM   15  C18 UNK     1      29.077  -5.153  39.211  1.00  0.00     0.041 A 
HETATM   16  C14 UNK     1      31.115  -6.453  37.812  1.00  0.00     0.051 A 
HETATM   17  C19 UNK     1      31.194  -5.078  38.063  1.00  0.00     0.069 A 
HETATM   18  C21 UNK     1      30.177  -4.430  38.762  1.00  0.00     0.039 A 
BRANCH  17  19
HETATM   19  O3  UNK     1      32.271  -4.371  37.623  1.00  0.00    -0.351 OA
BRANCH  19  20
HETATM   20  C24 UNK     1      32.130  -3.678  36.384  1.00  0.00     0.171 C 
HETATM   21  C25 UNK     1      33.024  -4.330  35.351  1.00  0.00     0.034 C 
ENDBRANCH  19  20
ENDBRANCH  17  19
ENDBRANCH   7   8
ENDBRANCH   1   7
BRANCH   2  22
HETATM   22  C6  UNK     1      30.307 -10.367  31.754  1.00  0.00     0.314 C 
BRANCH  22  23
HETATM   23  C8  UNK     1      30.589  -9.309  30.722  1.00  0.00     0.004 A 
HETATM   24  C11 UNK     1      29.551  -8.739  29.984  1.00  0.00     0.076 A 
HETATM   25  C17 UNK     1      29.829  -7.757  29.033  1.00  0.00     0.038 A 
HETATM   26  C20 UNK     1      31.144  -7.346  28.819  1.00  0.00     0.017 A 
HETATM   27  C15 UNK     1      32.182  -7.916  29.556  1.00  0.00     0.002 A 
HETATM   28  C12 UNK     1      31.905  -8.897  30.508  1.00  0.00     0.026 A 
BRANCH  24  29
HETATM   29  O2  UNK     1      28.261  -9.129  30.182  1.00  0.00    -0.355 OA
HETATM   30  C23 UNK     1      27.327  -8.114  30.548  1.00  0.00     0.210 C 
ENDBRANCH  24  29
BRANCH  27  31
HETATM   31  C22 UNK     1      33.553  -7.487  29.331  1.00  0.00     0.269 C 
HETATM   32  O5  UNK     1      34.364  -8.143  28.669  1.00  0.00    -0.301 OA
ENDBRANCH  27  31
ENDBRANCH  22  23
ENDBRANCH   2  22
TORSDOF 8
ENDMDL
