MODEL 1
REMARK VINA RESULT:      -7.0      0.000      0.000
REMARK  5 active torsions:
REMARK  status: ('A' for Active; 'I' for Inactive)
REMARK    1  A    between atoms: C7_11  and  O2_2 
REMARK    2  A    between atoms: C1_5  and  N1_4 
REMARK    3  A    between atoms: C4_8  and  N1_4 
REMARK    4  A    between atoms: C5_9  and  N1_4 
REMARK    5  A    between atoms: C1_5  and  C2_6 
ROOT
HETATM    1  O1  UNK     1      17.445  -0.387  33.884  1.00  0.00    -0.274 OA
HETATM    2  O3  UNK     1      15.572   0.817  34.401  1.00  0.00    -0.260 OA
HETATM    3  C2  UNK     1      19.400  -1.644  33.340  1.00  0.00     0.038 A 
HETATM    4  C3  UNK     1      18.544  -1.152  34.327  1.00  0.00     0.101 A 
HETATM    5  C6  UNK     1      18.752  -1.396  35.684  1.00  0.00     0.005 A 
HETATM    6  C7  UNK     1      20.501  -2.406  33.716  1.00  0.00     0.076 A 
HETATM    7  C8  UNK     1      17.800  -0.837  36.655  1.00  0.00    -0.043 A 
HETATM    8  C9  UNK     1      19.867  -2.165  36.043  1.00  0.00     0.017 A 
HETATM    9  C10 UNK     1      20.735  -2.666  35.065  1.00  0.00     0.038 A 
HETATM   10  C13 UNK     1      16.765  -0.115  36.205  1.00  0.00     0.090 A 
HETATM   11  C14 UNK     1      17.997  -1.082  38.122  1.00  0.00     0.049 C 
HETATM   12  C15 UNK     1      16.531   0.151  34.775  1.00  0.00     0.288 A 
ENDROOT
BRANCH   3  13
HETATM   13  C1  UNK     1      19.141  -1.361  31.896  1.00  0.00     0.316 C 
BRANCH  13  14
HETATM   14  N1  UNK     1      19.907  -0.213  31.409  1.00  0.00     0.092 N 
BRANCH  14  15
HETATM   15  C4  UNK     1      19.024   0.931  31.187  1.00  0.00     0.268 C 
HETATM   16  C11 UNK     1      19.051   1.371  29.732  1.00  0.00     0.037 C 
ENDBRANCH  14  15
BRANCH  14  17
HETATM   17  C5  UNK     1      20.618  -0.558  30.180  1.00  0.00     0.268 C 
HETATM   18  C12 UNK     1      20.324  -1.987  29.757  1.00  0.00     0.037 C 
ENDBRANCH  14  17
ENDBRANCH  13  14
ENDBRANCH   3  13
BRANCH   6  19
HETATM   19  O2  UNK     1      21.359  -2.905  32.783  1.00  0.00    -0.360 OA
HETATM   20  H19 UNK     1      21.204  -2.452  31.936  1.00  0.00     0.217 HD
ENDBRANCH   6  19
TORSDOF 5
ENDMDL
MODEL 2
REMARK VINA RESULT:      -6.9      2.130      5.240
REMARK  5 active torsions:
REMARK  status: ('A' for Active; 'I' for Inactive)
REMARK    1  A    between atoms: C7_11  and  O2_2 
REMARK    2  A    between atoms: C1_5  and  N1_4 
REMARK    3  A    between atoms: C4_8  and  N1_4 
REMARK    4  A    between atoms: C5_9  and  N1_4 
REMARK    5  A    between atoms: C1_5  and  C2_6 
ROOT
HETATM    1  O1  UNK     1      18.319   0.799  32.061  1.00  0.00    -0.274 OA
HETATM    2  O3  UNK     1      17.694   2.516  30.688  1.00  0.00    -0.260 OA
HETATM    3  C2  UNK     1      18.969  -0.993  33.498  1.00  0.00     0.038 A 
HETATM    4  C3  UNK     1      19.109  -0.351  32.266  1.00  0.00     0.101 A 
HETATM    5  C6  UNK     1      19.981  -0.811  31.279  1.00  0.00     0.005 A 
HETATM    6  C7  UNK     1      19.723  -2.133  33.757  1.00  0.00     0.076 A 
HETATM    7  C8  UNK     1      20.064  -0.073  30.011  1.00  0.00    -0.043 A 
HETATM    8  C9  UNK     1      20.731  -1.961  31.560  1.00  0.00     0.017 A 
HETATM    9  C10 UNK     1      20.602  -2.616  32.791  1.00  0.00     0.038 A 
HETATM   10  C13 UNK     1      19.301   1.017  29.845  1.00  0.00     0.090 A 
HETATM   11  C14 UNK     1      20.993  -0.544  28.931  1.00  0.00     0.049 C 
HETATM   12  C15 UNK     1      18.376   1.516  30.877  1.00  0.00     0.288 A 
ENDROOT
BRANCH   3  13
HETATM   13  C1  UNK     1      18.024  -0.467  34.529  1.00  0.00     0.316 C 
BRANCH  13  14
HETATM   14  N1  UNK     1      18.710   0.288  35.577  1.00  0.00     0.092 N 
BRANCH  14  15
HETATM   15  C4  UNK     1      18.247  -0.137  36.897  1.00  0.00     0.268 C 
HETATM   16  C11 UNK     1      16.826   0.335  37.159  1.00  0.00     0.037 C 
ENDBRANCH  14  15
BRANCH  14  17
HETATM   17  C5  UNK     1      18.495   1.723  35.396  1.00  0.00     0.268 C 
HETATM   18  C12 UNK     1      19.598   2.531  36.058  1.00  0.00     0.037 C 
ENDBRANCH  14  17
ENDBRANCH  13  14
ENDBRANCH   3  13
BRANCH   6  19
HETATM   19  O2  UNK     1      19.615  -2.786  34.947  1.00  0.00    -0.360 OA
HETATM   20  H19 UNK     1      19.350  -3.707  34.781  1.00  0.00     0.217 HD
ENDBRANCH   6  19
TORSDOF 5
ENDMDL
MODEL 3
REMARK VINA RESULT:      -6.7      2.502      4.199
REMARK  5 active torsions:
REMARK  status: ('A' for Active; 'I' for Inactive)
REMARK    1  A    between atoms: C7_11  and  O2_2 
REMARK    2  A    between atoms: C1_5  and  N1_4 
REMARK    3  A    between atoms: C4_8  and  N1_4 
REMARK    4  A    between atoms: C5_9  and  N1_4 
REMARK    5  A    between atoms: C1_5  and  C2_6 
ROOT
HETATM    1  O1  UNK     1      18.595   1.158  31.125  1.00  0.00    -0.274 OA
HETATM    2  O3  UNK     1      18.576   2.480  29.260  1.00  0.00    -0.260 OA
HETATM    3  C2  UNK     1      18.614  -0.226  33.069  1.00  0.00     0.038 A 
HETATM    4  C3  UNK     1      18.510   1.057  32.528  1.00  0.00     0.101 A 
HETATM    5  C6  UNK     1      18.332   2.190  33.323  1.00  0.00     0.005 A 
HETATM    6  C7  UNK     1      18.538  -0.388  34.449  1.00  0.00     0.076 A 
HETATM    7  C8  UNK     1      18.233   3.501  32.668  1.00  0.00    -0.043 A 
HETATM    8  C9  UNK     1      18.258   2.005  34.710  1.00  0.00     0.017 A 
HETATM    9  C10 UNK     1      18.360   0.725  35.267  1.00  0.00     0.038 A 
HETATM   10  C13 UNK     1      18.316   3.566  31.332  1.00  0.00     0.090 A 
HETATM   11  C14 UNK     1      18.041   4.738  33.496  1.00  0.00     0.049 C 
HETATM   12  C15 UNK     1      18.503   2.381  30.479  1.00  0.00     0.288 A 
ENDROOT
BRANCH   3  13
HETATM   13  C1  UNK     1      18.804  -1.414  32.183  1.00  0.00     0.316 C 
BRANCH  13  14
HETATM   14  N1  UNK     1      20.180  -1.530  31.698  1.00  0.00     0.092 N 
BRANCH  14  15
HETATM   15  C4  UNK     1      20.193  -1.955  30.299  1.00  0.00     0.268 C 
HETATM   16  C11 UNK     1      20.679  -0.838  29.390  1.00  0.00     0.037 C 
ENDBRANCH  14  15
BRANCH  14  17
HETATM   17  C5  UNK     1      20.935  -2.469  32.525  1.00  0.00     0.268 C 
HETATM   18  C12 UNK     1      21.251  -3.744  31.761  1.00  0.00     0.037 C 
ENDBRANCH  14  17
ENDBRANCH  13  14
ENDBRANCH   3  13
BRANCH   6  19
HETATM   19  O2  UNK     1      18.634  -1.624  35.014  1.00  0.00    -0.360 OA
HETATM   20  H19 UNK     1      19.362  -1.622  35.659  1.00  0.00     0.217 HD
ENDBRANCH   6  19
TORSDOF 5
ENDMDL
MODEL 4
REMARK VINA RESULT:      -6.6      6.670      8.321
REMARK  5 active torsions:
REMARK  status: ('A' for Active; 'I' for Inactive)
REMARK    1  A    between atoms: C7_11  and  O2_2 
REMARK    2  A    between atoms: C1_5  and  N1_4 
REMARK    3  A    between atoms: C4_8  and  N1_4 
REMARK    4  A    between atoms: C5_9  and  N1_4 
REMARK    5  A    between atoms: C1_5  and  C2_6 
ROOT
HETATM    1  O1  UNK     1      16.112   6.633  32.109  1.00  0.00    -0.274 OA
HETATM    2  O3  UNK     1      13.869   6.698  31.672  1.00  0.00    -0.260 OA
HETATM    3  C2  UNK     1      18.454   6.562  32.563  1.00  0.00     0.038 A 
HETATM    4  C3  UNK     1      17.222   7.180  32.785  1.00  0.00     0.101 A 
HETATM    5  C6  UNK     1      17.081   8.282  33.629  1.00  0.00     0.005 A 
HETATM    6  C7  UNK     1      19.586   7.058  33.204  1.00  0.00     0.076 A 
HETATM    7  C8  UNK     1      15.745   8.870  33.803  1.00  0.00    -0.043 A 
HETATM    8  C9  UNK     1      18.233   8.766  34.264  1.00  0.00     0.017 A 
HETATM    9  C10 UNK     1      19.475   8.157  34.052  1.00  0.00     0.038 A 
HETATM   10  C13 UNK     1      14.709   8.328  33.149  1.00  0.00     0.090 A 
HETATM   11  C14 UNK     1      15.562  10.056  34.704  1.00  0.00     0.049 C 
HETATM   12  C15 UNK     1      14.841   7.165  32.255  1.00  0.00     0.288 A 
ENDROOT
BRANCH   3  13
HETATM   13  C1  UNK     1      18.563   5.383  31.652  1.00  0.00     0.316 C 
BRANCH  13  14
HETATM   14  N1  UNK     1      17.918   4.192  32.206  1.00  0.00     0.092 N 
BRANCH  14  15
HETATM   15  C4  UNK     1      18.307   4.005  33.603  1.00  0.00     0.268 C 
HETATM   16  C11 UNK     1      18.200   2.545  34.012  1.00  0.00     0.037 C 
ENDBRANCH  14  15
BRANCH  14  17
HETATM   17  C5  UNK     1      18.263   3.011  31.416  1.00  0.00     0.268 C 
HETATM   18  C12 UNK     1      18.710   3.398  30.016  1.00  0.00     0.037 C 
ENDBRANCH  14  17
ENDBRANCH  13  14
ENDBRANCH   3  13
BRANCH   6  19
HETATM   19  O2  UNK     1      20.805   6.481  33.013  1.00  0.00    -0.360 OA
HETATM   20  H19 UNK     1      21.435   6.852  33.655  1.00  0.00     0.217 HD
ENDBRANCH   6  19
TORSDOF 5
ENDMDL
MODEL 5
REMARK VINA RESULT:      -6.6      3.065      5.457
REMARK  5 active torsions:
REMARK  status: ('A' for Active; 'I' for Inactive)
REMARK    1  A    between atoms: C7_11  and  O2_2 
REMARK    2  A    between atoms: C1_5  and  N1_4 
REMARK    3  A    between atoms: C4_8  and  N1_4 
REMARK    4  A    between atoms: C5_9  and  N1_4 
REMARK    5  A    between atoms: C1_5  and  C2_6 
ROOT
HETATM    1  O1  UNK     1      18.290   1.135  32.932  1.00  0.00    -0.274 OA
HETATM    2  O3  UNK     1      18.173   0.190  35.011  1.00  0.00    -0.260 OA
HETATM    3  C2  UNK     1      18.410   2.124  30.763  1.00  0.00     0.038 A 
HETATM    4  C3  UNK     1      18.693   1.031  31.585  1.00  0.00     0.101 A 
HETATM    5  C6  UNK     1      19.341  -0.110  31.112  1.00  0.00     0.005 A 
HETATM    6  C7  UNK     1      18.784   2.079  29.424  1.00  0.00     0.076 A 
HETATM    7  C8  UNK     1      19.599  -1.213  32.048  1.00  0.00    -0.043 A 
HETATM    8  C9  UNK     1      19.709  -0.135  29.760  1.00  0.00     0.017 A 
HETATM    9  C10 UNK     1      19.432   0.952  28.923  1.00  0.00     0.038 A 
HETATM   10  C13 UNK     1      19.204  -1.087  33.323  1.00  0.00     0.090 A 
HETATM   11  C14 UNK     1      20.293  -2.454  31.569  1.00  0.00     0.049 C 
HETATM   12  C15 UNK     1      18.519   0.111  33.837  1.00  0.00     0.288 A 
ENDROOT
BRANCH   3  13
HETATM   13  C1  UNK     1      17.714   3.328  31.308  1.00  0.00     0.316 C 
BRANCH  13  14
HETATM   14  N1  UNK     1      18.651   4.311  31.855  1.00  0.00     0.092 N 
BRANCH  14  15
HETATM   15  C4  UNK     1      18.305   4.630  33.239  1.00  0.00     0.268 C 
HETATM   16  C11 UNK     1      17.539   5.940  33.325  1.00  0.00     0.037 C 
ENDBRANCH  14  15
BRANCH  14  17
HETATM   17  C5  UNK     1      18.655   5.522  31.035  1.00  0.00     0.268 C 
HETATM   18  C12 UNK     1      20.013   5.744  30.390  1.00  0.00     0.037 C 
ENDBRANCH  14  17
ENDBRANCH  13  14
ENDBRANCH   3  13
BRANCH   6  19
HETATM   19  O2  UNK     1      18.524   3.125  28.590  1.00  0.00    -0.360 OA
HETATM   20  H19 UNK     1      17.799   2.880  27.990  1.00  0.00     0.217 HD
ENDBRANCH   6  19
TORSDOF 5
ENDMDL
MODEL 6
REMARK VINA RESULT:      -6.5      3.348      6.332
REMARK  5 active torsions:
REMARK  status: ('A' for Active; 'I' for Inactive)
REMARK    1  A    between atoms: C7_11  and  O2_2 
REMARK    2  A    between atoms: C1_5  and  N1_4 
REMARK    3  A    between atoms: C4_8  and  N1_4 
REMARK    4  A    between atoms: C5_9  and  N1_4 
REMARK    5  A    between atoms: C1_5  and  C2_6 
ROOT
HETATM    1  O1  UNK     1      17.806   4.200  33.498  1.00  0.00    -0.274 OA
HETATM    2  O3  UNK     1      17.455   6.313  34.300  1.00  0.00    -0.260 OA
HETATM    3  C2  UNK     1      18.171   1.994  32.665  1.00  0.00     0.038 A 
HETATM    4  C3  UNK     1      18.229   3.370  32.440  1.00  0.00     0.101 A 
HETATM    5  C6  UNK     1      18.681   3.912  31.236  1.00  0.00     0.005 A 
HETATM    6  C7  UNK     1      18.576   1.125  31.657  1.00  0.00     0.076 A 
HETATM    7  C8  UNK     1      18.708   5.373  31.086  1.00  0.00    -0.043 A 
HETATM    8  C9  UNK     1      19.084   3.019  30.234  1.00  0.00     0.017 A 
HETATM    9  C10 UNK     1      19.032   1.636  30.444  1.00  0.00     0.038 A 
HETATM   10  C13 UNK     1      18.300   6.137  32.109  1.00  0.00     0.090 A 
HETATM   11  C14 UNK     1      19.189   5.985  29.803  1.00  0.00     0.049 C 
HETATM   12  C15 UNK     1      17.821   5.581  33.386  1.00  0.00     0.288 A 
ENDROOT
BRANCH   3  13
HETATM   13  C1  UNK     1      17.682   1.454  33.969  1.00  0.00     0.316 C 
BRANCH  13  14
HETATM   14  N1  UNK     1      18.773   0.964  34.812  1.00  0.00     0.092 N 
BRANCH  14  15
HETATM   15  C4  UNK     1      18.441  -0.348  35.364  1.00  0.00     0.268 C 
HETATM   16  C11 UNK     1      17.065  -0.805  34.906  1.00  0.00     0.037 C 
ENDBRANCH  14  15
BRANCH  14  17
HETATM   17  C5  UNK     1      19.055   1.915  35.886  1.00  0.00     0.268 C 
HETATM   18  C12 UNK     1      18.054   1.776  37.020  1.00  0.00     0.037 C 
ENDBRANCH  14  17
ENDBRANCH  13  14
ENDBRANCH   3  13
BRANCH   6  19
HETATM   19  O2  UNK     1      18.535  -0.224  31.839  1.00  0.00    -0.360 OA
HETATM   20  H19 UNK     1      17.978  -0.621  31.147  1.00  0.00     0.217 HD
ENDBRANCH   6  19
TORSDOF 5
ENDMDL
MODEL 7
REMARK VINA RESULT:      -6.5     25.157     27.042
REMARK  5 active torsions:
REMARK  status: ('A' for Active; 'I' for Inactive)
REMARK    1  A    between atoms: C7_11  and  O2_2 
REMARK    2  A    between atoms: C1_5  and  N1_4 
REMARK    3  A    between atoms: C4_8  and  N1_4 
REMARK    4  A    between atoms: C5_9  and  N1_4 
REMARK    5  A    between atoms: C1_5  and  C2_6 
ROOT
HETATM    1  O1  UNK     1      13.992   8.646   8.410  1.00  0.00    -0.274 OA
HETATM    2  O3  UNK     1      14.795  10.787   8.415  1.00  0.00    -0.260 OA
HETATM    3  C2  UNK     1      13.151   6.413   8.402  1.00  0.00     0.038 A 
HETATM    4  C3  UNK     1      14.153   7.301   8.799  1.00  0.00     0.101 A 
HETATM    5  C6  UNK     1      15.260   6.893   9.543  1.00  0.00     0.005 A 
HETATM    6  C7  UNK     1      13.255   5.072   8.758  1.00  0.00     0.076 A 
HETATM    7  C8  UNK     1      16.266   7.896   9.917  1.00  0.00    -0.043 A 
HETATM    8  C9  UNK     1      15.346   5.538   9.891  1.00  0.00     0.017 A 
HETATM    9  C10 UNK     1      14.350   4.635   9.500  1.00  0.00     0.038 A 
HETATM   10  C13 UNK     1      16.087   9.168   9.533  1.00  0.00     0.090 A 
HETATM   11  C14 UNK     1      17.469   7.488  10.717  1.00  0.00     0.049 C 
HETATM   12  C15 UNK     1      14.924   9.615   8.749  1.00  0.00     0.288 A 
ENDROOT
BRANCH   3  13
HETATM   13  C1  UNK     1      11.980   6.890   7.607  1.00  0.00     0.316 C 
BRANCH  13  14
HETATM   14  N1  UNK     1      10.738   6.866   8.379  1.00  0.00     0.092 N 
BRANCH  14  15
HETATM   15  C4  UNK     1       9.609   6.518   7.518  1.00  0.00     0.268 C 
HETATM   16  C11 UNK     1      10.076   6.168   6.115  1.00  0.00     0.037 C 
ENDBRANCH  14  15
BRANCH  14  17
HETATM   17  C5  UNK     1      10.512   8.159   9.022  1.00  0.00     0.268 C 
HETATM   18  C12 UNK     1       9.055   8.328   9.420  1.00  0.00     0.037 C 
ENDBRANCH  14  17
ENDBRANCH  13  14
ENDBRANCH   3  13
BRANCH   6  19
HETATM   19  O2  UNK     1      12.298   4.175   8.390  1.00  0.00    -0.360 OA
HETATM   20  H19 UNK     1      11.488   4.656   8.149  1.00  0.00     0.217 HD
ENDBRANCH   6  19
TORSDOF 5
ENDMDL
MODEL 8
REMARK VINA RESULT:      -6.5      3.818      5.856
REMARK  5 active torsions:
REMARK  status: ('A' for Active; 'I' for Inactive)
REMARK    1  A    between atoms: C7_11  and  O2_2 
REMARK    2  A    between atoms: C1_5  and  N1_4 
REMARK    3  A    between atoms: C4_8  and  N1_4 
REMARK    4  A    between atoms: C5_9  and  N1_4 
REMARK    5  A    between atoms: C1_5  and  C2_6 
ROOT
HETATM    1  O1  UNK     1      18.016   2.607  33.448  1.00  0.00    -0.274 OA
HETATM    2  O3  UNK     1      17.721   1.825  35.576  1.00  0.00    -0.260 OA
HETATM    3  C2  UNK     1      18.322   3.426  31.228  1.00  0.00     0.038 A 
HETATM    4  C3  UNK     1      18.366   2.344  32.108  1.00  0.00     0.101 A 
HETATM    5  C6  UNK     1      18.735   1.062  31.697  1.00  0.00     0.005 A 
HETATM    6  C7  UNK     1      18.657   3.228  29.892  1.00  0.00     0.076 A 
HETATM    7  C8  UNK     1      18.753  -0.019  32.692  1.00  0.00    -0.043 A 
HETATM    8  C9  UNK     1      19.068   0.883  30.348  1.00  0.00     0.017 A 
HETATM    9  C10 UNK     1      19.029   1.959  29.453  1.00  0.00     0.038 A 
HETATM   10  C13 UNK     1      18.415   0.261  33.959  1.00  0.00     0.090 A 
HETATM   11  C14 UNK     1      19.145  -1.408  32.281  1.00  0.00     0.049 C 
HETATM   12  C15 UNK     1      18.023   1.607  34.408  1.00  0.00     0.288 A 
ENDROOT
BRANCH   3  13
HETATM   13  C1  UNK     1      17.922   4.784  31.707  1.00  0.00     0.316 C 
BRANCH  13  14
HETATM   14  N1  UNK     1      18.923   5.377  32.593  1.00  0.00     0.092 N 
BRANCH  14  15
HETATM   15  C4  UNK     1      18.303   6.364  33.475  1.00  0.00     0.268 C 
HETATM   16  C11 UNK     1      16.818   6.505  33.183  1.00  0.00     0.037 C 
ENDBRANCH  14  15
BRANCH  14  17
HETATM   17  C5  UNK     1      19.996   5.991  31.811  1.00  0.00     0.268 C 
HETATM   18  C12 UNK     1      21.118   6.483  32.709  1.00  0.00     0.037 C 
ENDBRANCH  14  17
ENDBRANCH  13  14
ENDBRANCH   3  13
BRANCH   6  19
HETATM   19  O2  UNK     1      18.626   4.259  29.003  1.00  0.00    -0.360 OA
HETATM   20  H19 UNK     1      17.715   4.372  28.679  1.00  0.00     0.217 HD
ENDBRANCH   6  19
TORSDOF 5
ENDMDL
MODEL 9
REMARK VINA RESULT:      -6.4     12.654     14.308
REMARK  5 active torsions:
REMARK  status: ('A' for Active; 'I' for Inactive)
REMARK    1  A    between atoms: C7_11  and  O2_2 
REMARK    2  A    between atoms: C1_5  and  N1_4 
REMARK    3  A    between atoms: C4_8  and  N1_4 
REMARK    4  A    between atoms: C5_9  and  N1_4 
REMARK    5  A    between atoms: C1_5  and  C2_6 
ROOT
HETATM    1  O1  UNK     1      30.484  -5.428  38.524  1.00  0.00    -0.274 OA
HETATM    2  O3  UNK     1      29.041  -3.943  39.495  1.00  0.00    -0.260 OA
HETATM    3  C2  UNK     1      31.992  -6.974  37.509  1.00  0.00     0.038 A 
HETATM    4  C3  UNK     1      30.752  -6.748  38.110  1.00  0.00     0.101 A 
HETATM    5  C6  UNK     1      29.817  -7.767  38.298  1.00  0.00     0.005 A 
HETATM    6  C7  UNK     1      32.313  -8.258  37.079  1.00  0.00     0.076 A 
HETATM    7  C8  UNK     1      28.537  -7.439  38.941  1.00  0.00    -0.043 A 
HETATM    8  C9  UNK     1      30.160  -9.053  37.859  1.00  0.00     0.017 A 
HETATM    9  C10 UNK     1      31.399  -9.295  37.254  1.00  0.00     0.038 A 
HETATM   10  C13 UNK     1      28.309  -6.175  39.323  1.00  0.00     0.090 A 
HETATM   11  C14 UNK     1      27.511  -8.513  39.157  1.00  0.00     0.049 C 
HETATM   12  C15 UNK     1      29.285  -5.088  39.131  1.00  0.00     0.288 A 
ENDROOT
BRANCH   3  13
HETATM   13  C1  UNK     1      32.965  -5.856  37.325  1.00  0.00     0.316 C 
BRANCH  13  14
HETATM   14  N1  UNK     1      33.077  -5.442  35.926  1.00  0.00     0.092 N 
BRANCH  14  15
HETATM   15  C4  UNK     1      34.398  -4.872  35.667  1.00  0.00     0.268 C 
HETATM   16  C11 UNK     1      35.495  -5.726  36.282  1.00  0.00     0.037 C 
ENDBRANCH  14  15
BRANCH  14  17
HETATM   17  C5  UNK     1      32.030  -4.477  35.594  1.00  0.00     0.268 C 
HETATM   18  C12 UNK     1      32.189  -3.196  36.394  1.00  0.00     0.037 C 
ENDBRANCH  14  17
ENDBRANCH  13  14
ENDBRANCH   3  13
BRANCH   6  19
HETATM   19  O2  UNK     1      33.512  -8.518  36.488  1.00  0.00    -0.360 OA
HETATM   20  H19 UNK     1      33.888  -9.327  36.875  1.00  0.00     0.217 HD
ENDBRANCH   6  19
TORSDOF 5
ENDMDL
MODEL 10
REMARK VINA RESULT:      -6.4      3.116      6.228
REMARK  5 active torsions:
REMARK  status: ('A' for Active; 'I' for Inactive)
REMARK    1  A    between atoms: C7_11  and  O2_2 
REMARK    2  A    between atoms: C1_5  and  N1_4 
REMARK    3  A    between atoms: C4_8  and  N1_4 
REMARK    4  A    between atoms: C5_9  and  N1_4 
REMARK    5  A    between atoms: C1_5  and  C2_6 
ROOT
HETATM    1  O1  UNK     1      18.001   1.890  30.989  1.00  0.00    -0.274 OA
HETATM    2  O3  UNK     1      17.947   1.418  28.753  1.00  0.00    -0.260 OA
HETATM    3  C2  UNK     1      18.056   2.380  33.324  1.00  0.00     0.038 A 
HETATM    4  C3  UNK     1      18.256   2.823  32.015  1.00  0.00     0.101 A 
HETATM    5  C6  UNK     1      18.685   4.118  31.723  1.00  0.00     0.005 A 
HETATM    6  C7  UNK     1      18.291   3.256  34.379  1.00  0.00     0.076 A 
HETATM    7  C8  UNK     1      18.869   4.498  30.315  1.00  0.00    -0.043 A 
HETATM    8  C9  UNK     1      18.916   4.984  32.799  1.00  0.00     0.017 A 
HETATM    9  C10 UNK     1      18.720   4.555  34.117  1.00  0.00     0.038 A 
HETATM   10  C13 UNK     1      18.618   3.591  29.361  1.00  0.00     0.090 A 
HETATM   11  C14 UNK     1      19.329   5.884  29.969  1.00  0.00     0.049 C 
HETATM   12  C15 UNK     1      18.165   2.220  29.653  1.00  0.00     0.288 A 
ENDROOT
BRANCH   3  13
HETATM   13  C1  UNK     1      17.595   0.985  33.596  1.00  0.00     0.316 C 
BRANCH  13  14
HETATM   14  N1  UNK     1      18.712   0.054  33.761  1.00  0.00     0.092 N 
BRANCH  14  15
HETATM   15  C4  UNK     1      18.589  -1.061  32.824  1.00  0.00     0.268 C 
HETATM   16  C11 UNK     1      19.640  -0.976  31.729  1.00  0.00     0.037 C 
ENDBRANCH  14  15
BRANCH  14  17
HETATM   17  C5  UNK     1      18.766  -0.437  35.137  1.00  0.00     0.268 C 
HETATM   18  C12 UNK     1      17.387  -0.837  35.633  1.00  0.00     0.037 C 
ENDBRANCH  14  17
ENDBRANCH  13  14
ENDBRANCH   3  13
BRANCH   6  19
HETATM   19  O2  UNK     1      18.107   2.862  35.670  1.00  0.00    -0.360 OA
HETATM   20  H19 UNK     1      18.736   2.149  35.876  1.00  0.00     0.217 HD
ENDBRANCH   6  19
TORSDOF 5
ENDMDL
