MODEL 1
REMARK VINA RESULT:      -7.1      0.000      0.000
REMARK  3 active torsions:
REMARK  status: ('A' for Active; 'I' for Inactive)
REMARK    1  A    between atoms: C11_15  and  O2_3 
REMARK    2  A    between atoms: C6_10  and  O2_3 
REMARK    3  A    between atoms: C11_15  and  C12_16 
ROOT
HETATM    1  I1  UNK     1      18.089   1.746  34.659  1.00  0.00    -0.039 I 
HETATM    2  O1  UNK     1      19.382  -0.506  32.850  1.00  0.00    -0.273 OA
HETATM    3  O3  UNK     1      20.221  -2.617  33.100  1.00  0.00    -0.260 OA
HETATM    4  C1  UNK     1      19.376   0.524  30.636  1.00  0.00     0.005 A 
HETATM    5  C2  UNK     1      19.090   0.580  32.000  1.00  0.00     0.109 A 
HETATM    6  C3  UNK     1      19.993  -0.695  30.095  1.00  0.00    -0.043 A 
HETATM    7  C4  UNK     1      19.055   1.645  29.857  1.00  0.00     0.017 A 
HETATM    8  C5  UNK     1      18.503   1.699  32.594  1.00  0.00     0.074 A 
HETATM    9  C6  UNK     1      18.193   2.801  31.805  1.00  0.00     0.088 A 
HETATM   10  C7  UNK     1      18.468   2.775  30.439  1.00  0.00     0.039 A 
HETATM   11  C8  UNK     1      20.260  -1.711  30.927  1.00  0.00     0.090 A 
HETATM   12  C9  UNK     1      20.314  -0.785  28.631  1.00  0.00     0.049 C 
HETATM   13  C10 UNK     1      19.963  -1.667  32.369  1.00  0.00     0.288 A 
ENDROOT
BRANCH   9  14
HETATM   14  O2  UNK     1      17.621   3.927  32.320  1.00  0.00    -0.346 OA
BRANCH  14  15
HETATM   15  C11 UNK     1      18.218   5.174  31.971  1.00  0.00     0.202 C 
BRANCH  15  16
HETATM   16  C12 UNK     1      19.008   5.669  33.136  1.00  0.00    -0.011 C 
HETATM   17  C13 UNK     1      20.127   6.394  33.027  1.00  0.00     0.009 C 
ENDBRANCH  15  16
ENDBRANCH  14  15
ENDBRANCH   9  14
TORSDOF 3
ENDMDL
MODEL 2
REMARK VINA RESULT:      -6.5      2.464      5.565
REMARK  3 active torsions:
REMARK  status: ('A' for Active; 'I' for Inactive)
REMARK    1  A    between atoms: C11_15  and  O2_3 
REMARK    2  A    between atoms: C6_10  and  O2_3 
REMARK    3  A    between atoms: C11_15  and  C12_16 
ROOT
HETATM    1  I1  UNK     1      17.639   0.469  34.840  1.00  0.00    -0.039 I 
HETATM    2  O1  UNK     1      18.404   1.062  31.827  1.00  0.00    -0.273 OA
HETATM    3  O3  UNK     1      17.931   2.624  30.226  1.00  0.00    -0.260 OA
HETATM    4  C1  UNK     1      19.913  -0.782  31.290  1.00  0.00     0.005 A 
HETATM    5  C2  UNK     1      19.088  -0.114  32.196  1.00  0.00     0.109 A 
HETATM    6  C3  UNK     1      20.058  -0.235  29.935  1.00  0.00    -0.043 A 
HETATM    7  C4  UNK     1      20.558  -1.945  31.734  1.00  0.00     0.017 A 
HETATM    8  C5  UNK     1      18.895  -0.565  33.503  1.00  0.00     0.074 A 
HETATM    9  C6  UNK     1      19.544  -1.721  33.924  1.00  0.00     0.088 A 
HETATM   10  C7  UNK     1      20.374  -2.410  33.041  1.00  0.00     0.039 A 
HETATM   11  C8  UNK     1      19.396   0.885  29.612  1.00  0.00     0.090 A 
HETATM   12  C9  UNK     1      20.939  -0.930  28.938  1.00  0.00     0.049 C 
HETATM   13  C10 UNK     1      18.522   1.601  30.557  1.00  0.00     0.288 A 
ENDROOT
BRANCH   9  14
HETATM   14  O2  UNK     1      19.400  -2.219  35.185  1.00  0.00    -0.346 OA
BRANCH  14  15
HETATM   15  C11 UNK     1      20.592  -2.431  35.937  1.00  0.00     0.202 C 
BRANCH  15  16
HETATM   16  C12 UNK     1      20.255  -3.217  37.160  1.00  0.00    -0.011 C 
HETATM   17  C13 UNK     1      20.832  -4.378  37.486  1.00  0.00     0.009 C 
ENDBRANCH  15  16
ENDBRANCH  14  15
ENDBRANCH   9  14
TORSDOF 3
ENDMDL
MODEL 3
REMARK VINA RESULT:      -6.4      3.858      8.656
REMARK  3 active torsions:
REMARK  status: ('A' for Active; 'I' for Inactive)
REMARK    1  A    between atoms: C11_15  and  O2_3 
REMARK    2  A    between atoms: C6_10  and  O2_3 
REMARK    3  A    between atoms: C11_15  and  C12_16 
ROOT
HETATM    1  I1  UNK     1      15.018   7.259  32.258  1.00  0.00    -0.039 I 
HETATM    2  O1  UNK     1      16.820   9.577  33.437  1.00  0.00    -0.273 OA
HETATM    3  O3  UNK     1      16.601  11.779  34.012  1.00  0.00    -0.260 OA
HETATM    4  C1  UNK     1      18.981   8.476  33.725  1.00  0.00     0.005 A 
HETATM    5  C2  UNK     1      17.641   8.436  33.337  1.00  0.00     0.109 A 
HETATM    6  C3  UNK     1      19.527   9.737  34.243  1.00  0.00    -0.043 A 
HETATM    7  C4  UNK     1      19.731   7.298  33.596  1.00  0.00     0.017 A 
HETATM    8  C5  UNK     1      17.043   7.278  32.836  1.00  0.00     0.074 A 
HETATM    9  C6  UNK     1      17.804   6.120  32.715  1.00  0.00     0.088 A 
HETATM   10  C7  UNK     1      19.145   6.130  33.094  1.00  0.00     0.039 A 
HETATM   11  C8  UNK     1      18.723  10.807  34.326  1.00  0.00     0.090 A 
HETATM   12  C9  UNK     1      20.964   9.812  34.668  1.00  0.00     0.049 C 
HETATM   13  C10 UNK     1      17.308  10.780  33.921  1.00  0.00     0.288 A 
ENDROOT
BRANCH   9  14
HETATM   14  O2  UNK     1      17.285   4.955  32.232  1.00  0.00    -0.346 OA
BRANCH  14  15
HETATM   15  C11 UNK     1      18.173   3.845  32.130  1.00  0.00     0.202 C 
BRANCH  15  16
HETATM   16  C12 UNK     1      18.583   3.687  30.704  1.00  0.00    -0.011 C 
HETATM   17  C13 UNK     1      18.608   2.516  30.059  1.00  0.00     0.009 C 
ENDBRANCH  15  16
ENDBRANCH  14  15
ENDBRANCH   9  14
TORSDOF 3
ENDMDL
MODEL 4
REMARK VINA RESULT:      -6.4      3.244      4.948
REMARK  3 active torsions:
REMARK  status: ('A' for Active; 'I' for Inactive)
REMARK    1  A    between atoms: C11_15  and  O2_3 
REMARK    2  A    between atoms: C6_10  and  O2_3 
REMARK    3  A    between atoms: C11_15  and  C12_16 
ROOT
HETATM    1  I1  UNK     1      19.608  -1.620  32.006  1.00  0.00    -0.039 I 
HETATM    2  O1  UNK     1      18.955  -1.723  35.100  1.00  0.00    -0.273 OA
HETATM    3  O3  UNK     1      19.063  -3.232  36.814  1.00  0.00    -0.260 OA
HETATM    4  C1  UNK     1      18.125   0.531  35.543  1.00  0.00     0.005 A 
HETATM    5  C2  UNK     1      18.631  -0.424  34.660  1.00  0.00     0.109 A 
HETATM    6  C3  UNK     1      17.932   0.157  36.950  1.00  0.00    -0.043 A 
HETATM    7  C4  UNK     1      17.828   1.800  35.027  1.00  0.00     0.017 A 
HETATM    8  C5  UNK     1      18.845  -0.151  33.308  1.00  0.00     0.074 A 
HETATM    9  C6  UNK     1      18.543   1.115  32.816  1.00  0.00     0.088 A 
HETATM   10  C7  UNK     1      18.036   2.088  33.674  1.00  0.00     0.039 A 
HETATM   11  C8  UNK     1      18.249  -1.086  37.340  1.00  0.00     0.090 A 
HETATM   12  C9  UNK     1      17.389   1.161  37.924  1.00  0.00     0.049 C 
HETATM   13  C10 UNK     1      18.784  -2.104  36.421  1.00  0.00     0.288 A 
ENDROOT
BRANCH   9  14
HETATM   14  O2  UNK     1      18.726   1.449  31.506  1.00  0.00    -0.346 OA
BRANCH  14  15
HETATM   15  C11 UNK     1      18.358   2.770  31.119  1.00  0.00     0.202 C 
BRANCH  15  16
HETATM   16  C12 UNK     1      18.407   2.865  29.630  1.00  0.00    -0.011 C 
HETATM   17  C13 UNK     1      17.967   1.910  28.805  1.00  0.00     0.009 C 
ENDBRANCH  15  16
ENDBRANCH  14  15
ENDBRANCH   9  14
TORSDOF 3
ENDMDL
MODEL 5
REMARK VINA RESULT:      -6.3      1.439      5.772
REMARK  3 active torsions:
REMARK  status: ('A' for Active; 'I' for Inactive)
REMARK    1  A    between atoms: C11_15  and  O2_3 
REMARK    2  A    between atoms: C6_10  and  O2_3 
REMARK    3  A    between atoms: C11_15  and  C12_16 
ROOT
HETATM    1  I1  UNK     1      17.921   1.218  34.499  1.00  0.00    -0.039 I 
HETATM    2  O1  UNK     1      17.899   4.235  33.546  1.00  0.00    -0.273 OA
HETATM    3  O3  UNK     1      17.462   6.297  34.430  1.00  0.00    -0.260 OA
HETATM    4  C1  UNK     1      18.559   4.056  31.201  1.00  0.00     0.005 A 
HETATM    5  C2  UNK     1      18.278   3.459  32.431  1.00  0.00     0.109 A 
HETATM    6  C3  UNK     1      18.453   5.516  31.086  1.00  0.00    -0.043 A 
HETATM    7  C4  UNK     1      18.929   3.215  30.141  1.00  0.00     0.017 A 
HETATM    8  C5  UNK     1      18.356   2.080  32.627  1.00  0.00     0.074 A 
HETATM    9  C6  UNK     1      18.724   1.263  31.563  1.00  0.00     0.088 A 
HETATM   10  C7  UNK     1      19.010   1.830  30.322  1.00  0.00     0.039 A 
HETATM   11  C8  UNK     1      18.090   6.228  32.162  1.00  0.00     0.090 A 
HETATM   12  C9  UNK     1      18.749   6.187  29.776  1.00  0.00     0.049 C 
HETATM   13  C10 UNK     1      17.791   5.614  33.466  1.00  0.00     0.288 A 
ENDROOT
BRANCH   9  14
HETATM   14  O2  UNK     1      18.819  -0.092  31.683  1.00  0.00    -0.346 OA
BRANCH  14  15
HETATM   15  C11 UNK     1      20.000  -0.706  31.174  1.00  0.00     0.202 C 
BRANCH  15  16
HETATM   16  C12 UNK     1      20.076  -2.103  31.692  1.00  0.00    -0.011 C 
HETATM   17  C13 UNK     1      20.971  -2.519  32.593  1.00  0.00     0.009 C 
ENDBRANCH  15  16
ENDBRANCH  14  15
ENDBRANCH   9  14
TORSDOF 3
ENDMDL
MODEL 6
REMARK VINA RESULT:      -6.3      4.120      7.856
REMARK  3 active torsions:
REMARK  status: ('A' for Active; 'I' for Inactive)
REMARK    1  A    between atoms: C11_15  and  O2_3 
REMARK    2  A    between atoms: C6_10  and  O2_3 
REMARK    3  A    between atoms: C11_15  and  C12_16 
ROOT
HETATM    1  I1  UNK     1      20.526  -2.461  32.918  1.00  0.00    -0.039 I 
HETATM    2  O1  UNK     1      18.815   0.005  33.920  1.00  0.00    -0.273 OA
HETATM    3  O3  UNK     1      17.982   1.957  33.071  1.00  0.00    -0.260 OA
HETATM    4  C1  UNK     1      18.393  -0.557  36.259  1.00  0.00     0.005 A 
HETATM    5  C2  UNK     1      18.958  -0.864  35.020  1.00  0.00     0.109 A 
HETATM    6  C3  UNK     1      17.641   0.697  36.398  1.00  0.00    -0.043 A 
HETATM    7  C4  UNK     1      18.580  -1.474  37.303  1.00  0.00     0.017 A 
HETATM    8  C5  UNK     1      19.686  -2.035  34.801  1.00  0.00     0.074 A 
HETATM    9  C6  UNK     1      19.860  -2.931  35.851  1.00  0.00     0.088 A 
HETATM   10  C7  UNK     1      19.308  -2.651  37.100  1.00  0.00     0.039 A 
HETATM   11  C8  UNK     1      17.522   1.504  35.335  1.00  0.00     0.090 A 
HETATM   12  C9  UNK     1      17.022   1.055  37.718  1.00  0.00     0.049 C 
HETATM   13  C10 UNK     1      18.112   1.194  34.022  1.00  0.00     0.288 A 
ENDROOT
BRANCH   9  14
HETATM   14  O2  UNK     1      20.562  -4.092  35.708  1.00  0.00    -0.346 OA
BRANCH  14  15
HETATM   15  C11 UNK     1      20.161  -5.193  36.520  1.00  0.00     0.202 C 
BRANCH  15  16
HETATM   16  C12 UNK     1      19.565  -6.244  35.643  1.00  0.00    -0.011 C 
HETATM   17  C13 UNK     1      20.209  -6.819  34.622  1.00  0.00     0.009 C 
ENDBRANCH  15  16
ENDBRANCH  14  15
ENDBRANCH   9  14
TORSDOF 3
ENDMDL
MODEL 7
REMARK VINA RESULT:      -6.3      2.412      5.658
REMARK  3 active torsions:
REMARK  status: ('A' for Active; 'I' for Inactive)
REMARK    1  A    between atoms: C11_15  and  O2_3 
REMARK    2  A    between atoms: C6_10  and  O2_3 
REMARK    3  A    between atoms: C11_15  and  C12_16 
ROOT
HETATM    1  I1  UNK     1      17.692   1.315  36.252  1.00  0.00    -0.039 I 
HETATM    2  O1  UNK     1      17.987   2.582  33.367  1.00  0.00    -0.273 OA
HETATM    3  O3  UNK     1      17.665   4.606  32.355  1.00  0.00    -0.260 OA
HETATM    4  C1  UNK     1      18.785   0.694  32.038  1.00  0.00     0.005 A 
HETATM    5  C2  UNK     1      18.373   1.230  33.259  1.00  0.00     0.109 A 
HETATM    6  C3  UNK     1      18.809   1.568  30.858  1.00  0.00    -0.043 A 
HETATM    7  C4  UNK     1      19.154  -0.658  32.013  1.00  0.00     0.017 A 
HETATM    8  C5  UNK     1      18.322   0.470  34.429  1.00  0.00     0.074 A 
HETATM    9  C6  UNK     1      18.691  -0.870  34.383  1.00  0.00     0.088 A 
HETATM   10  C7  UNK     1      19.106  -1.433  33.178  1.00  0.00     0.039 A 
HETATM   11  C8  UNK     1      18.436   2.849  30.990  1.00  0.00     0.090 A 
HETATM   12  C9  UNK     1      19.247   1.021  29.530  1.00  0.00     0.049 C 
HETATM   13  C10 UNK     1      18.000   3.429  32.271  1.00  0.00     0.288 A 
ENDROOT
BRANCH   9  14
HETATM   14  O2  UNK     1      18.664  -1.671  35.487  1.00  0.00    -0.346 OA
BRANCH  14  15
HETATM   15  C11 UNK     1      19.920  -2.090  36.013  1.00  0.00     0.202 C 
BRANCH  15  16
HETATM   16  C12 UNK     1      19.770  -3.463  36.578  1.00  0.00    -0.011 C 
HETATM   17  C13 UNK     1      20.631  -4.016  37.438  1.00  0.00     0.009 C 
ENDBRANCH  15  16
ENDBRANCH  14  15
ENDBRANCH   9  14
TORSDOF 3
ENDMDL
MODEL 8
REMARK VINA RESULT:      -6.2      5.370      7.005
REMARK  3 active torsions:
REMARK  status: ('A' for Active; 'I' for Inactive)
REMARK    1  A    between atoms: C11_15  and  O2_3 
REMARK    2  A    between atoms: C6_10  and  O2_3 
REMARK    3  A    between atoms: C11_15  and  C12_16 
ROOT
HETATM    1  I1  UNK     1      15.155   7.354  32.193  1.00  0.00    -0.039 I 
HETATM    2  O1  UNK     1      17.912   6.243  31.107  1.00  0.00    -0.273 OA
HETATM    3  O3  UNK     1      18.692   5.119  29.276  1.00  0.00    -0.260 OA
HETATM    4  C1  UNK     1      19.473   6.877  32.874  1.00  0.00     0.005 A 
HETATM    5  C2  UNK     1      18.180   6.851  32.350  1.00  0.00     0.109 A 
HETATM    6  C3  UNK     1      20.559   6.256  32.104  1.00  0.00    -0.043 A 
HETATM    7  C4  UNK     1      19.658   7.501  34.117  1.00  0.00     0.017 A 
HETATM    8  C5  UNK     1      17.092   7.418  33.016  1.00  0.00     0.074 A 
HETATM    9  C6  UNK     1      17.297   8.031  34.248  1.00  0.00     0.088 A 
HETATM   10  C7  UNK     1      18.577   8.073  34.797  1.00  0.00     0.039 A 
HETATM   11  C8  UNK     1      20.274   5.686  30.925  1.00  0.00     0.090 A 
HETATM   12  C9  UNK     1      21.960   6.269  32.642  1.00  0.00     0.049 C 
HETATM   13  C10 UNK     1      18.915   5.650  30.358  1.00  0.00     0.288 A 
ENDROOT
BRANCH   9  14
HETATM   14  O2  UNK     1      16.280   8.604  34.954  1.00  0.00    -0.346 OA
BRANCH  14  15
HETATM   15  C11 UNK     1      16.047   9.993  34.740  1.00  0.00     0.202 C 
BRANCH  15  16
HETATM   16  C12 UNK     1      14.607  10.284  35.003  1.00  0.00    -0.011 C 
HETATM   17  C13 UNK     1      13.770  10.797  34.094  1.00  0.00     0.009 C 
ENDBRANCH  15  16
ENDBRANCH  14  15
ENDBRANCH   9  14
TORSDOF 3
ENDMDL
MODEL 9
REMARK VINA RESULT:      -6.1      2.780      4.896
REMARK  3 active torsions:
REMARK  status: ('A' for Active; 'I' for Inactive)
REMARK    1  A    between atoms: C11_15  and  O2_3 
REMARK    2  A    between atoms: C6_10  and  O2_3 
REMARK    3  A    between atoms: C11_15  and  C12_16 
ROOT
HETATM    1  I1  UNK     1      18.551  -0.991  33.060  1.00  0.00    -0.039 I 
HETATM    2  O1  UNK     1      18.636   1.239  30.817  1.00  0.00    -0.273 OA
HETATM    3  O3  UNK     1      18.798   1.359  28.540  1.00  0.00    -0.260 OA
HETATM    4  C1  UNK     1      18.472   3.303  32.113  1.00  0.00     0.005 A 
HETATM    5  C2  UNK     1      18.524   1.909  32.052  1.00  0.00     0.109 A 
HETATM    6  C3  UNK     1      18.538   4.066  30.860  1.00  0.00    -0.043 A 
HETATM    7  C4  UNK     1      18.359   3.894  33.380  1.00  0.00     0.017 A 
HETATM    8  C5  UNK     1      18.466   1.109  33.194  1.00  0.00     0.074 A 
HETATM    9  C6  UNK     1      18.355   1.715  34.441  1.00  0.00     0.088 A 
HETATM   10  C7  UNK     1      18.302   3.104  34.534  1.00  0.00     0.039 A 
HETATM   11  C8  UNK     1      18.645   3.402  29.700  1.00  0.00     0.090 A 
HETATM   12  C9  UNK     1      18.484   5.566  30.893  1.00  0.00     0.049 C 
HETATM   13  C10 UNK     1      18.700   1.933  29.619  1.00  0.00     0.288 A 
ENDROOT
BRANCH   9  14
HETATM   14  O2  UNK     1      18.296   0.995  35.598  1.00  0.00    -0.346 OA
BRANCH  14  15
HETATM   15  C11 UNK     1      17.467   1.508  36.637  1.00  0.00     0.202 C 
BRANCH  15  16
HETATM   16  C12 UNK     1      16.246   0.655  36.743  1.00  0.00    -0.011 C 
HETATM   17  C13 UNK     1      15.572   0.182  35.690  1.00  0.00     0.009 C 
ENDBRANCH  15  16
ENDBRANCH  14  15
ENDBRANCH   9  14
TORSDOF 3
ENDMDL
MODEL 10
REMARK VINA RESULT:      -6.0     22.920     24.645
REMARK  3 active torsions:
REMARK  status: ('A' for Active; 'I' for Inactive)
REMARK    1  A    between atoms: C11_15  and  O2_3 
REMARK    2  A    between atoms: C6_10  and  O2_3 
REMARK    3  A    between atoms: C11_15  and  C12_16 
ROOT
HETATM    1  I1  UNK     1      10.812   8.744   9.350  1.00  0.00    -0.039 I 
HETATM    2  O1  UNK     1      13.735   9.232  10.460  1.00  0.00    -0.273 OA
HETATM    3  O3  UNK     1      14.847  10.799  11.698  1.00  0.00    -0.260 OA
HETATM    4  C1  UNK     1      14.947   7.276   9.641  1.00  0.00     0.005 A 
HETATM    5  C2  UNK     1      13.768   8.015   9.749  1.00  0.00     0.109 A 
HETATM    6  C3  UNK     1      16.162   7.790  10.286  1.00  0.00    -0.043 A 
HETATM    7  C4  UNK     1      14.897   6.076   8.917  1.00  0.00     0.017 A 
HETATM    8  C5  UNK     1      12.569   7.598   9.168  1.00  0.00     0.074 A 
HETATM    9  C6  UNK     1      12.541   6.405   8.453  1.00  0.00     0.088 A 
HETATM   10  C7  UNK     1      13.703   5.646   8.328  1.00  0.00     0.039 A 
HETATM   11  C8  UNK     1      16.101   8.950  10.955  1.00  0.00     0.090 A 
HETATM   12  C9  UNK     1      17.446   7.018  10.187  1.00  0.00     0.049 C 
HETATM   13  C10 UNK     1      14.866   9.742  11.077  1.00  0.00     0.288 A 
ENDROOT
BRANCH   9  14
HETATM   14  O2  UNK     1      11.406   5.939   7.859  1.00  0.00    -0.346 OA
BRANCH  14  15
HETATM   15  C11 UNK     1      11.363   5.968   6.435  1.00  0.00     0.202 C 
BRANCH  15  16
HETATM   16  C12 UNK     1       9.949   6.170   6.002  1.00  0.00    -0.011 C 
HETATM   17  C13 UNK     1       8.904   6.169   6.836  1.00  0.00     0.009 C 
ENDBRANCH  15  16
ENDBRANCH  14  15
ENDBRANCH   9  14
TORSDOF 3
ENDMDL
