MODEL 1
REMARK VINA RESULT:      -9.5      0.000      0.000
REMARK  3 active torsions:
REMARK  status: ('A' for Active; 'I' for Inactive)
REMARK    1  A    between atoms: C2_7  and  N1_5 
REMARK       I    between atoms: C7_12  and  N1_5 
REMARK    2  A    between atoms: C2_7  and  C4_9 
REMARK    3  A    between atoms: C3_8  and  C7_12 
ROOT
HETATM    1  O2  UNK     1      18.036   3.249  28.723  1.00  0.00    -0.267 OA
HETATM    2  N1  UNK     1      19.169   4.243  30.502  1.00  0.00    -0.352 N 
HETATM    3  C7  UNK     1      18.672   3.177  29.773  1.00  0.00     0.258 C 
HETATM    4  H4  UNK     1      19.697   4.079  31.354  1.00  0.00     0.163 HD
ENDROOT
BRANCH   3   5
HETATM    5  C3  UNK     1      18.978   1.877  30.382  1.00  0.00     0.108 A 
HETATM    6  C6  UNK     1      19.610   0.993  29.600  1.00  0.00     0.037 A 
HETATM    7  C1  UNK     1      19.957  -0.323  30.114  1.00  0.00    -0.001 A 
HETATM    8  C5  UNK     1      19.619  -0.644  31.425  1.00  0.00     0.089 A 
HETATM    9  C8  UNK     1      20.616  -1.276  29.335  1.00  0.00     0.014 A 
HETATM   10  C10 UNK     1      19.922  -1.887  31.977  1.00  0.00     0.038 A 
HETATM   11  O1  UNK     1      18.954   0.291  32.242  1.00  0.00    -0.274 OA
HETATM   12  C14 UNK     1      20.581  -2.832  31.193  1.00  0.00     0.003 A 
HETATM   13  C13 UNK     1      20.927  -2.528  29.876  1.00  0.00     0.001 A 
HETATM   14  C9  UNK     1      18.611   1.558  31.779  1.00  0.00     0.304 A 
HETATM   15  O3  UNK     1      18.031   2.365  32.499  1.00  0.00    -0.259 OA
ENDBRANCH   3   5
BRANCH   2  16
HETATM   16  C2  UNK     1      18.996   5.621  30.101  1.00  0.00     0.161 C 
BRANCH  16  17
HETATM   17  C4  UNK     1      18.674   6.509  31.273  1.00  0.00    -0.040 A 
HETATM   18  C11 UNK     1      19.585   6.624  32.313  1.00  0.00     0.012 A 
HETATM   19  C15 UNK     1      19.285   7.447  33.400  1.00  0.00     0.043 A 
HETATM   20  C17 UNK     1      18.078   8.145  33.434  1.00  0.00     0.116 A 
HETATM   21  C16 UNK     1      17.170   8.022  32.382  1.00  0.00     0.043 A 
HETATM   22  F1  UNK     1      17.791   8.935  34.477  1.00  0.00    -0.206 F 
HETATM   23  C12 UNK     1      17.470   7.199  31.297  1.00  0.00     0.012 A 
ENDBRANCH  16  17
ENDBRANCH   2  16
TORSDOF 3
ENDMDL
MODEL 2
REMARK VINA RESULT:      -9.1      1.485      2.345
REMARK  3 active torsions:
REMARK  status: ('A' for Active; 'I' for Inactive)
REMARK    1  A    between atoms: C2_7  and  N1_5 
REMARK       I    between atoms: C7_12  and  N1_5 
REMARK    2  A    between atoms: C2_7  and  C4_9 
REMARK    3  A    between atoms: C3_8  and  C7_12 
ROOT
HETATM    1  O2  UNK     1      17.154   2.782  30.846  1.00  0.00    -0.267 OA
HETATM    2  N1  UNK     1      19.165   3.643  30.039  1.00  0.00    -0.352 N 
HETATM    3  C7  UNK     1      18.303   2.635  30.432  1.00  0.00     0.258 C 
HETATM    4  H4  UNK     1      20.094   3.418  29.696  1.00  0.00     0.163 HD
ENDROOT
BRANCH   3   5
HETATM    5  C3  UNK     1      18.895   1.298  30.309  1.00  0.00     0.108 A 
HETATM    6  C6  UNK     1      19.243   0.697  31.454  1.00  0.00     0.037 A 
HETATM    7  C1  UNK     1      19.836  -0.630  31.435  1.00  0.00    -0.001 A 
HETATM    8  C5  UNK     1      20.036  -1.260  30.211  1.00  0.00     0.089 A 
HETATM    9  C8  UNK     1      20.214  -1.294  32.604  1.00  0.00     0.014 A 
HETATM   10  C10 UNK     1      20.601  -2.531  30.123  1.00  0.00     0.038 A 
HETATM   11  O1  UNK     1      19.668  -0.623  29.009  1.00  0.00    -0.274 OA
HETATM   12  C14 UNK     1      20.975  -3.186  31.294  1.00  0.00     0.003 A 
HETATM   13  C13 UNK     1      20.782  -2.570  32.532  1.00  0.00     0.001 A 
HETATM   14  C9  UNK     1      19.097   0.646  28.996  1.00  0.00     0.304 A 
HETATM   15  O3  UNK     1      18.780   1.192  27.944  1.00  0.00    -0.259 OA
ENDBRANCH   3   5
BRANCH   2  16
HETATM   16  C2  UNK     1      18.806   5.043  30.069  1.00  0.00     0.161 C 
BRANCH  16  17
HETATM   17  C4  UNK     1      19.005   5.644  31.436  1.00  0.00    -0.040 A 
HETATM   18  C11 UNK     1      17.917   5.779  32.286  1.00  0.00     0.012 A 
HETATM   19  C15 UNK     1      18.102   6.336  33.552  1.00  0.00     0.043 A 
HETATM   20  C17 UNK     1      19.371   6.752  33.953  1.00  0.00     0.116 A 
HETATM   21  C16 UNK     1      20.457   6.610  33.090  1.00  0.00     0.043 A 
HETATM   22  F1  UNK     1      19.547   7.286  35.169  1.00  0.00    -0.206 F 
HETATM   23  C12 UNK     1      20.272   6.053  31.824  1.00  0.00     0.012 A 
ENDBRANCH  16  17
ENDBRANCH   2  16
TORSDOF 3
ENDMDL
MODEL 3
REMARK VINA RESULT:      -9.0      3.304      7.804
REMARK  3 active torsions:
REMARK  status: ('A' for Active; 'I' for Inactive)
REMARK    1  A    between atoms: C2_7  and  N1_5 
REMARK       I    between atoms: C7_12  and  N1_5 
REMARK    2  A    between atoms: C2_7  and  C4_9 
REMARK    3  A    between atoms: C3_8  and  C7_12 
ROOT
HETATM    1  O2  UNK     1      18.660   4.779  28.877  1.00  0.00    -0.267 OA
HETATM    2  N1  UNK     1      18.997   2.994  30.339  1.00  0.00    -0.352 N 
HETATM    3  C7  UNK     1      18.874   4.330  30.002  1.00  0.00     0.258 C 
HETATM    4  H4  UNK     1      19.160   2.723  31.304  1.00  0.00     0.163 HD
ENDROOT
BRANCH   3   5
HETATM    5  C3  UNK     1      19.025   5.227  31.154  1.00  0.00     0.108 A 
HETATM    6  C6  UNK     1      17.924   5.442  31.885  1.00  0.00     0.037 A 
HETATM    7  C1  UNK     1      17.974   6.314  33.047  1.00  0.00    -0.001 A 
HETATM    8  C5  UNK     1      19.181   6.919  33.383  1.00  0.00     0.089 A 
HETATM    9  C8  UNK     1      16.850   6.566  33.838  1.00  0.00     0.014 A 
HETATM   10  C10 UNK     1      19.296   7.766  34.483  1.00  0.00     0.038 A 
HETATM   11  O1  UNK     1      20.336   6.690  32.610  1.00  0.00    -0.274 OA
HETATM   12  C14 UNK     1      18.170   8.012  35.267  1.00  0.00     0.003 A 
HETATM   13  C13 UNK     1      16.951   7.414  34.945  1.00  0.00     0.001 A 
HETATM   14  C9  UNK     1      20.320   5.858  31.494  1.00  0.00     0.304 A 
HETATM   15  O3  UNK     1      21.331   5.665  30.827  1.00  0.00    -0.259 OA
ENDBRANCH   3   5
BRANCH   2  16
HETATM   16  C2  UNK     1      18.885   1.924  29.374  1.00  0.00     0.161 C 
BRANCH  16  17
HETATM   17  C4  UNK     1      19.419   0.624  29.914  1.00  0.00    -0.040 A 
HETATM   18  C11 UNK     1      19.236   0.315  31.254  1.00  0.00     0.012 A 
HETATM   19  C15 UNK     1      19.732  -0.890  31.754  1.00  0.00     0.043 A 
HETATM   20  C17 UNK     1      20.405  -1.771  30.909  1.00  0.00     0.116 A 
HETATM   21  C16 UNK     1      20.583  -1.450  29.563  1.00  0.00     0.043 A 
HETATM   22  F1  UNK     1      20.881  -2.928  31.389  1.00  0.00    -0.206 F 
HETATM   23  C12 UNK     1      20.087  -0.245  29.064  1.00  0.00     0.012 A 
ENDBRANCH  16  17
ENDBRANCH   2  16
TORSDOF 3
ENDMDL
MODEL 4
REMARK VINA RESULT:      -8.9     14.661     16.531
REMARK  3 active torsions:
REMARK  status: ('A' for Active; 'I' for Inactive)
REMARK    1  A    between atoms: C2_7  and  N1_5 
REMARK       I    between atoms: C7_12  and  N1_5 
REMARK    2  A    between atoms: C2_7  and  C4_9 
REMARK    3  A    between atoms: C3_8  and  C7_12 
ROOT
HETATM    1  O2  UNK     1      16.931  -2.087  16.732  1.00  0.00    -0.267 OA
HETATM    2  N1  UNK     1      18.964  -0.980  17.008  1.00  0.00    -0.352 N 
HETATM    3  C7  UNK     1      18.052  -1.774  16.336  1.00  0.00     0.258 C 
HETATM    4  H4  UNK     1      19.863  -0.766  16.588  1.00  0.00     0.163 HD
ENDROOT
BRANCH   3   5
HETATM    5  C3  UNK     1      18.551  -2.243  15.037  1.00  0.00     0.108 A 
HETATM    6  C6  UNK     1      18.356  -3.538  14.761  1.00  0.00     0.037 A 
HETATM    7  C1  UNK     1      18.814  -4.096  13.498  1.00  0.00    -0.001 A 
HETATM    8  C5  UNK     1      19.458  -3.263  12.590  1.00  0.00     0.089 A 
HETATM    9  C8  UNK     1      18.631  -5.440  13.168  1.00  0.00     0.014 A 
HETATM   10  C10 UNK     1      19.922  -3.734  11.363  1.00  0.00     0.038 A 
HETATM   11  O1  UNK     1      19.661  -1.901  12.886  1.00  0.00    -0.274 OA
HETATM   12  C14 UNK     1      19.735  -5.077  11.041  1.00  0.00     0.003 A 
HETATM   13  C13 UNK     1      19.091  -5.928  11.941  1.00  0.00     0.001 A 
HETATM   14  C9  UNK     1      19.232  -1.338  14.085  1.00  0.00     0.304 A 
HETATM   15  O3  UNK     1      19.414  -0.151  14.334  1.00  0.00    -0.259 OA
ENDBRANCH   3   5
BRANCH   2  16
HETATM   16  C2  UNK     1      18.698  -0.399  18.305  1.00  0.00     0.161 C 
BRANCH  16  17
HETATM   17  C4  UNK     1      19.164   1.030  18.385  1.00  0.00    -0.040 A 
HETATM   18  C11 UNK     1      19.621   1.532  19.595  1.00  0.00     0.012 A 
HETATM   19  C15 UNK     1      20.053   2.857  19.669  1.00  0.00     0.043 A 
HETATM   20  C17 UNK     1      20.023   3.665  18.533  1.00  0.00     0.116 A 
HETATM   21  C16 UNK     1      19.562   3.149  17.322  1.00  0.00     0.043 A 
HETATM   22  F1  UNK     1      20.438   4.936  18.605  1.00  0.00    -0.206 F 
HETATM   23  C12 UNK     1      19.130   1.824  17.248  1.00  0.00     0.012 A 
ENDBRANCH  16  17
ENDBRANCH   2  16
TORSDOF 3
ENDMDL
MODEL 5
REMARK VINA RESULT:      -8.7      1.552      2.633
REMARK  3 active torsions:
REMARK  status: ('A' for Active; 'I' for Inactive)
REMARK    1  A    between atoms: C2_7  and  N1_5 
REMARK       I    between atoms: C7_12  and  N1_5 
REMARK    2  A    between atoms: C2_7  and  C4_9 
REMARK    3  A    between atoms: C3_8  and  C7_12 
ROOT
HETATM    1  O2  UNK     1      17.880   3.049  33.606  1.00  0.00    -0.267 OA
HETATM    2  N1  UNK     1      17.682   4.506  31.798  1.00  0.00    -0.352 N 
HETATM    3  C7  UNK     1      18.019   3.315  32.414  1.00  0.00     0.258 C 
HETATM    4  H4  UNK     1      17.823   4.624  30.799  1.00  0.00     0.163 HD
ENDROOT
BRANCH   3   5
HETATM    5  C3  UNK     1      18.588   2.332  31.484  1.00  0.00     0.108 A 
HETATM    6  C6  UNK     1      18.848   1.120  31.990  1.00  0.00     0.037 A 
HETATM    7  C1  UNK     1      19.411   0.079  31.146  1.00  0.00    -0.001 A 
HETATM    8  C5  UNK     1      19.677   0.365  29.811  1.00  0.00     0.089 A 
HETATM    9  C8  UNK     1      19.697  -1.199  31.631  1.00  0.00     0.014 A 
HETATM   10  C10 UNK     1      20.218  -0.587  28.949  1.00  0.00     0.038 A 
HETATM   11  O1  UNK     1      19.402   1.643  29.284  1.00  0.00    -0.274 OA
HETATM   12  C14 UNK     1      20.499  -1.860  29.441  1.00  0.00     0.003 A 
HETATM   13  C13 UNK     1      20.240  -2.166  30.778  1.00  0.00     0.001 A 
HETATM   14  C9  UNK     1      18.861   2.658  30.067  1.00  0.00     0.304 A 
HETATM   15  O3  UNK     1      18.625   3.768  29.599  1.00  0.00    -0.259 OA
ENDBRANCH   3   5
BRANCH   2  16
HETATM   16  C2  UNK     1      17.103   5.624  32.508  1.00  0.00     0.161 C 
BRANCH  16  17
HETATM   17  C4  UNK     1      18.156   6.575  33.012  1.00  0.00    -0.040 A 
HETATM   18  C11 UNK     1      17.771   7.741  33.657  1.00  0.00     0.012 A 
HETATM   19  C15 UNK     1      18.748   8.622  34.124  1.00  0.00     0.043 A 
HETATM   20  C17 UNK     1      20.098   8.326  33.941  1.00  0.00     0.116 A 
HETATM   21  C16 UNK     1      20.473   7.149  33.292  1.00  0.00     0.043 A 
HETATM   22  F1  UNK     1      21.035   9.171  34.390  1.00  0.00    -0.206 F 
HETATM   23  C12 UNK     1      19.497   6.270  32.825  1.00  0.00     0.012 A 
ENDBRANCH  16  17
ENDBRANCH   2  16
TORSDOF 3
ENDMDL
MODEL 6
REMARK VINA RESULT:      -8.6      3.096      7.851
REMARK  3 active torsions:
REMARK  status: ('A' for Active; 'I' for Inactive)
REMARK    1  A    between atoms: C2_7  and  N1_5 
REMARK       I    between atoms: C7_12  and  N1_5 
REMARK    2  A    between atoms: C2_7  and  C4_9 
REMARK    3  A    between atoms: C3_8  and  C7_12 
ROOT
HETATM    1  O2  UNK     1      19.548   4.910  29.727  1.00  0.00    -0.267 OA
HETATM    2  N1  UNK     1      18.281   3.064  30.375  1.00  0.00    -0.352 N 
HETATM    3  C7  UNK     1      18.772   4.351  30.499  1.00  0.00     0.258 C 
HETATM    4  H4  UNK     1      17.628   2.696  31.061  1.00  0.00     0.163 HD
ENDROOT
BRANCH   3   5
HETATM    5  C3  UNK     1      18.266   5.043  31.691  1.00  0.00     0.108 A 
HETATM    6  C6  UNK     1      18.040   6.356  31.561  1.00  0.00     0.037 A 
HETATM    7  C1  UNK     1      17.537   7.128  32.687  1.00  0.00    -0.001 A 
HETATM    8  C5  UNK     1      17.299   6.480  33.894  1.00  0.00     0.089 A 
HETATM    9  C8  UNK     1      17.287   8.499  32.597  1.00  0.00     0.014 A 
HETATM   10  C10 UNK     1      16.818   7.162  35.011  1.00  0.00     0.038 A 
HETATM   11  O1  UNK     1      17.538   5.098  34.025  1.00  0.00    -0.274 OA
HETATM   12  C14 UNK     1      16.571   8.529  34.912  1.00  0.00     0.003 A 
HETATM   13  C13 UNK     1      16.805   9.197  33.708  1.00  0.00     0.001 A 
HETATM   14  C9  UNK     1      18.017   4.333  32.965  1.00  0.00     0.304 A 
HETATM   15  O3  UNK     1      18.223   3.130  33.088  1.00  0.00    -0.259 OA
ENDBRANCH   3   5
BRANCH   2  16
HETATM   16  C2  UNK     1      18.634   2.188  29.281  1.00  0.00     0.161 C 
BRANCH  16  17
HETATM   17  C4  UNK     1      19.224   0.891  29.770  1.00  0.00    -0.040 A 
HETATM   18  C11 UNK     1      19.828   0.032  28.864  1.00  0.00     0.012 A 
HETATM   19  C15 UNK     1      20.373  -1.170  29.317  1.00  0.00     0.043 A 
HETATM   20  C17 UNK     1      20.309  -1.499  30.671  1.00  0.00     0.116 A 
HETATM   21  C16 UNK     1      19.699  -0.626  31.573  1.00  0.00     0.043 A 
HETATM   22  F1  UNK     1      20.833  -2.652  31.106  1.00  0.00    -0.206 F 
HETATM   23  C12 UNK     1      19.154   0.575  31.119  1.00  0.00     0.012 A 
ENDBRANCH  16  17
ENDBRANCH   2  16
TORSDOF 3
ENDMDL
MODEL 7
REMARK VINA RESULT:      -8.5      5.767      9.196
REMARK  3 active torsions:
REMARK  status: ('A' for Active; 'I' for Inactive)
REMARK    1  A    between atoms: C2_7  and  N1_5 
REMARK       I    between atoms: C7_12  and  N1_5 
REMARK    2  A    between atoms: C2_7  and  C4_9 
REMARK    3  A    between atoms: C3_8  and  C7_12 
ROOT
HETATM    1  O2  UNK     1      17.579  -1.274  35.889  1.00  0.00    -0.267 OA
HETATM    2  N1  UNK     1      19.752  -2.106  35.748  1.00  0.00    -0.352 N 
HETATM    3  C7  UNK     1      18.641  -1.422  35.288  1.00  0.00     0.258 C 
HETATM    4  H4  UNK     1      20.592  -2.160  35.179  1.00  0.00     0.163 HD
ENDROOT
BRANCH   3   5
HETATM    5  C3  UNK     1      18.835  -0.852  33.949  1.00  0.00     0.108 A 
HETATM    6  C6  UNK     1      19.403  -1.655  33.041  1.00  0.00     0.037 A 
HETATM    7  C1  UNK     1      19.635  -1.180  31.686  1.00  0.00    -0.001 A 
HETATM    8  C5  UNK     1      19.261   0.118  31.355  1.00  0.00     0.089 A 
HETATM    9  C8  UNK     1      20.224  -1.983  30.707  1.00  0.00     0.014 A 
HETATM   10  C10 UNK     1      19.457   0.634  30.075  1.00  0.00     0.038 A 
HETATM   11  O1  UNK     1      18.664   0.958  32.315  1.00  0.00    -0.274 OA
HETATM   12  C14 UNK     1      20.044  -0.174  29.104  1.00  0.00     0.003 A 
HETATM   13  C13 UNK     1      20.427  -1.479  29.418  1.00  0.00     0.001 A 
HETATM   14  C9  UNK     1      18.427   0.531  33.618  1.00  0.00     0.304 A 
HETATM   15  O3  UNK     1      17.907   1.271  34.447  1.00  0.00    -0.259 OA
ENDBRANCH   3   5
BRANCH   2  16
HETATM   16  C2  UNK     1      19.801  -2.751  37.040  1.00  0.00     0.161 C 
BRANCH  16  17
HETATM   17  C4  UNK     1      20.202  -4.199  36.928  1.00  0.00    -0.040 A 
HETATM   18  C11 UNK     1      21.066  -4.742  37.868  1.00  0.00     0.012 A 
HETATM   19  C15 UNK     1      21.437  -6.083  37.764  1.00  0.00     0.043 A 
HETATM   20  C17 UNK     1      20.941  -6.865  36.722  1.00  0.00     0.116 A 
HETATM   21  C16 UNK     1      20.072  -6.308  35.784  1.00  0.00     0.043 A 
HETATM   22  F1  UNK     1      21.297  -8.153  36.623  1.00  0.00    -0.206 F 
HETATM   23  C12 UNK     1      19.701  -4.968  35.888  1.00  0.00     0.012 A 
ENDBRANCH  16  17
ENDBRANCH   2  16
TORSDOF 3
ENDMDL
MODEL 8
REMARK VINA RESULT:      -8.5      7.240     10.248
REMARK  3 active torsions:
REMARK  status: ('A' for Active; 'I' for Inactive)
REMARK    1  A    between atoms: C2_7  and  N1_5 
REMARK       I    between atoms: C7_12  and  N1_5 
REMARK    2  A    between atoms: C2_7  and  C4_9 
REMARK    3  A    between atoms: C3_8  and  C7_12 
ROOT
HETATM    1  O2  UNK     1      21.261  -4.027  37.501  1.00  0.00    -0.267 OA
HETATM    2  N1  UNK     1      19.711  -3.937  35.762  1.00  0.00    -0.352 N 
HETATM    3  C7  UNK     1      20.492  -4.572  36.711  1.00  0.00     0.258 C 
HETATM    4  H4  UNK     1      19.094  -4.477  35.162  1.00  0.00     0.163 HD
ENDROOT
BRANCH   3   5
HETATM    5  C3  UNK     1      20.325  -6.030  36.706  1.00  0.00     0.108 A 
HETATM    6  C6  UNK     1      20.121  -6.606  37.897  1.00  0.00     0.037 A 
HETATM    7  C1  UNK     1      19.942  -8.046  37.994  1.00  0.00    -0.001 A 
HETATM    8  C5  UNK     1      19.990  -8.810  36.833  1.00  0.00     0.089 A 
HETATM    9  C8  UNK     1      19.726  -8.689  39.216  1.00  0.00     0.014 A 
HETATM   10  C10 UNK     1      19.827 -10.194  36.857  1.00  0.00     0.038 A 
HETATM   11  O1  UNK     1      20.205  -8.198  35.582  1.00  0.00    -0.274 OA
HETATM   12  C14 UNK     1      19.612 -10.827  38.080  1.00  0.00     0.003 A 
HETATM   13  C13 UNK     1      19.562 -10.077  39.256  1.00  0.00     0.001 A 
HETATM   14  C9  UNK     1      20.377  -6.823  35.457  1.00  0.00     0.304 A 
HETATM   15  O3  UNK     1      20.564  -6.299  34.364  1.00  0.00    -0.259 OA
ENDBRANCH   3   5
BRANCH   2  16
HETATM   16  C2  UNK     1      19.704  -2.504  35.578  1.00  0.00     0.161 C 
BRANCH  16  17
HETATM   17  C4  UNK     1      19.775  -2.125  34.122  1.00  0.00    -0.040 A 
HETATM   18  C11 UNK     1      20.756  -2.687  33.318  1.00  0.00     0.012 A 
HETATM   19  C15 UNK     1      20.822  -2.335  31.969  1.00  0.00     0.043 A 
HETATM   20  C17 UNK     1      19.907  -1.426  31.440  1.00  0.00     0.116 A 
HETATM   21  C16 UNK     1      18.924  -0.868  32.258  1.00  0.00     0.043 A 
HETATM   22  F1  UNK     1      19.970  -1.089  30.145  1.00  0.00    -0.206 F 
HETATM   23  C12 UNK     1      18.859  -1.220  33.606  1.00  0.00     0.012 A 
ENDBRANCH  16  17
ENDBRANCH   2  16
TORSDOF 3
ENDMDL
MODEL 9
REMARK VINA RESULT:      -8.4     14.712     16.565
REMARK  3 active torsions:
REMARK  status: ('A' for Active; 'I' for Inactive)
REMARK    1  A    between atoms: C2_7  and  N1_5 
REMARK       I    between atoms: C7_12  and  N1_5 
REMARK    2  A    between atoms: C2_7  and  C4_9 
REMARK    3  A    between atoms: C3_8  and  C7_12 
ROOT
HETATM    1  O2  UNK     1      16.824  -2.052  16.793  1.00  0.00    -0.267 OA
HETATM    2  N1  UNK     1      18.944  -1.139  17.116  1.00  0.00    -0.352 N 
HETATM    3  C7  UNK     1      17.983  -1.860  16.430  1.00  0.00     0.258 C 
HETATM    4  H4  UNK     1      19.875  -1.024  16.724  1.00  0.00     0.163 HD
ENDROOT
BRANCH   3   5
HETATM    5  C3  UNK     1      18.478  -2.409  15.162  1.00  0.00     0.108 A 
HETATM    6  C6  UNK     1      19.181  -1.573  14.390  1.00  0.00     0.037 A 
HETATM    7  C1  UNK     1      19.714  -2.025  13.114  1.00  0.00    -0.001 A 
HETATM    8  C5  UNK     1      19.478  -3.336  12.714  1.00  0.00     0.089 A 
HETATM    9  C8  UNK     1      20.454  -1.187  12.277  1.00  0.00     0.014 A 
HETATM   10  C10 UNK     1      19.959  -3.832  11.504  1.00  0.00     0.038 A 
HETATM   11  O1  UNK     1      18.736  -4.212  13.531  1.00  0.00    -0.274 OA
HETATM   12  C14 UNK     1      20.697  -2.990  10.674  1.00  0.00     0.003 A 
HETATM   13  C13 UNK     1      20.944  -1.671  11.059  1.00  0.00     0.001 A 
HETATM   14  C9  UNK     1      18.216  -3.808  14.757  1.00  0.00     0.304 A 
HETATM   15  O3  UNK     1      17.571  -4.578  15.461  1.00  0.00    -0.259 OA
ENDBRANCH   3   5
BRANCH   2  16
HETATM   16  C2  UNK     1      18.693  -0.501  18.388  1.00  0.00     0.161 C 
BRANCH  16  17
HETATM   17  C4  UNK     1      19.141   0.936  18.392  1.00  0.00    -0.040 A 
HETATM   18  C11 UNK     1      19.569   1.514  19.579  1.00  0.00     0.012 A 
HETATM   19  C15 UNK     1      19.984   2.847  19.582  1.00  0.00     0.043 A 
HETATM   20  C17 UNK     1      19.966   3.586  18.400  1.00  0.00     0.116 A 
HETATM   21  C16 UNK     1      19.534   2.994  17.213  1.00  0.00     0.043 A 
HETATM   22  F1  UNK     1      20.365   4.865  18.404  1.00  0.00    -0.206 F 
HETATM   23  C12 UNK     1      19.119   1.662  17.210  1.00  0.00     0.012 A 
ENDBRANCH  16  17
ENDBRANCH   2  16
TORSDOF 3
ENDMDL
MODEL 10
REMARK VINA RESULT:      -8.4     22.708     24.838
REMARK  3 active torsions:
REMARK  status: ('A' for Active; 'I' for Inactive)
REMARK    1  A    between atoms: C2_7  and  N1_5 
REMARK       I    between atoms: C7_12  and  N1_5 
REMARK    2  A    between atoms: C2_7  and  C4_9 
REMARK    3  A    between atoms: C3_8  and  C7_12 
ROOT
HETATM    1  O2  UNK     1      13.076   7.235  10.535  1.00  0.00    -0.267 OA
HETATM    2  N1  UNK     1      13.858   6.168   8.616  1.00  0.00    -0.352 N 
HETATM    3  C7  UNK     1      13.875   7.133   9.607  1.00  0.00     0.258 C 
HETATM    4  H4  UNK     1      14.575   6.160   7.896  1.00  0.00     0.163 HD
ENDROOT
BRANCH   3   5
HETATM    5  C3  UNK     1      14.986   8.082   9.461  1.00  0.00     0.108 A 
HETATM    6  C6  UNK     1      14.699   9.238   8.852  1.00  0.00     0.037 A 
HETATM    7  C1  UNK     1      15.734  10.243   8.661  1.00  0.00    -0.001 A 
HETATM    8  C5  UNK     1      17.020   9.979   9.120  1.00  0.00     0.089 A 
HETATM    9  C8  UNK     1      15.480  11.463   8.031  1.00  0.00     0.014 A 
HETATM   10  C10 UNK     1      18.057  10.898   8.968  1.00  0.00     0.038 A 
HETATM   11  O1  UNK     1      17.316   8.759   9.760  1.00  0.00    -0.274 OA
HETATM   12  C14 UNK     1      17.794  12.113   8.339  1.00  0.00     0.003 A 
HETATM   13  C13 UNK     1      16.510  12.396   7.872  1.00  0.00     0.001 A 
HETATM   14  C9  UNK     1      16.347   7.780   9.959  1.00  0.00     0.304 A 
HETATM   15  O3  UNK     1      16.614   6.721  10.517  1.00  0.00    -0.259 OA
ENDBRANCH   3   5
BRANCH   2  16
HETATM   16  C2  UNK     1      12.860   5.124   8.549  1.00  0.00     0.161 C 
BRANCH  16  17
HETATM   17  C4  UNK     1      11.600   5.595   7.873  1.00  0.00    -0.040 A 
HETATM   18  C11 UNK     1      10.429   5.699   8.608  1.00  0.00     0.012 A 
HETATM   19  C15 UNK     1       9.261   6.135   7.980  1.00  0.00     0.043 A 
HETATM   20  C17 UNK     1       9.278   6.462   6.625  1.00  0.00     0.116 A 
HETATM   21  C16 UNK     1      10.462   6.353   5.896  1.00  0.00     0.043 A 
HETATM   22  F1  UNK     1       8.157   6.880   6.023  1.00  0.00    -0.206 F 
HETATM   23  C12 UNK     1      11.629   5.917   6.523  1.00  0.00     0.012 A 
ENDBRANCH  16  17
ENDBRANCH   2  16
TORSDOF 3
ENDMDL
