MODEL 1
REMARK VINA RESULT:      -9.1      0.000      0.000
REMARK  1 active torsions:
REMARK  status: ('A' for Active; 'I' for Inactive)
REMARK    1  A    between atoms: C10_17  and  C6_13 
ROOT
HETATM    1  O1  UNK     1      33.537 -10.569  33.662  1.00  0.00    -0.293 OA
HETATM    2  N1  UNK     1      29.168 -10.053  31.698  1.00  0.00    -0.357 N 
HETATM    3  N2  UNK     1      31.100  -7.777  32.059  1.00  0.00    -0.375 N 
HETATM    4  C1  UNK     1      31.675 -12.831  31.505  1.00  0.00    -0.036 C 
HETATM    5  C2  UNK     1      30.297 -12.182  31.710  1.00  0.00     0.067 C 
HETATM    6  C3  UNK     1      32.543 -12.507  32.720  1.00  0.00     0.092 C 
HETATM    7  C4  UNK     1      30.335 -10.699  32.053  1.00  0.00     0.022 C 
HETATM    8  C5  UNK     1      31.407 -10.153  32.668  1.00  0.00     0.037 C 
HETATM    9  C6  UNK     1      31.512  -8.711  33.093  1.00  0.00     0.160 C 
HETATM   10  C7  UNK     1      32.576 -11.030  33.043  1.00  0.00     0.160 C 
HETATM   11  C8  UNK     1      32.339 -12.325  30.207  1.00  0.00     0.015 C 
HETATM   12  C9  UNK     1      31.506 -14.356  31.393  1.00  0.00     0.015 C 
HETATM   13  C11 UNK     1      28.892  -8.696  31.439  1.00  0.00     0.059 A 
HETATM   14  C12 UNK     1      29.819  -7.647  31.548  1.00  0.00     0.055 A 
HETATM   15  C15 UNK     1      27.586  -8.399  30.981  1.00  0.00     0.032 A 
HETATM   16  C16 UNK     1      29.418  -6.351  31.150  1.00  0.00     0.031 A 
HETATM   17  C18 UNK     1      27.208  -7.110  30.611  1.00  0.00     0.002 A 
HETATM   18  C19 UNK     1      28.131  -6.082  30.687  1.00  0.00     0.002 A 
HETATM   19  H12 UNK     1      28.395 -10.679  31.488  1.00  0.00     0.166 HD
HETATM   20  H13 UNK     1      31.718  -6.984  31.915  1.00  0.00     0.160 HD
ENDROOT
BRANCH   9  21
HETATM   21  C10 UNK     1      30.802  -8.435  34.383  1.00  0.00     0.042 A 
HETATM   22  C13 UNK     1      30.960  -7.095  35.004  1.00  0.00     0.195 A 
HETATM   23  O3  UNK     1      31.650  -6.219  34.497  1.00  0.00    -0.287 OA
HETATM   24  C17 UNK     1      30.242  -6.875  36.274  1.00  0.00     0.052 A 
HETATM   25  C20 UNK     1      29.473  -7.910  36.806  1.00  0.00     0.111 A 
HETATM   26  C21 UNK     1      30.327  -5.648  36.936  1.00  0.00     0.042 A 
HETATM   27  O2  UNK     1      29.354  -9.134  36.198  1.00  0.00    -0.319 OA
HETATM   28  C22 UNK     1      28.785  -7.723  38.006  1.00  0.00     0.070 A 
HETATM   29  C14 UNK     1      30.028  -9.325  35.018  1.00  0.00     0.156 A 
HETATM   30 Cl1  UNK     1      27.819  -8.975  38.699  1.00  0.00    -0.081 Cl
HETATM   31  C24 UNK     1      28.868  -6.498  38.669  1.00  0.00     0.050 A 
HETATM   32  C23 UNK     1      29.638  -5.464  38.136  1.00  0.00     0.036 A 
HETATM   33 Cl2  UNK     1      29.738  -3.955  38.960  1.00  0.00    -0.084 Cl
ENDBRANCH   9  21
TORSDOF 1
ENDMDL
MODEL 2
REMARK VINA RESULT:      -9.0      3.614      7.112
REMARK  1 active torsions:
REMARK  status: ('A' for Active; 'I' for Inactive)
REMARK    1  A    between atoms: C10_17  and  C6_13 
ROOT
HETATM    1  O1  UNK     1      26.137  -9.292  36.248  1.00  0.00    -0.293 OA
HETATM    2  N1  UNK     1      30.802  -8.342  36.989  1.00  0.00    -0.357 N 
HETATM    3  N2  UNK     1      29.088  -6.811  35.050  1.00  0.00    -0.375 N 
HETATM    4  C1  UNK     1      28.082  -9.446  39.318  1.00  0.00    -0.036 C 
HETATM    5  C2  UNK     1      29.468  -9.465  38.653  1.00  0.00     0.067 C 
HETATM    6  C3  UNK     1      27.063  -9.990  38.318  1.00  0.00     0.092 C 
HETATM    7  C4  UNK     1      29.530  -8.787  37.291  1.00  0.00     0.022 C 
HETATM    8  C5  UNK     1      28.434  -8.698  36.505  1.00  0.00     0.037 C 
HETATM    9  C6  UNK     1      28.414  -8.095  35.125  1.00  0.00     0.160 C 
HETATM   10  C7  UNK     1      27.133  -9.302  36.973  1.00  0.00     0.160 C 
HETATM   11  C8  UNK     1      27.701  -8.021  39.768  1.00  0.00     0.015 C 
HETATM   12  C9  UNK     1      28.105 -10.351  40.563  1.00  0.00     0.015 C 
HETATM   13  C11 UNK     1      31.259  -7.351  36.100  1.00  0.00     0.059 A 
HETATM   14  C12 UNK     1      30.443  -6.595  35.243  1.00  0.00     0.055 A 
HETATM   15  C15 UNK     1      32.648  -7.076  36.128  1.00  0.00     0.032 A 
HETATM   16  C16 UNK     1      31.039  -5.561  34.485  1.00  0.00     0.031 A 
HETATM   17  C18 UNK     1      33.216  -6.063  35.359  1.00  0.00     0.002 A 
HETATM   18  C19 UNK     1      32.407  -5.295  34.540  1.00  0.00     0.002 A 
HETATM   19  H12 UNK     1      31.528  -8.728  37.587  1.00  0.00     0.166 HD
HETATM   20  H13 UNK     1      28.591  -6.084  34.545  1.00  0.00     0.160 HD
ENDROOT
BRANCH   9  21
HETATM   21  C10 UNK     1      28.923  -9.034  34.075  1.00  0.00     0.042 A 
HETATM   22  C13 UNK     1      28.769  -8.651  32.648  1.00  0.00     0.195 A 
HETATM   23  O3  UNK     1      28.240  -7.600  32.310  1.00  0.00    -0.287 OA
HETATM   24  C17 UNK     1      29.286  -9.610  31.655  1.00  0.00     0.052 A 
HETATM   25  C20 UNK     1      29.877 -10.793  32.098  1.00  0.00     0.111 A 
HETATM   26  C21 UNK     1      29.188  -9.341  30.287  1.00  0.00     0.042 A 
HETATM   27  O2  UNK     1      30.000 -11.108  33.427  1.00  0.00    -0.319 OA
HETATM   28  C22 UNK     1      30.374 -11.715  31.175  1.00  0.00     0.070 A 
HETATM   29  C14 UNK     1      29.514 -10.206  34.341  1.00  0.00     0.156 A 
HETATM   30 Cl1  UNK     1      31.117 -13.190  31.680  1.00  0.00    -0.081 Cl
HETATM   31  C24 UNK     1      30.278 -11.448  29.809  1.00  0.00     0.050 A 
HETATM   32  C23 UNK     1      29.686 -10.265  29.366  1.00  0.00     0.036 A 
HETATM   33 Cl2  UNK     1      29.569  -9.942  27.679  1.00  0.00    -0.084 Cl
ENDBRANCH   9  21
TORSDOF 1
ENDMDL
MODEL 3
REMARK VINA RESULT:      -8.9      3.624      7.391
REMARK  1 active torsions:
REMARK  status: ('A' for Active; 'I' for Inactive)
REMARK    1  A    between atoms: C10_17  and  C6_13 
ROOT
HETATM    1  O1  UNK     1      27.401  -6.743  35.250  1.00  0.00    -0.293 OA
HETATM    2  N1  UNK     1      31.745  -7.250  37.273  1.00  0.00    -0.357 N 
HETATM    3  N2  UNK     1      31.158  -5.274  35.083  1.00  0.00    -0.375 N 
HETATM    4  C1  UNK     1      28.288  -7.474  38.701  1.00  0.00    -0.036 C 
HETATM    5  C2  UNK     1      29.735  -7.912  38.427  1.00  0.00     0.067 C 
HETATM    6  C3  UNK     1      27.473  -7.686  37.426  1.00  0.00     0.092 C 
HETATM    7  C4  UNK     1      30.366  -7.288  37.190  1.00  0.00     0.022 C 
HETATM    8  C5  UNK     1      29.607  -6.873  36.153  1.00  0.00     0.037 C 
HETATM    9  C6  UNK     1      30.146  -6.294  34.871  1.00  0.00     0.160 C 
HETATM   10  C7  UNK     1      28.110  -7.053  36.209  1.00  0.00     0.160 C 
HETATM   11  C8  UNK     1      28.229  -6.000  39.151  1.00  0.00     0.015 C 
HETATM   12  C9  UNK     1      27.700  -8.341  39.829  1.00  0.00     0.015 C 
HETATM   13  C11 UNK     1      32.698  -6.445  36.621  1.00  0.00     0.059 A 
HETATM   14  C12 UNK     1      32.409  -5.478  35.644  1.00  0.00     0.055 A 
HETATM   15  C15 UNK     1      34.042  -6.603  37.038  1.00  0.00     0.032 A 
HETATM   16  C16 UNK     1      33.466  -4.675  35.159  1.00  0.00     0.031 A 
HETATM   17  C18 UNK     1      35.071  -5.811  36.532  1.00  0.00     0.002 A 
HETATM   18  C19 UNK     1      34.780  -4.836  35.594  1.00  0.00     0.002 A 
HETATM   19  H12 UNK     1      32.132  -7.836  38.008  1.00  0.00     0.166 HD
HETATM   20  H13 UNK     1      31.055  -4.431  34.526  1.00  0.00     0.160 HD
ENDROOT
BRANCH   9  21
HETATM   21  C10 UNK     1      30.629  -7.344  33.919  1.00  0.00     0.042 A 
HETATM   22  C13 UNK     1      30.944  -6.944  32.524  1.00  0.00     0.195 A 
HETATM   23  O3  UNK     1      30.818  -5.791  32.133  1.00  0.00    -0.287 OA
HETATM   24  C17 UNK     1      31.416  -8.016  31.627  1.00  0.00     0.052 A 
HETATM   25  C20 UNK     1      31.537  -9.313  32.127  1.00  0.00     0.111 A 
HETATM   26  C21 UNK     1      31.737  -7.741  30.296  1.00  0.00     0.042 A 
HETATM   27  O2  UNK     1      31.236  -9.640  33.424  1.00  0.00    -0.319 OA
HETATM   28  C22 UNK     1      31.983 -10.343  31.296  1.00  0.00     0.070 A 
HETATM   29  C14 UNK     1      30.798  -8.632  34.248  1.00  0.00     0.156 A 
HETATM   30 Cl1  UNK     1      32.151 -11.961  31.873  1.00  0.00    -0.081 Cl
HETATM   31  C24 UNK     1      32.304 -10.070  29.966  1.00  0.00     0.050 A 
HETATM   32  C23 UNK     1      32.181  -8.773  29.467  1.00  0.00     0.036 A 
HETATM   33 Cl2  UNK     1      32.580  -8.443  27.825  1.00  0.00    -0.084 Cl
ENDBRANCH   9  21
TORSDOF 1
ENDMDL
MODEL 4
REMARK VINA RESULT:      -8.8      3.189      5.271
REMARK  1 active torsions:
REMARK  status: ('A' for Active; 'I' for Inactive)
REMARK    1  A    between atoms: C10_17  and  C6_13 
ROOT
HETATM    1  O1  UNK     1      29.147  -9.874  32.487  1.00  0.00    -0.293 OA
HETATM    2  N1  UNK     1      30.210  -5.565  34.362  1.00  0.00    -0.357 N 
HETATM    3  N2  UNK     1      31.739  -8.072  35.004  1.00  0.00    -0.375 N 
HETATM    4  C1  UNK     1      28.973  -6.572  30.971  1.00  0.00    -0.036 C 
HETATM    5  C2  UNK     1      29.010  -5.770  32.282  1.00  0.00     0.067 C 
HETATM    6  C3  UNK     1      28.425  -7.965  31.278  1.00  0.00     0.092 C 
HETATM    7  C4  UNK     1      29.722  -6.464  33.434  1.00  0.00     0.022 C 
HETATM    8  C5  UNK     1      29.799  -7.812  33.496  1.00  0.00     0.037 C 
HETATM    9  C6  UNK     1      30.435  -8.585  34.622  1.00  0.00     0.160 C 
HETATM   10  C7  UNK     1      29.148  -8.643  32.420  1.00  0.00     0.160 C 
HETATM   11  C8  UNK     1      30.375  -6.662  30.335  1.00  0.00     0.015 C 
HETATM   12  C9  UNK     1      28.039  -5.867  29.971  1.00  0.00     0.015 C 
HETATM   13  C11 UNK     1      31.235  -5.674  35.321  1.00  0.00     0.059 A 
HETATM   14  C12 UNK     1      31.989  -6.832  35.570  1.00  0.00     0.055 A 
HETATM   15  C15 UNK     1      31.549  -4.495  36.040  1.00  0.00     0.032 A 
HETATM   16  C16 UNK     1      33.058  -6.754  36.492  1.00  0.00     0.031 A 
HETATM   17  C18 UNK     1      32.596  -4.447  36.958  1.00  0.00     0.002 A 
HETATM   18  C19 UNK     1      33.360  -5.579  37.179  1.00  0.00     0.002 A 
HETATM   19  H12 UNK     1      29.830  -4.626  34.268  1.00  0.00     0.166 HD
HETATM   20  H13 UNK     1      32.465  -8.772  35.133  1.00  0.00     0.160 HD
ENDROOT
BRANCH   9  21
HETATM   21  C10 UNK     1      29.537  -8.718  35.814  1.00  0.00     0.042 A 
HETATM   22  C13 UNK     1      30.052  -9.428  37.012  1.00  0.00     0.195 A 
HETATM   23  O3  UNK     1      31.179  -9.905  37.052  1.00  0.00    -0.287 OA
HETATM   24  C17 UNK     1      29.128  -9.532  38.157  1.00  0.00     0.052 A 
HETATM   25  C20 UNK     1      27.855  -8.971  38.054  1.00  0.00     0.111 A 
HETATM   26  C21 UNK     1      29.519 -10.181  39.331  1.00  0.00     0.042 A 
HETATM   27  O2  UNK     1      27.419  -8.322  36.927  1.00  0.00    -0.319 OA
HETATM   28  C22 UNK     1      26.965  -9.057  39.126  1.00  0.00     0.070 A 
HETATM   29  C14 UNK     1      28.290  -8.233  35.869  1.00  0.00     0.156 A 
HETATM   30 Cl1  UNK     1      25.382  -8.374  39.043  1.00  0.00    -0.081 Cl
HETATM   31  C24 UNK     1      27.353  -9.705  40.299  1.00  0.00     0.050 A 
HETATM   32  C23 UNK     1      28.627 -10.267  40.400  1.00  0.00     0.036 A 
HETATM   33 Cl2  UNK     1      29.100 -11.066  41.850  1.00  0.00    -0.084 Cl
ENDBRANCH   9  21
TORSDOF 1
ENDMDL
MODEL 5
REMARK VINA RESULT:      -8.7      3.524      7.044
REMARK  1 active torsions:
REMARK  status: ('A' for Active; 'I' for Inactive)
REMARK    1  A    between atoms: C10_17  and  C6_13 
ROOT
HETATM    1  O1  UNK     1      30.892  -8.844  37.963  1.00  0.00    -0.293 OA
HETATM    2  N1  UNK     1      30.459  -5.456  34.566  1.00  0.00    -0.357 N 
HETATM    3  N2  UNK     1      30.016  -8.384  34.049  1.00  0.00    -0.375 N 
HETATM    4  C1  UNK     1      29.620  -5.446  38.218  1.00  0.00    -0.036 C 
HETATM    5  C2  UNK     1      30.229  -4.927  36.906  1.00  0.00     0.067 C 
HETATM    6  C3  UNK     1      30.456  -6.631  38.698  1.00  0.00     0.092 C 
HETATM    7  C4  UNK     1      30.447  -5.990  35.839  1.00  0.00     0.022 C 
HETATM    8  C5  UNK     1      30.636  -7.286  36.174  1.00  0.00     0.037 C 
HETATM    9  C6  UNK     1      30.911  -8.395  35.192  1.00  0.00     0.160 C 
HETATM   10  C7  UNK     1      30.657  -7.682  37.629  1.00  0.00     0.160 C 
HETATM   11  C8  UNK     1      28.147  -5.859  38.021  1.00  0.00     0.015 C 
HETATM   12  C9  UNK     1      29.666  -4.329  39.276  1.00  0.00     0.015 C 
HETATM   13  C11 UNK     1      30.221  -6.036  33.305  1.00  0.00     0.059 A 
HETATM   14  C12 UNK     1      29.951  -7.396  33.079  1.00  0.00     0.055 A 
HETATM   15  C15 UNK     1      30.205  -5.151  32.200  1.00  0.00     0.032 A 
HETATM   16  C16 UNK     1      29.628  -7.808  31.767  1.00  0.00     0.031 A 
HETATM   17  C18 UNK     1      29.901  -5.584  30.911  1.00  0.00     0.002 A 
HETATM   18  C19 UNK     1      29.602  -6.918  30.694  1.00  0.00     0.002 A 
HETATM   19  H12 UNK     1      30.557  -4.444  34.543  1.00  0.00     0.166 HD
HETATM   20  H13 UNK     1      29.625  -9.285  33.789  1.00  0.00     0.160 HD
ENDROOT
BRANCH   9  21
HETATM   21  C10 UNK     1      32.343  -8.441  34.756  1.00  0.00     0.042 A 
HETATM   22  C13 UNK     1      32.759  -9.500  33.801  1.00  0.00     0.195 A 
HETATM   23  O3  UNK     1      31.971 -10.330  33.367  1.00  0.00    -0.287 OA
HETATM   24  C17 UNK     1      34.179  -9.501  33.404  1.00  0.00     0.052 A 
HETATM   25  C20 UNK     1      35.032  -8.532  33.933  1.00  0.00     0.111 A 
HETATM   26  C21 UNK     1      34.668 -10.457  32.511  1.00  0.00     0.042 A 
HETATM   27  O2  UNK     1      34.606  -7.570  34.813  1.00  0.00    -0.319 OA
HETATM   28  C22 UNK     1      36.380  -8.514  33.571  1.00  0.00     0.070 A 
HETATM   29  C14 UNK     1      33.281  -7.581  35.174  1.00  0.00     0.156 A 
HETATM   30 Cl1  UNK     1      37.469  -7.330  34.198  1.00  0.00    -0.081 Cl
HETATM   31  C24 UNK     1      36.870  -9.468  32.678  1.00  0.00     0.050 A 
HETATM   32  C23 UNK     1      36.017 -10.437  32.151  1.00  0.00     0.036 A 
HETATM   33 Cl2  UNK     1      36.628 -11.612  31.050  1.00  0.00    -0.084 Cl
ENDBRANCH   9  21
TORSDOF 1
ENDMDL
MODEL 6
REMARK VINA RESULT:      -8.6      1.278      1.502
REMARK  1 active torsions:
REMARK  status: ('A' for Active; 'I' for Inactive)
REMARK    1  A    between atoms: C10_17  and  C6_13 
ROOT
HETATM    1  O1  UNK     1      34.465  -8.294  34.021  1.00  0.00    -0.293 OA
HETATM    2  N1  UNK     1      30.225  -9.497  32.075  1.00  0.00    -0.357 N 
HETATM    3  N2  UNK     1      31.182  -6.659  32.334  1.00  0.00    -0.375 N 
HETATM    4  C1  UNK     1      33.581 -11.162  31.966  1.00  0.00    -0.036 C 
HETATM    5  C2  UNK     1      32.059 -11.059  32.158  1.00  0.00     0.067 C 
HETATM    6  C3  UNK     1      34.260 -10.496  33.161  1.00  0.00     0.092 C 
HETATM    7  C4  UNK     1      31.547  -9.655  32.445  1.00  0.00     0.022 C 
HETATM    8  C5  UNK     1      32.338  -8.729  33.030  1.00  0.00     0.037 C 
HETATM    9  C6  UNK     1      31.902  -7.335  33.399  1.00  0.00     0.160 C 
HETATM   10  C7  UNK     1      33.745  -9.099  33.428  1.00  0.00     0.160 C 
HETATM   11  C8  UNK     1      34.020 -10.498  30.645  1.00  0.00     0.015 C 
HETATM   12  C9  UNK     1      33.986 -12.646  31.913  1.00  0.00     0.015 C 
HETATM   13  C11 UNK     1      29.471  -8.349  31.767  1.00  0.00     0.059 A 
HETATM   14  C12 UNK     1      29.946  -7.029  31.829  1.00  0.00     0.055 A 
HETATM   15  C15 UNK     1      28.150  -8.571  31.309  1.00  0.00     0.032 A 
HETATM   16  C16 UNK     1      29.099  -5.988  31.386  1.00  0.00     0.031 A 
HETATM   17  C18 UNK     1      27.326  -7.527  30.894  1.00  0.00     0.002 A 
HETATM   18  C19 UNK     1      27.806  -6.229  30.924  1.00  0.00     0.002 A 
HETATM   19  H12 UNK     1      29.739 -10.372  31.895  1.00  0.00     0.166 HD
HETATM   20  H13 UNK     1      31.465  -5.700  32.155  1.00  0.00     0.160 HD
ENDROOT
BRANCH   9  21
HETATM   21  C10 UNK     1      31.133  -7.290  34.684  1.00  0.00     0.042 A 
HETATM   22  C13 UNK     1      31.093  -6.013  35.440  1.00  0.00     0.195 A 
HETATM   23  O3  UNK     1      31.668  -5.006  35.048  1.00  0.00    -0.287 OA
HETATM   24  C17 UNK     1      30.323  -6.022  36.698  1.00  0.00     0.052 A 
HETATM   25  C20 UNK     1      29.690  -7.200  37.097  1.00  0.00     0.111 A 
HETATM   26  C21 UNK     1      30.225  -4.870  37.482  1.00  0.00     0.042 A 
HETATM   27  O2  UNK     1      29.752  -8.359  36.367  1.00  0.00    -0.319 OA
HETATM   28  C22 UNK     1      28.955  -7.231  38.283  1.00  0.00     0.070 A 
HETATM   29  C14 UNK     1      30.473  -8.336  35.198  1.00  0.00     0.156 A 
HETATM   30 Cl1  UNK     1      28.153  -8.665  38.813  1.00  0.00    -0.081 Cl
HETATM   31  C24 UNK     1      28.857  -6.081  39.068  1.00  0.00     0.050 A 
HETATM   32  C23 UNK     1      29.491  -4.904  38.669  1.00  0.00     0.036 A 
HETATM   33 Cl2  UNK     1      29.366  -3.489  39.641  1.00  0.00    -0.084 Cl
ENDBRANCH   9  21
TORSDOF 1
ENDMDL
MODEL 7
REMARK VINA RESULT:      -8.5      1.495      1.747
REMARK  1 active torsions:
REMARK  status: ('A' for Active; 'I' for Inactive)
REMARK    1  A    between atoms: C10_17  and  C6_13 
ROOT
HETATM    1  O1  UNK     1      34.054 -11.320  33.077  1.00  0.00    -0.293 OA
HETATM    2  N1  UNK     1      29.477 -10.519  31.805  1.00  0.00    -0.357 N 
HETATM    3  N2  UNK     1      31.734  -8.651  31.130  1.00  0.00    -0.375 N 
HETATM    4  C1  UNK     1      31.479 -13.677  32.053  1.00  0.00    -0.036 C 
HETATM    5  C2  UNK     1      30.280 -12.742  32.277  1.00  0.00     0.067 C 
HETATM    6  C3  UNK     1      32.625 -13.210  32.950  1.00  0.00     0.092 C 
HETATM    7  C4  UNK     1      30.594 -11.259  32.141  1.00  0.00     0.022 C 
HETATM    8  C5  UNK     1      31.838 -10.785  32.373  1.00  0.00     0.037 C 
HETATM    9  C6  UNK     1      32.227  -9.331  32.315  1.00  0.00     0.160 C 
HETATM   10  C7  UNK     1      32.929 -11.736  32.797  1.00  0.00     0.160 C 
HETATM   11  C8  UNK     1      31.910 -13.682  30.571  1.00  0.00     0.015 C 
HETATM   12  C9  UNK     1      31.083 -15.113  32.441  1.00  0.00     0.015 C 
HETATM   13  C11 UNK     1      29.339  -9.258  31.195  1.00  0.00     0.059 A 
HETATM   14  C12 UNK     1      30.403  -8.419  30.824  1.00  0.00     0.055 A 
HETATM   15  C15 UNK     1      28.018  -8.848  30.893  1.00  0.00     0.032 A 
HETATM   16  C16 UNK     1      30.107  -7.228  30.122  1.00  0.00     0.031 A 
HETATM   17  C18 UNK     1      27.749  -7.660  30.216  1.00  0.00     0.002 A 
HETATM   18  C19 UNK     1      28.799  -6.850  29.821  1.00  0.00     0.002 A 
HETATM   19  H12 UNK     1      28.599 -11.017  31.928  1.00  0.00     0.166 HD
HETATM   20  H13 UNK     1      32.408  -8.063  30.649  1.00  0.00     0.160 HD
ENDROOT
BRANCH   9  21
HETATM   21  C10 UNK     1      31.858  -8.582  33.559  1.00  0.00     0.042 A 
HETATM   22  C13 UNK     1      32.230  -7.147  33.658  1.00  0.00     0.195 A 
HETATM   23  O3  UNK     1      32.825  -6.566  32.760  1.00  0.00    -0.287 OA
HETATM   24  C17 UNK     1      31.844  -6.457  34.902  1.00  0.00     0.052 A 
HETATM   25  C20 UNK     1      31.168  -7.170  35.892  1.00  0.00     0.111 A 
HETATM   26  C21 UNK     1      32.148  -5.106  35.091  1.00  0.00     0.042 A 
HETATM   27  O2  UNK     1      30.844  -8.497  35.760  1.00  0.00    -0.319 OA
HETATM   28  C22 UNK     1      30.793  -6.537  37.078  1.00  0.00     0.070 A 
HETATM   29  C14 UNK     1      31.210  -9.127  34.596  1.00  0.00     0.156 A 
HETATM   30 Cl1  UNK     1      29.953  -7.381  38.328  1.00  0.00    -0.081 Cl
HETATM   31  C24 UNK     1      31.096  -5.188  37.269  1.00  0.00     0.050 A 
HETATM   32  C23 UNK     1      31.773  -4.475  36.278  1.00  0.00     0.036 A 
HETATM   33 Cl2  UNK     1      32.144  -2.811  36.520  1.00  0.00    -0.084 Cl
ENDBRANCH   9  21
TORSDOF 1
ENDMDL
MODEL 8
REMARK VINA RESULT:      -8.5      2.657      4.497
REMARK  1 active torsions:
REMARK  status: ('A' for Active; 'I' for Inactive)
REMARK    1  A    between atoms: C10_17  and  C6_13 
ROOT
HETATM    1  O1  UNK     1      33.292  -5.007  36.324  1.00  0.00    -0.293 OA
HETATM    2  N1  UNK     1      32.448  -8.857  33.553  1.00  0.00    -0.357 N 
HETATM    3  N2  UNK     1      30.549  -6.538  33.789  1.00  0.00    -0.375 N 
HETATM    4  C1  UNK     1      35.609  -7.017  34.368  1.00  0.00    -0.036 C 
HETATM    5  C2  UNK     1      34.687  -8.234  34.191  1.00  0.00     0.067 C 
HETATM    6  C3  UNK     1      35.178  -6.268  35.629  1.00  0.00     0.092 C 
HETATM    7  C4  UNK     1      33.199  -7.917  34.232  1.00  0.00     0.022 C 
HETATM    8  C5  UNK     1      32.732  -6.843  34.905  1.00  0.00     0.037 C 
HETATM    9  C6  UNK     1      31.276  -6.482  35.045  1.00  0.00     0.160 C 
HETATM   10  C7  UNK     1      33.698  -5.955  35.650  1.00  0.00     0.160 C 
HETATM   11  C8  UNK     1      35.551  -6.092  33.135  1.00  0.00     0.015 C 
HETATM   12  C9  UNK     1      37.061  -7.500  34.536  1.00  0.00     0.015 C 
HETATM   13  C11 UNK     1      31.163  -8.792  32.983  1.00  0.00     0.059 A 
HETATM   14  C12 UNK     1      30.307  -7.680  33.043  1.00  0.00     0.055 A 
HETATM   15  C15 UNK     1      30.744  -9.929  32.250  1.00  0.00     0.032 A 
HETATM   16  C16 UNK     1      29.088  -7.731  32.328  1.00  0.00     0.031 A 
HETATM   17  C18 UNK     1      29.529  -9.962  31.569  1.00  0.00     0.002 A 
HETATM   18  C19 UNK     1      28.701  -8.854  31.600  1.00  0.00     0.002 A 
HETATM   19  H12 UNK     1      32.953  -9.714  33.339  1.00  0.00     0.166 HD
HETATM   20  H13 UNK     1      29.939  -5.748  33.600  1.00  0.00     0.160 HD
ENDROOT
BRANCH   9  21
HETATM   21  C10 UNK     1      30.581  -7.278  36.106  1.00  0.00     0.042 A 
HETATM   22  C13 UNK     1      29.135  -7.034  36.341  1.00  0.00     0.195 A 
HETATM   23  O3  UNK     1      28.502  -6.206  35.699  1.00  0.00    -0.287 OA
HETATM   24  C17 UNK     1      28.499  -7.842  37.398  1.00  0.00     0.052 A 
HETATM   25  C20 UNK     1      29.271  -8.769  38.099  1.00  0.00     0.111 A 
HETATM   26  C21 UNK     1      27.143  -7.686  37.695  1.00  0.00     0.042 A 
HETATM   27  O2  UNK     1      30.605  -8.964  37.850  1.00  0.00    -0.319 OA
HETATM   28  C22 UNK     1      28.689  -9.546  39.103  1.00  0.00     0.070 A 
HETATM   29  C14 UNK     1      31.184  -8.204  36.864  1.00  0.00     0.156 A 
HETATM   30 Cl1  UNK     1      29.605 -10.707  39.993  1.00  0.00    -0.081 Cl
HETATM   31  C24 UNK     1      27.335  -9.392  39.401  1.00  0.00     0.050 A 
HETATM   32  C23 UNK     1      26.564  -8.464  38.700  1.00  0.00     0.036 A 
HETATM   33 Cl2  UNK     1      24.893  -8.278  39.072  1.00  0.00    -0.084 Cl
ENDBRANCH   9  21
TORSDOF 1
ENDMDL
MODEL 9
REMARK VINA RESULT:      -8.3      3.242      6.921
REMARK  1 active torsions:
REMARK  status: ('A' for Active; 'I' for Inactive)
REMARK    1  A    between atoms: C10_17  and  C6_13 
ROOT
HETATM    1  O1  UNK     1      30.381  -9.293  37.525  1.00  0.00    -0.293 OA
HETATM    2  N1  UNK     1      29.760  -5.845  34.217  1.00  0.00    -0.357 N 
HETATM    3  N2  UNK     1      28.742  -8.655  33.890  1.00  0.00    -0.375 N 
HETATM    4  C1  UNK     1      29.769  -5.734  37.963  1.00  0.00    -0.036 C 
HETATM    5  C2  UNK     1      30.148  -5.309  36.535  1.00  0.00     0.067 C 
HETATM    6  C3  UNK     1      30.487  -7.046  38.278  1.00  0.00     0.092 C 
HETATM    7  C4  UNK     1      29.946  -6.383  35.476  1.00  0.00     0.022 C 
HETATM    8  C5  UNK     1      29.990  -7.695  35.795  1.00  0.00     0.037 C 
HETATM    9  C6  UNK     1      29.855  -8.825  34.808  1.00  0.00     0.160 C 
HETATM   10  C7  UNK     1      30.270  -8.104  37.220  1.00  0.00     0.160 C 
HETATM   11  C8  UNK     1      28.242  -5.896  38.108  1.00  0.00     0.015 C 
HETATM   12  C9  UNK     1      30.232  -4.651  38.954  1.00  0.00     0.015 C 
HETATM   13  C11 UNK     1      29.157  -6.366  33.057  1.00  0.00     0.059 A 
HETATM   14  C12 UNK     1      28.625  -7.660  32.933  1.00  0.00     0.055 A 
HETATM   15  C15 UNK     1      29.039  -5.479  31.960  1.00  0.00     0.032 A 
HETATM   16  C16 UNK     1      27.954  -8.000  31.736  1.00  0.00     0.031 A 
HETATM   17  C18 UNK     1      28.389  -5.843  30.782  1.00  0.00     0.002 A 
HETATM   18  C19 UNK     1      27.836  -7.106  30.673  1.00  0.00     0.002 A 
HETATM   19  H12 UNK     1      30.015  -4.863  34.146  1.00  0.00     0.166 HD
HETATM   20  H13 UNK     1      28.161  -9.476  33.749  1.00  0.00     0.160 HD
ENDROOT
BRANCH   9  21
HETATM   21  C10 UNK     1      31.127  -9.102  34.066  1.00  0.00     0.042 A 
HETATM   22  C13 UNK     1      31.157 -10.242  33.115  1.00  0.00     0.195 A 
HETATM   23  O3  UNK     1      30.182 -10.956  32.923  1.00  0.00    -0.287 OA
HETATM   24  C17 UNK     1      32.433 -10.472  32.412  1.00  0.00     0.052 A 
HETATM   25  C20 UNK     1      33.513  -9.628  32.672  1.00  0.00     0.111 A 
HETATM   26  C21 UNK     1      32.563 -11.520  31.497  1.00  0.00     0.042 A 
HETATM   27  O2  UNK     1      33.441  -8.584  33.559  1.00  0.00    -0.319 OA
HETATM   28  C22 UNK     1      34.729  -9.827  32.017  1.00  0.00     0.070 A 
HETATM   29  C14 UNK     1      32.248  -8.382  34.207  1.00  0.00     0.156 A 
HETATM   30 Cl1  UNK     1      36.089  -8.804  32.305  1.00  0.00    -0.081 Cl
HETATM   31  C24 UNK     1      34.861 -10.872  31.103  1.00  0.00     0.050 A 
HETATM   32  C23 UNK     1      33.781 -11.717  30.844  1.00  0.00     0.036 A 
HETATM   33 Cl2  UNK     1      33.950 -13.006  29.715  1.00  0.00    -0.084 Cl
ENDBRANCH   9  21
TORSDOF 1
ENDMDL
MODEL 10
REMARK VINA RESULT:      -8.3      3.503      6.091
REMARK  1 active torsions:
REMARK  status: ('A' for Active; 'I' for Inactive)
REMARK    1  A    between atoms: C10_17  and  C6_13 
ROOT
HETATM    1  O1  UNK     1      33.915 -11.397  30.290  1.00  0.00    -0.293 OA
HETATM    2  N1  UNK     1      34.059  -9.014  34.474  1.00  0.00    -0.357 N 
HETATM    3  N2  UNK     1      31.833 -10.885  33.711  1.00  0.00    -0.375 N 
HETATM    4  C1  UNK     1      36.764 -10.554  32.388  1.00  0.00    -0.036 C 
HETATM    5  C2  UNK     1      36.063  -9.463  33.213  1.00  0.00     0.067 C 
HETATM    6  C3  UNK     1      36.045 -10.674  31.045  1.00  0.00     0.092 C 
HETATM    7  C4  UNK     1      34.556  -9.631  33.343  1.00  0.00     0.022 C 
HETATM    8  C5  UNK     1      33.844 -10.291  32.403  1.00  0.00     0.037 C 
HETATM    9  C6  UNK     1      32.347 -10.460  32.421  1.00  0.00     0.160 C 
HETATM   10  C7  UNK     1      34.550 -10.849  31.192  1.00  0.00     0.160 C 
HETATM   11  C8  UNK     1      36.761 -11.903  33.135  1.00  0.00     0.015 C 
HETATM   12  C9  UNK     1      38.228 -10.145  32.145  1.00  0.00     0.015 C 
HETATM   13  C11 UNK     1      32.878  -9.223  35.212  1.00  0.00     0.059 A 
HETATM   14  C12 UNK     1      31.873 -10.147  34.883  1.00  0.00     0.055 A 
HETATM   15  C15 UNK     1      32.742  -8.472  36.404  1.00  0.00     0.032 A 
HETATM   16  C16 UNK     1      30.796 -10.318  35.782  1.00  0.00     0.031 A 
HETATM   17  C18 UNK     1      31.662  -8.644  37.267  1.00  0.00     0.002 A 
HETATM   18  C19 UNK     1      30.688  -9.578  36.959  1.00  0.00     0.002 A 
HETATM   19  H12 UNK     1      34.708  -8.362  34.909  1.00  0.00     0.166 HD
HETATM   20  H13 UNK     1      31.152 -11.639  33.685  1.00  0.00     0.160 HD
ENDROOT
BRANCH   9  21
HETATM   21  C10 UNK     1      31.621  -9.247  31.925  1.00  0.00     0.042 A 
HETATM   22  C13 UNK     1      30.141  -9.301  31.824  1.00  0.00     0.195 A 
HETATM   23  O3  UNK     1      29.503 -10.301  32.130  1.00  0.00    -0.287 OA
HETATM   24  C17 UNK     1      29.474  -8.082  31.329  1.00  0.00     0.052 A 
HETATM   25  C20 UNK     1      30.252  -6.974  30.992  1.00  0.00     0.111 A 
HETATM   26  C21 UNK     1      28.084  -8.033  31.198  1.00  0.00     0.042 A 
HETATM   27  O2  UNK     1      31.619  -6.966  31.101  1.00  0.00    -0.319 OA
HETATM   28  C22 UNK     1      29.643  -5.809  30.523  1.00  0.00     0.070 A 
HETATM   29  C14 UNK     1      32.226  -8.108  31.563  1.00  0.00     0.156 A 
HETATM   30 Cl1  UNK     1      30.566  -4.413  30.098  1.00  0.00    -0.081 Cl
HETATM   31  C24 UNK     1      28.255  -5.758  30.391  1.00  0.00     0.050 A 
HETATM   32  C23 UNK     1      27.478  -6.867  30.727  1.00  0.00     0.036 A 
HETATM   33 Cl2  UNK     1      25.765  -6.798  30.562  1.00  0.00    -0.084 Cl
ENDBRANCH   9  21
TORSDOF 1
ENDMDL
