MODEL 1
REMARK VINA RESULT:      -8.1      0.000      0.000
REMARK  7 active torsions:
REMARK  status: ('A' for Active; 'I' for Inactive)
REMARK    1  A    between atoms: C11_17  and  O2_2 
REMARK    2  A    between atoms: C14_20  and  O2_2 
REMARK    3  A    between atoms: C12_18  and  O4_4 
REMARK    4  A    between atoms: C16_22  and  O5_5 
REMARK    5  A    between atoms: C23_29  and  O5_5 
REMARK    6  A    between atoms: C14_20  and  C15_21 
REMARK    7  A    between atoms: C14_20  and  C16_22 
ROOT
HETATM    1  O1  UNK     1      20.887  -3.683  33.232  1.00  0.00    -0.271 OA
HETATM    2  O3  UNK     1      21.694  -4.246  31.181  1.00  0.00    -0.259 OA
HETATM    3  C1  UNK     1      19.161  -0.094  31.514  1.00  0.00     0.040 C 
HETATM    4  C2  UNK     1      19.123  -0.060  29.984  1.00  0.00     0.005 C 
HETATM    5  C3  UNK     1      19.798  -1.339  32.092  1.00  0.00    -0.033 A 
HETATM    6  C4  UNK     1      20.440  -0.541  29.398  1.00  0.00     0.005 C 
HETATM    7  C5  UNK     1      20.737  -1.969  29.851  1.00  0.00     0.045 C 
HETATM    8  C6  UNK     1      20.492  -2.201  31.324  1.00  0.00     0.025 A 
HETATM    9  C7  UNK     1      19.650  -1.606  33.532  1.00  0.00     0.008 A 
HETATM   10  C8  UNK     1      20.198  -2.776  34.055  1.00  0.00     0.126 A 
HETATM   11  C9  UNK     1      21.077  -3.448  31.880  1.00  0.00     0.295 A 
HETATM   12  C10 UNK     1      18.995  -0.746  34.426  1.00  0.00     0.018 A 
HETATM   13  C11 UNK     1      20.102  -3.109  35.408  1.00  0.00     0.138 A 
HETATM   14  C12 UNK     1      19.442  -2.247  36.276  1.00  0.00     0.104 A 
HETATM   15  C13 UNK     1      18.891  -1.065  35.786  1.00  0.00     0.040 A 
ENDROOT
BRANCH  13  16
HETATM   16  O2  UNK     1      20.649  -4.264  35.876  1.00  0.00    -0.325 OA
BRANCH  16  17
HETATM   17  C14 UNK     1      19.748  -5.258  36.362  1.00  0.00     0.261 C 
BRANCH  17  18
HETATM   18  C15 UNK     1      20.352  -5.901  37.586  1.00  0.00    -0.019 A 
HETATM   19  C17 UNK     1      21.665  -5.615  37.928  1.00  0.00     0.010 A 
HETATM   20  C20 UNK     1      22.223  -6.210  39.059  1.00  0.00     0.001 A 
HETATM   21  C22 UNK     1      21.461  -7.085  39.834  1.00  0.00     0.000 A 
HETATM   22  C21 UNK     1      20.142  -7.364  39.479  1.00  0.00     0.001 A 
HETATM   23  C18 UNK     1      19.584  -6.768  38.348  1.00  0.00     0.010 A 
ENDBRANCH  17  18
BRANCH  17  24
HETATM   24  C16 UNK     1      19.468  -6.256  35.256  1.00  0.00     0.293 C 
HETATM   25  O6  UNK     1      18.375  -6.771  35.051  1.00  0.00    -0.262 OA
BRANCH  24  26
HETATM   26  O5  UNK     1      20.598  -6.466  34.520  1.00  0.00    -0.320 OA
BRANCH  26  27
HETATM   27  C23 UNK     1      20.881  -7.831  34.198  1.00  0.00     0.174 C 
HETATM   28  C24 UNK     1      21.341  -8.548  35.450  1.00  0.00     0.034 C 
ENDBRANCH  26  27
ENDBRANCH  24  26
ENDBRANCH  17  24
ENDBRANCH  16  17
ENDBRANCH  13  16
BRANCH  14  29
HETATM   29  O4  UNK     1      19.330  -2.541  37.600  1.00  0.00    -0.353 OA
HETATM   30  C19 UNK     1      18.457  -1.722  38.375  1.00  0.00     0.210 C 
ENDBRANCH  14  29
TORSDOF 7
ENDMDL
MODEL 2
REMARK VINA RESULT:      -7.9     27.145     29.836
REMARK  7 active torsions:
REMARK  status: ('A' for Active; 'I' for Inactive)
REMARK    1  A    between atoms: C11_17  and  O2_2 
REMARK    2  A    between atoms: C14_20  and  O2_2 
REMARK    3  A    between atoms: C12_18  and  O4_4 
REMARK    4  A    between atoms: C16_22  and  O5_5 
REMARK    5  A    between atoms: C23_29  and  O5_5 
REMARK    6  A    between atoms: C14_20  and  C15_21 
REMARK    7  A    between atoms: C14_20  and  C16_22 
ROOT
HETATM    1  O1  UNK     1      14.983  10.248   8.063  1.00  0.00    -0.271 OA
HETATM    2  O3  UNK     1      15.171  12.270   7.035  1.00  0.00    -0.259 OA
HETATM    3  C1  UNK     1      18.686  11.033  10.179  1.00  0.00     0.040 C 
HETATM    4  C2  UNK     1      19.178  12.481  10.112  1.00  0.00     0.005 C 
HETATM    5  C3  UNK     1      17.412  10.773   9.406  1.00  0.00    -0.033 A 
HETATM    6  C4  UNK     1      19.062  13.028   8.700  1.00  0.00     0.005 C 
HETATM    7  C5  UNK     1      17.611  12.980   8.225  1.00  0.00     0.045 C 
HETATM    8  C6  UNK     1      16.915  11.675   8.538  1.00  0.00     0.025 A 
HETATM    9  C7  UNK     1      16.704   9.500   9.615  1.00  0.00     0.008 A 
HETATM   10  C8  UNK     1      15.507   9.281   8.937  1.00  0.00     0.126 A 
HETATM   11  C9  UNK     1      15.638  11.444   7.814  1.00  0.00     0.295 A 
HETATM   12  C10 UNK     1      17.166   8.474  10.454  1.00  0.00     0.018 A 
HETATM   13  C11 UNK     1      14.770   8.103   9.079  1.00  0.00     0.138 A 
HETATM   14  C12 UNK     1      15.241   7.103   9.921  1.00  0.00     0.104 A 
HETATM   15  C13 UNK     1      16.439   7.287  10.606  1.00  0.00     0.040 A 
ENDROOT
BRANCH  13  16
HETATM   16  O2  UNK     1      13.602   7.933   8.399  1.00  0.00    -0.325 OA
BRANCH  16  17
HETATM   17  C14 UNK     1      12.455   7.565   9.164  1.00  0.00     0.261 C 
BRANCH  17  18
HETATM   18  C15 UNK     1      11.374   7.098   8.220  1.00  0.00    -0.019 A 
HETATM   19  C17 UNK     1      11.639   7.030   6.861  1.00  0.00     0.010 A 
HETATM   20  C20 UNK     1      10.640   6.599   5.989  1.00  0.00     0.001 A 
HETATM   21  C22 UNK     1       9.387   6.242   6.487  1.00  0.00     0.000 A 
HETATM   22  C21 UNK     1       9.133   6.316   7.856  1.00  0.00     0.001 A 
HETATM   23  C18 UNK     1      10.133   6.746   8.728  1.00  0.00     0.010 A 
ENDBRANCH  17  18
BRANCH  17  24
HETATM   24  C16 UNK     1      12.023   8.748  10.008  1.00  0.00     0.293 C 
HETATM   25  O6  UNK     1      11.459   9.742   9.568  1.00  0.00    -0.262 OA
BRANCH  24  26
HETATM   26  O5  UNK     1      12.329   8.521  11.319  1.00  0.00    -0.320 OA
BRANCH  26  27
HETATM   27  C23 UNK     1      12.621   9.686  12.096  1.00  0.00     0.174 C 
HETATM   28  C24 UNK     1      14.107   9.727  12.385  1.00  0.00     0.034 C 
ENDBRANCH  26  27
ENDBRANCH  24  26
ENDBRANCH  17  24
ENDBRANCH  16  17
ENDBRANCH  13  16
BRANCH  14  29
HETATM   29  O4  UNK     1      14.547   5.943  10.082  1.00  0.00    -0.353 OA
HETATM   30  C19 UNK     1      15.247   4.727   9.824  1.00  0.00     0.210 C 
ENDBRANCH  14  29
TORSDOF 7
ENDMDL
MODEL 3
REMARK VINA RESULT:      -7.6      9.980     12.584
REMARK  7 active torsions:
REMARK  status: ('A' for Active; 'I' for Inactive)
REMARK    1  A    between atoms: C11_17  and  O2_2 
REMARK    2  A    between atoms: C14_20  and  O2_2 
REMARK    3  A    between atoms: C12_18  and  O4_4 
REMARK    4  A    between atoms: C16_22  and  O5_5 
REMARK    5  A    between atoms: C23_29  and  O5_5 
REMARK    6  A    between atoms: C14_20  and  C15_21 
REMARK    7  A    between atoms: C14_20  and  C16_22 
ROOT
HETATM    1  O1  UNK     1      31.131  -6.539  34.016  1.00  0.00    -0.271 OA
HETATM    2  O3  UNK     1      32.123  -4.579  34.609  1.00  0.00    -0.259 OA
HETATM    3  C1  UNK     1      29.088  -6.605  37.841  1.00  0.00     0.040 C 
HETATM    4  C2  UNK     1      29.138  -5.293  38.627  1.00  0.00     0.005 C 
HETATM    5  C3  UNK     1      29.835  -6.571  36.526  1.00  0.00    -0.033 A 
HETATM    6  C4  UNK     1      30.537  -4.700  38.603  1.00  0.00     0.005 C 
HETATM    7  C5  UNK     1      30.978  -4.429  37.166  1.00  0.00     0.045 C 
HETATM    8  C6  UNK     1      30.675  -5.564  36.216  1.00  0.00     0.025 A 
HETATM    9  C7  UNK     1      29.634  -7.671  35.569  1.00  0.00     0.008 A 
HETATM   10  C8  UNK     1      30.288  -7.616  34.340  1.00  0.00     0.126 A 
HETATM   11  C9  UNK     1      31.372  -5.503  34.905  1.00  0.00     0.295 A 
HETATM   12  C10 UNK     1      28.827  -8.791  35.819  1.00  0.00     0.018 A 
HETATM   13  C11 UNK     1      30.152  -8.614  33.373  1.00  0.00     0.138 A 
HETATM   14  C12 UNK     1      29.341  -9.711  33.637  1.00  0.00     0.104 A 
HETATM   15  C13 UNK     1      28.680  -9.801  34.860  1.00  0.00     0.040 A 
ENDROOT
BRANCH  13  16
HETATM   16  O2  UNK     1      30.807  -8.518  32.183  1.00  0.00    -0.325 OA
BRANCH  16  17
HETATM   17  C14 UNK     1      30.190  -7.730  31.166  1.00  0.00     0.261 C 
BRANCH  17  18
HETATM   18  C15 UNK     1      29.618  -8.654  30.119  1.00  0.00    -0.019 A 
HETATM   19  C17 UNK     1      30.472  -9.465  29.387  1.00  0.00     0.010 A 
HETATM   20  C20 UNK     1      29.943 -10.318  28.419  1.00  0.00     0.001 A 
HETATM   21  C22 UNK     1      28.567 -10.350  28.193  1.00  0.00     0.000 A 
HETATM   22  C21 UNK     1      27.720  -9.528  28.936  1.00  0.00     0.001 A 
HETATM   23  C18 UNK     1      28.249  -8.675  29.905  1.00  0.00     0.010 A 
ENDBRANCH  17  18
BRANCH  17  24
HETATM   24  C16 UNK     1      31.213  -6.766  30.597  1.00  0.00     0.293 C 
HETATM   25  O6  UNK     1      32.423  -6.956  30.609  1.00  0.00    -0.262 OA
BRANCH  24  26
HETATM   26  O5  UNK     1      30.581  -5.684  30.053  1.00  0.00    -0.320 OA
BRANCH  26  27
HETATM   27  C23 UNK     1      29.492  -5.157  30.817  1.00  0.00     0.174 C 
HETATM   28  C24 UNK     1      29.962  -3.927  31.563  1.00  0.00     0.034 C 
ENDBRANCH  26  27
ENDBRANCH  24  26
ENDBRANCH  17  24
ENDBRANCH  16  17
ENDBRANCH  13  16
BRANCH  14  29
HETATM   29  O4  UNK     1      29.186 -10.702  32.717  1.00  0.00    -0.353 OA
HETATM   30  C19 UNK     1      30.212 -11.690  32.648  1.00  0.00     0.210 C 
ENDBRANCH  14  29
TORSDOF 7
ENDMDL
MODEL 4
REMARK VINA RESULT:      -7.4     27.287     29.498
REMARK  7 active torsions:
REMARK  status: ('A' for Active; 'I' for Inactive)
REMARK    1  A    between atoms: C11_17  and  O2_2 
REMARK    2  A    between atoms: C14_20  and  O2_2 
REMARK    3  A    between atoms: C12_18  and  O4_4 
REMARK    4  A    between atoms: C16_22  and  O5_5 
REMARK    5  A    between atoms: C23_29  and  O5_5 
REMARK    6  A    between atoms: C14_20  and  C15_21 
REMARK    7  A    between atoms: C14_20  and  C16_22 
ROOT
HETATM    1  O1  UNK     1      11.707   8.193  10.076  1.00  0.00    -0.271 OA
HETATM    2  O3  UNK     1       9.532   8.841   9.922  1.00  0.00    -0.259 OA
HETATM    3  C1  UNK     1      11.170   5.722   6.553  1.00  0.00     0.040 C 
HETATM    4  C2  UNK     1       9.885   5.987   5.764  1.00  0.00     0.005 C 
HETATM    5  C3  UNK     1      11.321   6.571   7.797  1.00  0.00    -0.033 A 
HETATM    6  C4  UNK     1       8.695   6.124   6.698  1.00  0.00     0.005 C 
HETATM    7  C5  UNK     1       8.914   7.274   7.679  1.00  0.00     0.045 C 
HETATM    8  C6  UNK     1      10.297   7.294   8.288  1.00  0.00     0.025 A 
HETATM    9  C7  UNK     1      12.625   6.599   8.480  1.00  0.00     0.008 A 
HETATM   10  C8  UNK     1      12.776   7.416   9.598  1.00  0.00     0.126 A 
HETATM   11  C9  UNK     1      10.456   8.166   9.481  1.00  0.00     0.295 A 
HETATM   12  C10 UNK     1      13.736   5.841   8.081  1.00  0.00     0.018 A 
HETATM   13  C11 UNK     1      13.977   7.505  10.304  1.00  0.00     0.138 A 
HETATM   14  C12 UNK     1      15.069   6.752   9.888  1.00  0.00     0.104 A 
HETATM   15  C13 UNK     1      14.947   5.918   8.779  1.00  0.00     0.040 A 
ENDROOT
BRANCH  13  16
HETATM   16  O2  UNK     1      14.082   8.319  11.391  1.00  0.00    -0.325 OA
BRANCH  16  17
HETATM   17  C14 UNK     1      13.915   9.718  11.171  1.00  0.00     0.261 C 
BRANCH  17  18
HETATM   18  C15 UNK     1      15.057  10.215  10.319  1.00  0.00    -0.019 A 
HETATM   19  C17 UNK     1      16.335  10.262  10.855  1.00  0.00     0.010 A 
HETATM   20  C20 UNK     1      17.391  10.721  10.069  1.00  0.00     0.001 A 
HETATM   21  C22 UNK     1      17.156  11.129   8.756  1.00  0.00     0.000 A 
HETATM   22  C21 UNK     1      15.866  11.077   8.229  1.00  0.00     0.001 A 
HETATM   23  C18 UNK     1      14.810  10.616   9.016  1.00  0.00     0.010 A 
ENDBRANCH  17  18
BRANCH  17  24
HETATM   24  C16 UNK     1      13.835  10.425  12.510  1.00  0.00     0.293 C 
HETATM   25  O6  UNK     1      14.076   9.894  13.587  1.00  0.00    -0.262 OA
BRANCH  24  26
HETATM   26  O5  UNK     1      13.485  11.732  12.327  1.00  0.00    -0.320 OA
BRANCH  26  27
HETATM   27  C23 UNK     1      14.270  12.688  13.046  1.00  0.00     0.174 C 
HETATM   28  C24 UNK     1      15.086  13.497  12.061  1.00  0.00     0.034 C 
ENDBRANCH  26  27
ENDBRANCH  24  26
ENDBRANCH  17  24
ENDBRANCH  16  17
ENDBRANCH  13  16
BRANCH  14  29
HETATM   29  O4  UNK     1      16.254   6.815  10.554  1.00  0.00    -0.353 OA
HETATM   30  C19 UNK     1      17.435   6.954   9.765  1.00  0.00     0.210 C 
ENDBRANCH  14  29
TORSDOF 7
ENDMDL
MODEL 5
REMARK VINA RESULT:      -7.4      5.611     10.326
REMARK  7 active torsions:
REMARK  status: ('A' for Active; 'I' for Inactive)
REMARK    1  A    between atoms: C11_17  and  O2_2 
REMARK    2  A    between atoms: C14_20  and  O2_2 
REMARK    3  A    between atoms: C12_18  and  O4_4 
REMARK    4  A    between atoms: C16_22  and  O5_5 
REMARK    5  A    between atoms: C23_29  and  O5_5 
REMARK    6  A    between atoms: C14_20  and  C15_21 
REMARK    7  A    between atoms: C14_20  and  C16_22 
ROOT
HETATM    1  O1  UNK     1      17.806   2.511  34.394  1.00  0.00    -0.271 OA
HETATM    2  O3  UNK     1      17.411   2.477  36.634  1.00  0.00    -0.259 OA
HETATM    3  C1  UNK     1      19.022  -1.647  34.592  1.00  0.00     0.040 C 
HETATM    4  C2  UNK     1      18.670  -2.365  35.896  1.00  0.00     0.005 C 
HETATM    5  C3  UNK     1      18.619  -0.188  34.557  1.00  0.00    -0.033 A 
HETATM    6  C4  UNK     1      18.993  -1.494  37.099  1.00  0.00     0.005 C 
HETATM    7  C5  UNK     1      18.214  -0.182  37.034  1.00  0.00     0.045 C 
HETATM    8  C6  UNK     1      18.228   0.464  35.668  1.00  0.00     0.025 A 
HETATM    9  C7  UNK     1      18.661   0.526  33.270  1.00  0.00     0.008 A 
HETATM   10  C8  UNK     1      18.247   1.856  33.231  1.00  0.00     0.126 A 
HETATM   11  C9  UNK     1      17.786   1.882  35.628  1.00  0.00     0.295 A 
HETATM   12  C10 UNK     1      19.104  -0.046  32.069  1.00  0.00     0.018 A 
HETATM   13  C11 UNK     1      18.250   2.608  32.054  1.00  0.00     0.138 A 
HETATM   14  C12 UNK     1      18.686   2.020  30.873  1.00  0.00     0.104 A 
HETATM   15  C13 UNK     1      19.115   0.694  30.880  1.00  0.00     0.040 A 
ENDROOT
BRANCH  13  16
HETATM   16  O2  UNK     1      17.834   3.904  32.060  1.00  0.00    -0.325 OA
BRANCH  16  17
HETATM   17  C14 UNK     1      18.823   4.901  32.309  1.00  0.00     0.261 C 
BRANCH  17  18
HETATM   18  C15 UNK     1      18.238   5.943  33.231  1.00  0.00    -0.019 A 
HETATM   19  C17 UNK     1      16.870   6.163  33.230  1.00  0.00     0.010 A 
HETATM   20  C20 UNK     1      16.330   7.126  34.081  1.00  0.00     0.001 A 
HETATM   21  C22 UNK     1      17.165   7.859  34.924  1.00  0.00     0.000 A 
HETATM   22  C21 UNK     1      18.541   7.628  34.915  1.00  0.00     0.001 A 
HETATM   23  C18 UNK     1      19.080   6.664  34.064  1.00  0.00     0.010 A 
ENDBRANCH  17  18
BRANCH  17  24
HETATM   24  C16 UNK     1      19.283   5.484  30.987  1.00  0.00     0.293 C 
HETATM   25  O6  UNK     1      18.582   6.170  30.254  1.00  0.00    -0.262 OA
BRANCH  24  26
HETATM   26  O5  UNK     1      20.588   5.152  30.761  1.00  0.00    -0.320 OA
BRANCH  26  27
HETATM   27  C23 UNK     1      21.546   6.167  31.072  1.00  0.00     0.174 C 
HETATM   28  C24 UNK     1      22.239   5.810  32.370  1.00  0.00     0.034 C 
ENDBRANCH  26  27
ENDBRANCH  24  26
ENDBRANCH  17  24
ENDBRANCH  16  17
ENDBRANCH  13  16
BRANCH  14  29
HETATM   29  O4  UNK     1      18.703   2.724  29.708  1.00  0.00    -0.353 OA
HETATM   30  C19 UNK     1      17.968   2.183  28.612  1.00  0.00     0.210 C 
ENDBRANCH  14  29
TORSDOF 7
ENDMDL
MODEL 6
REMARK VINA RESULT:      -7.4     10.585     13.322
REMARK  7 active torsions:
REMARK  status: ('A' for Active; 'I' for Inactive)
REMARK    1  A    between atoms: C11_17  and  O2_2 
REMARK    2  A    between atoms: C14_20  and  O2_2 
REMARK    3  A    between atoms: C12_18  and  O4_4 
REMARK    4  A    between atoms: C16_22  and  O5_5 
REMARK    5  A    between atoms: C23_29  and  O5_5 
REMARK    6  A    between atoms: C14_20  and  C15_21 
REMARK    7  A    between atoms: C14_20  and  C16_22 
ROOT
HETATM    1  O1  UNK     1      30.441  -7.483  33.584  1.00  0.00    -0.271 OA
HETATM    2  O3  UNK     1      28.591  -7.099  34.853  1.00  0.00    -0.259 OA
HETATM    3  C1  UNK     1      32.777  -5.103  36.357  1.00  0.00     0.040 C 
HETATM    4  C2  UNK     1      32.084  -4.784  37.683  1.00  0.00     0.005 C 
HETATM    5  C3  UNK     1      31.932  -5.905  35.391  1.00  0.00    -0.033 A 
HETATM    6  C4  UNK     1      30.644  -4.359  37.454  1.00  0.00     0.005 C 
HETATM    7  C5  UNK     1      29.865  -5.466  36.746  1.00  0.00     0.045 C 
HETATM    8  C6  UNK     1      30.613  -6.087  35.588  1.00  0.00     0.025 A 
HETATM    9  C7  UNK     1      32.579  -6.496  34.208  1.00  0.00     0.008 A 
HETATM   10  C8  UNK     1      31.809  -7.272  33.343  1.00  0.00     0.126 A 
HETATM   11  C9  UNK     1      29.790  -6.914  34.667  1.00  0.00     0.295 A 
HETATM   12  C10 UNK     1      33.932  -6.319  33.882  1.00  0.00     0.018 A 
HETATM   13  C11 UNK     1      32.341  -7.872  32.200  1.00  0.00     0.138 A 
HETATM   14  C12 UNK     1      33.686  -7.691  31.900  1.00  0.00     0.104 A 
HETATM   15  C13 UNK     1      34.481  -6.914  32.740  1.00  0.00     0.040 A 
ENDROOT
BRANCH  13  16
HETATM   16  O2  UNK     1      31.553  -8.625  31.384  1.00  0.00    -0.325 OA
BRANCH  16  17
HETATM   17  C14 UNK     1      31.118  -8.023  30.167  1.00  0.00     0.261 C 
BRANCH  17  18
HETATM   18  C15 UNK     1      29.656  -7.671  30.297  1.00  0.00    -0.019 A 
HETATM   19  C17 UNK     1      29.278  -6.338  30.346  1.00  0.00     0.010 A 
HETATM   20  C20 UNK     1      27.928  -6.013  30.467  1.00  0.00     0.001 A 
HETATM   21  C22 UNK     1      26.971  -7.025  30.538  1.00  0.00     0.000 A 
HETATM   22  C21 UNK     1      27.364  -8.362  30.488  1.00  0.00     0.001 A 
HETATM   23  C18 UNK     1      28.715  -8.687  30.366  1.00  0.00     0.010 A 
ENDBRANCH  17  18
BRANCH  17  24
HETATM   24  C16 UNK     1      31.389  -8.974  29.018  1.00  0.00     0.293 C 
HETATM   25  O6  UNK     1      31.270  -8.680  27.835  1.00  0.00    -0.262 OA
BRANCH  24  26
HETATM   26  O5  UNK     1      31.808 -10.180  29.501  1.00  0.00    -0.320 OA
BRANCH  26  27
HETATM   27  C23 UNK     1      30.927 -11.281  29.262  1.00  0.00     0.174 C 
HETATM   28  C24 UNK     1      30.566 -11.921  30.586  1.00  0.00     0.034 C 
ENDBRANCH  26  27
ENDBRANCH  24  26
ENDBRANCH  17  24
ENDBRANCH  16  17
ENDBRANCH  13  16
BRANCH  14  29
HETATM   29  O4  UNK     1      34.237  -8.262  30.794  1.00  0.00    -0.353 OA
HETATM   30  C19 UNK     1      34.797  -7.382  29.821  1.00  0.00     0.210 C 
ENDBRANCH  14  29
TORSDOF 7
ENDMDL
MODEL 7
REMARK VINA RESULT:      -7.4     10.342     12.255
REMARK  7 active torsions:
REMARK  status: ('A' for Active; 'I' for Inactive)
REMARK    1  A    between atoms: C11_17  and  O2_2 
REMARK    2  A    between atoms: C14_20  and  O2_2 
REMARK    3  A    between atoms: C12_18  and  O4_4 
REMARK    4  A    between atoms: C16_22  and  O5_5 
REMARK    5  A    between atoms: C23_29  and  O5_5 
REMARK    6  A    between atoms: C14_20  and  C15_21 
REMARK    7  A    between atoms: C14_20  and  C16_22 
ROOT
HETATM    1  O1  UNK     1      30.016  -6.349  33.890  1.00  0.00    -0.271 OA
HETATM    2  O3  UNK     1      27.744  -6.354  33.759  1.00  0.00    -0.259 OA
HETATM    3  C1  UNK     1      30.198  -8.183  29.964  1.00  0.00     0.040 C 
HETATM    4  C2  UNK     1      28.884  -8.170  29.180  1.00  0.00     0.005 C 
HETATM    5  C3  UNK     1      30.104  -7.569  31.345  1.00  0.00    -0.033 A 
HETATM    6  C4  UNK     1      27.717  -8.562  30.070  1.00  0.00     0.005 C 
HETATM    7  C5  UNK     1      27.596  -7.597  31.248  1.00  0.00     0.045 C 
HETATM    8  C6  UNK     1      28.917  -7.282  31.911  1.00  0.00     0.025 A 
HETATM    9  C7  UNK     1      31.348  -7.283  32.078  1.00  0.00     0.008 A 
HETATM   10  C8  UNK     1      31.262  -6.676  33.329  1.00  0.00     0.126 A 
HETATM   11  C9  UNK     1      28.823  -6.635  33.246  1.00  0.00     0.295 A 
HETATM   12  C10 UNK     1      32.630  -7.595  31.600  1.00  0.00     0.018 A 
HETATM   13  C11 UNK     1      32.390  -6.367  34.091  1.00  0.00     0.138 A 
HETATM   14  C12 UNK     1      33.651  -6.677  33.596  1.00  0.00     0.104 A 
HETATM   15  C13 UNK     1      33.771  -7.292  32.353  1.00  0.00     0.040 A 
ENDROOT
BRANCH  13  16
HETATM   16  O2  UNK     1      32.260  -5.771  35.309  1.00  0.00    -0.325 OA
BRANCH  16  17
HETATM   17  C14 UNK     1      31.840  -6.596  36.393  1.00  0.00     0.261 C 
BRANCH  17  18
HETATM   18  C15 UNK     1      30.935  -5.790  37.293  1.00  0.00    -0.019 A 
HETATM   19  C17 UNK     1      30.957  -4.406  37.217  1.00  0.00     0.010 A 
HETATM   20  C20 UNK     1      30.121  -3.662  38.048  1.00  0.00     0.001 A 
HETATM   21  C22 UNK     1      29.273  -4.310  38.946  1.00  0.00     0.000 A 
HETATM   22  C21 UNK     1      29.261  -5.703  39.012  1.00  0.00     0.001 A 
HETATM   23  C18 UNK     1      30.097  -6.448  38.180  1.00  0.00     0.010 A 
ENDBRANCH  17  18
BRANCH  17  24
HETATM   24  C16 UNK     1      33.064  -7.123  37.118  1.00  0.00     0.293 C 
HETATM   25  O6  UNK     1      33.780  -6.448  37.846  1.00  0.00    -0.262 OA
BRANCH  24  26
HETATM   26  O5  UNK     1      33.222  -8.454  36.857  1.00  0.00    -0.320 OA
BRANCH  26  27
HETATM   27  C23 UNK     1      32.039  -9.149  36.450  1.00  0.00     0.174 C 
HETATM   28  C24 UNK     1      32.312  -9.865  35.145  1.00  0.00     0.034 C 
ENDBRANCH  26  27
ENDBRANCH  24  26
ENDBRANCH  17  24
ENDBRANCH  16  17
ENDBRANCH  13  16
BRANCH  14  29
HETATM   29  O4  UNK     1      34.772  -6.389  34.314  1.00  0.00    -0.353 OA
HETATM   30  C19 UNK     1      35.720  -7.441  34.486  1.00  0.00     0.210 C 
ENDBRANCH  14  29
TORSDOF 7
ENDMDL
MODEL 8
REMARK VINA RESULT:      -7.3     10.295     12.863
REMARK  7 active torsions:
REMARK  status: ('A' for Active; 'I' for Inactive)
REMARK    1  A    between atoms: C11_17  and  O2_2 
REMARK    2  A    between atoms: C14_20  and  O2_2 
REMARK    3  A    between atoms: C12_18  and  O4_4 
REMARK    4  A    between atoms: C16_22  and  O5_5 
REMARK    5  A    between atoms: C23_29  and  O5_5 
REMARK    6  A    between atoms: C14_20  and  C15_21 
REMARK    7  A    between atoms: C14_20  and  C16_22 
ROOT
HETATM    1  O1  UNK     1      31.149  -6.489  33.990  1.00  0.00    -0.271 OA
HETATM    2  O3  UNK     1      32.102  -4.517  34.607  1.00  0.00    -0.259 OA
HETATM    3  C1  UNK     1      29.179  -6.690  37.848  1.00  0.00     0.040 C 
HETATM    4  C2  UNK     1      29.211  -5.394  38.661  1.00  0.00     0.005 C 
HETATM    5  C3  UNK     1      29.902  -6.608  36.521  1.00  0.00    -0.033 A 
HETATM    6  C4  UNK     1      30.593  -4.764  38.625  1.00  0.00     0.005 C 
HETATM    7  C5  UNK     1      31.000  -4.451  37.187  1.00  0.00     0.045 C 
HETATM    8  C6  UNK     1      30.709  -5.573  36.217  1.00  0.00     0.025 A 
HETATM    9  C7  UNK     1      29.711  -7.693  35.544  1.00  0.00     0.008 A 
HETATM   10  C8  UNK     1      30.340  -7.594  34.304  1.00  0.00     0.126 A 
HETATM   11  C9  UNK     1      31.380  -5.466  34.896  1.00  0.00     0.295 A 
HETATM   12  C10 UNK     1      28.938  -8.838  35.784  1.00  0.00     0.018 A 
HETATM   13  C11 UNK     1      30.212  -8.574  33.319  1.00  0.00     0.138 A 
HETATM   14  C12 UNK     1      29.434  -9.698  33.573  1.00  0.00     0.104 A 
HETATM   15  C13 UNK     1      28.799  -9.831  34.806  1.00  0.00     0.040 A 
ENDROOT
BRANCH  13  16
HETATM   16  O2  UNK     1      30.842  -8.436  32.119  1.00  0.00    -0.325 OA
BRANCH  16  17
HETATM   17  C14 UNK     1      30.167  -7.679  31.116  1.00  0.00     0.261 C 
BRANCH  17  18
HETATM   18  C15 UNK     1      29.597  -8.631  30.093  1.00  0.00    -0.019 A 
HETATM   19  C17 UNK     1      28.231  -8.637  29.857  1.00  0.00     0.010 A 
HETATM   20  C20 UNK     1      27.704  -9.517  28.912  1.00  0.00     0.001 A 
HETATM   21  C22 UNK     1      28.550 -10.381  28.216  1.00  0.00     0.000 A 
HETATM   22  C21 UNK     1      29.922 -10.365  28.464  1.00  0.00     0.001 A 
HETATM   23  C18 UNK     1      30.449  -9.484  29.409  1.00  0.00     0.010 A 
ENDBRANCH  17  18
BRANCH  17  24
HETATM   24  C16 UNK     1      31.137  -6.683  30.510  1.00  0.00     0.293 C 
HETATM   25  O6  UNK     1      30.801  -5.672  29.906  1.00  0.00    -0.262 OA
BRANCH  24  26
HETATM   26  O5  UNK     1      32.421  -7.069  30.766  1.00  0.00    -0.320 OA
BRANCH  26  27
HETATM   27  C23 UNK     1      33.272  -7.180  29.621  1.00  0.00     0.174 C 
HETATM   28  C24 UNK     1      34.507  -7.969  29.998  1.00  0.00     0.034 C 
ENDBRANCH  26  27
ENDBRANCH  24  26
ENDBRANCH  17  24
ENDBRANCH  16  17
ENDBRANCH  13  16
BRANCH  14  29
HETATM   29  O4  UNK     1      29.288 -10.672  32.635  1.00  0.00    -0.353 OA
HETATM   30  C19 UNK     1      30.257 -11.719  32.629  1.00  0.00     0.210 C 
ENDBRANCH  14  29
TORSDOF 7
ENDMDL
MODEL 9
REMARK VINA RESULT:      -7.3     10.431     12.683
REMARK  7 active torsions:
REMARK  status: ('A' for Active; 'I' for Inactive)
REMARK    1  A    between atoms: C11_17  and  O2_2 
REMARK    2  A    between atoms: C14_20  and  O2_2 
REMARK    3  A    between atoms: C12_18  and  O4_4 
REMARK    4  A    between atoms: C16_22  and  O5_5 
REMARK    5  A    between atoms: C23_29  and  O5_5 
REMARK    6  A    between atoms: C14_20  and  C15_21 
REMARK    7  A    between atoms: C14_20  and  C16_22 
ROOT
HETATM    1  O1  UNK     1      32.032  -7.064  33.620  1.00  0.00    -0.271 OA
HETATM    2  O3  UNK     1      32.965  -8.201  31.885  1.00  0.00    -0.259 OA
HETATM    3  C1  UNK     1      35.947  -6.752  35.460  1.00  0.00     0.040 C 
HETATM    4  C2  UNK     1      37.123  -7.111  34.548  1.00  0.00     0.005 C 
HETATM    5  C3  UNK     1      34.588  -6.901  34.809  1.00  0.00    -0.033 A 
HETATM    6  C4  UNK     1      36.831  -8.375  33.759  1.00  0.00     0.005 C 
HETATM    7  C5  UNK     1      35.581  -8.193  32.900  1.00  0.00     0.045 C 
HETATM    8  C6  UNK     1      34.434  -7.536  33.632  1.00  0.00     0.025 A 
HETATM    9  C7  UNK     1      33.413  -6.334  35.490  1.00  0.00     0.008 A 
HETATM   10  C8  UNK     1      32.169  -6.431  34.868  1.00  0.00     0.126 A 
HETATM   11  C9  UNK     1      33.109  -7.640  32.967  1.00  0.00     0.295 A 
HETATM   12  C10 UNK     1      33.458  -5.704  36.742  1.00  0.00     0.018 A 
HETATM   13  C11 UNK     1      31.003  -5.919  35.440  1.00  0.00     0.138 A 
HETATM   14  C12 UNK     1      31.072  -5.291  36.678  1.00  0.00     0.104 A 
HETATM   15  C13 UNK     1      32.298  -5.186  37.330  1.00  0.00     0.040 A 
ENDROOT
BRANCH  13  16
HETATM   16  O2  UNK     1      29.809  -6.033  34.795  1.00  0.00    -0.325 OA
BRANCH  16  17
HETATM   17  C14 UNK     1      29.278  -7.348  34.642  1.00  0.00     0.261 C 
BRANCH  17  18
HETATM   18  C15 UNK     1      28.603  -7.444  33.296  1.00  0.00    -0.019 A 
HETATM   19  C17 UNK     1      27.888  -6.358  32.814  1.00  0.00     0.010 A 
HETATM   20  C20 UNK     1      27.264  -6.447  31.571  1.00  0.00     0.001 A 
HETATM   21  C22 UNK     1      27.361  -7.621  30.824  1.00  0.00     0.000 A 
HETATM   22  C21 UNK     1      28.084  -8.705  31.320  1.00  0.00     0.001 A 
HETATM   23  C18 UNK     1      28.709  -8.616  32.564  1.00  0.00     0.010 A 
ENDBRANCH  17  18
BRANCH  17  24
HETATM   24  C16 UNK     1      28.332  -7.638  35.792  1.00  0.00     0.293 C 
HETATM   25  O6  UNK     1      27.375  -6.936  36.092  1.00  0.00    -0.262 OA
BRANCH  24  26
HETATM   26  O5  UNK     1      28.694  -8.800  36.410  1.00  0.00    -0.320 OA
BRANCH  26  27
HETATM   27  C23 UNK     1      29.287  -8.653  37.704  1.00  0.00     0.174 C 
HETATM   28  C24 UNK     1      30.759  -8.992  37.613  1.00  0.00     0.034 C 
ENDBRANCH  26  27
ENDBRANCH  24  26
ENDBRANCH  17  24
ENDBRANCH  16  17
ENDBRANCH  13  16
BRANCH  14  29
HETATM   29  O4  UNK     1      29.954  -4.781  37.264  1.00  0.00    -0.353 OA
HETATM   30  C19 UNK     1      29.753  -5.076  38.645  1.00  0.00     0.210 C 
ENDBRANCH  14  29
TORSDOF 7
ENDMDL
MODEL 10
REMARK VINA RESULT:      -7.3     10.668     13.600
REMARK  7 active torsions:
REMARK  status: ('A' for Active; 'I' for Inactive)
REMARK    1  A    between atoms: C11_17  and  O2_2 
REMARK    2  A    between atoms: C14_20  and  O2_2 
REMARK    3  A    between atoms: C12_18  and  O4_4 
REMARK    4  A    between atoms: C16_22  and  O5_5 
REMARK    5  A    between atoms: C23_29  and  O5_5 
REMARK    6  A    between atoms: C14_20  and  C15_21 
REMARK    7  A    between atoms: C14_20  and  C16_22 
ROOT
HETATM    1  O1  UNK     1      30.945  -9.104  37.227  1.00  0.00    -0.271 OA
HETATM    2  O3  UNK     1      30.824 -10.538  38.989  1.00  0.00    -0.259 OA
HETATM    3  C1  UNK     1      26.798  -8.018  37.889  1.00  0.00     0.040 C 
HETATM    4  C2  UNK     1      26.211  -8.480  39.224  1.00  0.00     0.005 C 
HETATM    5  C3  UNK     1      28.235  -8.436  37.663  1.00  0.00    -0.033 A 
HETATM    6  C4  UNK     1      26.603  -9.918  39.520  1.00  0.00     0.005 C 
HETATM    7  C5  UNK     1      28.122 -10.057  39.577  1.00  0.00     0.045 C 
HETATM    8  C6  UNK     1      28.838  -9.347  38.451  1.00  0.00     0.025 A 
HETATM    9  C7  UNK     1      28.983  -7.828  36.551  1.00  0.00     0.008 A 
HETATM   10  C8  UNK     1      30.319  -8.180  36.372  1.00  0.00     0.126 A 
HETATM   11  C9  UNK     1      30.264  -9.723  38.262  1.00  0.00     0.295 A 
HETATM   12  C10 UNK     1      28.431  -6.914  35.641  1.00  0.00     0.018 A 
HETATM   13  C11 UNK     1      31.103  -7.650  35.346  1.00  0.00     0.138 A 
HETATM   14  C12 UNK     1      30.539  -6.740  34.459  1.00  0.00     0.104 A 
HETATM   15  C13 UNK     1      29.203  -6.374  34.605  1.00  0.00     0.040 A 
ENDROOT
BRANCH  13  16
HETATM   16  O2  UNK     1      32.407  -8.019  35.210  1.00  0.00    -0.325 OA
BRANCH  16  17
HETATM   17  C14 UNK     1      33.392  -7.010  35.422  1.00  0.00     0.261 C 
BRANCH  17  18
HETATM   18  C15 UNK     1      34.693  -7.467  34.809  1.00  0.00    -0.019 A 
HETATM   19  C17 UNK     1      35.867  -6.803  35.130  1.00  0.00     0.010 A 
HETATM   20  C20 UNK     1      37.069  -7.224  34.563  1.00  0.00     0.001 A 
HETATM   21  C22 UNK     1      37.083  -8.303  33.679  1.00  0.00     0.000 A 
HETATM   22  C21 UNK     1      35.894  -8.962  33.364  1.00  0.00     0.001 A 
HETATM   23  C18 UNK     1      34.692  -8.541  33.933  1.00  0.00     0.010 A 
ENDBRANCH  17  18
BRANCH  17  24
HETATM   24  C16 UNK     1      33.511  -6.740  36.910  1.00  0.00     0.293 C 
HETATM   25  O6  UNK     1      33.783  -7.591  37.747  1.00  0.00    -0.262 OA
BRANCH  24  26
HETATM   26  O5  UNK     1      33.299  -5.414  37.160  1.00  0.00    -0.320 OA
BRANCH  26  27
HETATM   27  C23 UNK     1      32.241  -5.121  38.077  1.00  0.00     0.174 C 
HETATM   28  C24 UNK     1      31.095  -4.484  37.321  1.00  0.00     0.034 C 
ENDBRANCH  26  27
ENDBRANCH  24  26
ENDBRANCH  17  24
ENDBRANCH  16  17
ENDBRANCH  13  16
BRANCH  14  29
HETATM   29  O4  UNK     1      31.275  -6.204  33.448  1.00  0.00    -0.353 OA
HETATM   30  C19 UNK     1      30.632  -6.061  32.182  1.00  0.00     0.210 C 
ENDBRANCH  14  29
TORSDOF 7
ENDMDL
