MODEL 1
REMARK VINA RESULT:      -9.2      0.000      0.000
REMARK  1 active torsions:
REMARK  status: ('A' for Active; 'I' for Inactive)
REMARK    1  A    between atoms: C5_8  and  C9_12 
ROOT
HETATM    1  O1  UNK     1      20.408   7.281  33.113  1.00  0.00    -0.320 OA
HETATM    2  O2  UNK     1      16.786   9.958  34.847  1.00  0.00    -0.274 OA
HETATM    3  O3  UNK     1      15.024  11.182  35.636  1.00  0.00    -0.260 OA
HETATM    4  C1  UNK     1      18.271   6.727  32.638  1.00  0.00     0.012 A 
HETATM    5  C2  UNK     1      19.102   7.622  33.300  1.00  0.00     0.094 A 
HETATM    6  C3  UNK     1      16.357   7.996  33.451  1.00  0.00     0.005 A 
HETATM    7  C4  UNK     1      18.645   8.705  34.042  1.00  0.00     0.008 A 
HETATM    8  C5  UNK     1      19.135   5.787  32.014  1.00  0.00     0.009 A 
HETATM    9  C6  UNK     1      17.254   8.857  34.093  1.00  0.00     0.099 A 
HETATM   10  C7  UNK     1      16.875   6.914  32.714  1.00  0.00     0.030 A 
HETATM   11  C8  UNK     1      14.915   8.261  33.580  1.00  0.00    -0.043 A 
HETATM   12  C10 UNK     1      20.417   6.169  32.333  1.00  0.00     0.155 A 
HETATM   13  C11 UNK     1      19.564   9.647  34.740  1.00  0.00     0.054 C 
HETATM   14  C12 UNK     1      14.506   9.313  34.302  1.00  0.00     0.090 A 
HETATM   15  C13 UNK     1      13.924   7.358  32.904  1.00  0.00     0.049 C 
HETATM   16  C16 UNK     1      15.434  10.229  34.984  1.00  0.00     0.288 A 
ENDROOT
BRANCH   8  17
HETATM   17  C9  UNK     1      18.840   4.646  31.201  1.00  0.00    -0.023 A 
HETATM   18  C14 UNK     1      18.358   3.473  31.787  1.00  0.00     0.013 A 
HETATM   19  C18 UNK     1      18.070   2.361  30.995  1.00  0.00     0.007 A 
HETATM   20  C17 UNK     1      18.263   2.420  29.614  1.00  0.00    -0.062 A 
HETATM   21  C19 UNK     1      18.745   3.589  29.026  1.00  0.00     0.007 A 
HETATM   22  C20 UNK     1      17.955   1.232  28.767  1.00  0.00     0.048 C 
HETATM   23  C15 UNK     1      19.033   4.701  29.818  1.00  0.00     0.013 A 
ENDBRANCH   8  17
TORSDOF 1
ENDMDL
MODEL 2
REMARK VINA RESULT:      -9.1      4.756      7.999
REMARK  1 active torsions:
REMARK  status: ('A' for Active; 'I' for Inactive)
REMARK    1  A    between atoms: C5_8  and  C9_12 
ROOT
HETATM    1  O1  UNK     1      18.602   1.605  31.481  1.00  0.00    -0.320 OA
HETATM    2  O2  UNK     1      18.325  -1.517  35.150  1.00  0.00    -0.274 OA
HETATM    3  O3  UNK     1      18.184  -2.942  36.932  1.00  0.00    -0.260 OA
HETATM    4  C1  UNK     1      18.261   2.363  33.581  1.00  0.00     0.012 A 
HETATM    5  C2  UNK     1      18.450   1.240  32.785  1.00  0.00     0.094 A 
HETATM    6  C3  UNK     1      18.103   0.890  35.515  1.00  0.00     0.005 A 
HETATM    7  C4  UNK     1      18.477  -0.062  33.270  1.00  0.00     0.008 A 
HETATM    8  C5  UNK     1      18.301   3.474  32.696  1.00  0.00     0.009 A 
HETATM    9  C6  UNK     1      18.297  -0.194  34.653  1.00  0.00     0.099 A 
HETATM   10  C7  UNK     1      18.084   2.188  34.969  1.00  0.00     0.030 A 
HETATM   11  C8  UNK     1      17.926   0.622  36.952  1.00  0.00    -0.043 A 
HETATM   12  C10 UNK     1      18.510   2.960  31.438  1.00  0.00     0.155 A 
HETATM   13  C11 UNK     1      18.682  -1.245  32.388  1.00  0.00     0.054 C 
HETATM   14  C12 UNK     1      17.957  -0.644  37.389  1.00  0.00     0.090 A 
HETATM   15  C13 UNK     1      17.716   1.762  37.906  1.00  0.00     0.049 C 
HETATM   16  C16 UNK     1      18.161  -1.797  36.497  1.00  0.00     0.288 A 
ENDROOT
BRANCH   8  17
HETATM   17  C9  UNK     1      18.165   4.877  32.954  1.00  0.00    -0.023 A 
HETATM   18  C14 UNK     1      19.056   5.521  33.815  1.00  0.00     0.013 A 
HETATM   19  C18 UNK     1      18.924   6.887  34.065  1.00  0.00     0.007 A 
HETATM   20  C17 UNK     1      17.900   7.612  33.454  1.00  0.00    -0.062 A 
HETATM   21  C19 UNK     1      17.009   6.971  32.594  1.00  0.00     0.007 A 
HETATM   22  C20 UNK     1      17.760   9.073  33.722  1.00  0.00     0.048 C 
HETATM   23  C15 UNK     1      17.141   5.605  32.344  1.00  0.00     0.013 A 
ENDBRANCH   8  17
TORSDOF 1
ENDMDL
MODEL 3
REMARK VINA RESULT:      -9.1      3.162      7.411
REMARK  1 active torsions:
REMARK  status: ('A' for Active; 'I' for Inactive)
REMARK    1  A    between atoms: C5_8  and  C9_12 
ROOT
HETATM    1  O1  UNK     1      18.774   4.610  29.611  1.00  0.00    -0.320 OA
HETATM    2  O2  UNK     1      18.797   0.309  31.799  1.00  0.00    -0.274 OA
HETATM    3  O3  UNK     1      18.792  -1.696  32.896  1.00  0.00    -0.260 OA
HETATM    4  C1  UNK     1      18.354   4.471  31.825  1.00  0.00     0.012 A 
HETATM    5  C2  UNK     1      18.655   3.760  30.669  1.00  0.00     0.094 A 
HETATM    6  C3  UNK     1      18.337   2.362  33.044  1.00  0.00     0.005 A 
HETATM    7  C4  UNK     1      18.809   2.380  30.623  1.00  0.00     0.008 A 
HETATM    8  C5  UNK     1      18.287   5.836  31.433  1.00  0.00     0.009 A 
HETATM    9  C6  UNK     1      18.640   1.713  31.843  1.00  0.00     0.099 A 
HETATM   10  C7  UNK     1      18.191   3.763  33.034  1.00  0.00     0.030 A 
HETATM   11  C8  UNK     1      18.184   1.550  34.262  1.00  0.00    -0.043 A 
HETATM   12  C10 UNK     1      18.549   5.863  30.083  1.00  0.00     0.155 A 
HETATM   13  C11 UNK     1      19.133   1.650  29.366  1.00  0.00     0.054 C 
HETATM   14  C12 UNK     1      18.338   0.221  34.185  1.00  0.00     0.090 A 
HETATM   15  C13 UNK     1      17.859   2.213  35.569  1.00  0.00     0.049 C 
HETATM   16  C16 UNK     1      18.657  -0.479  32.930  1.00  0.00     0.288 A 
ENDROOT
BRANCH   8  17
HETATM   17  C9  UNK     1      18.012   7.014  32.199  1.00  0.00    -0.023 A 
HETATM   18  C14 UNK     1      16.802   7.691  32.034  1.00  0.00     0.013 A 
HETATM   19  C18 UNK     1      16.534   8.839  32.781  1.00  0.00     0.007 A 
HETATM   20  C17 UNK     1      17.477   9.311  33.696  1.00  0.00    -0.062 A 
HETATM   21  C19 UNK     1      18.686   8.636  33.863  1.00  0.00     0.007 A 
HETATM   22  C20 UNK     1      17.190  10.537  34.495  1.00  0.00     0.048 C 
HETATM   23  C15 UNK     1      18.953   7.489  33.116  1.00  0.00     0.013 A 
ENDBRANCH   8  17
TORSDOF 1
ENDMDL
MODEL 4
REMARK VINA RESULT:      -8.8      7.456     10.598
REMARK  1 active torsions:
REMARK  status: ('A' for Active; 'I' for Inactive)
REMARK    1  A    between atoms: C5_8  and  C9_12 
ROOT
HETATM    1  O1  UNK     1      18.351  -0.863  36.508  1.00  0.00    -0.320 OA
HETATM    2  O2  UNK     1      18.708   0.754  31.975  1.00  0.00    -0.274 OA
HETATM    3  O3  UNK     1      18.913   1.461  29.811  1.00  0.00    -0.260 OA
HETATM    4  C1  UNK     1      19.432  -2.096  34.955  1.00  0.00     0.012 A 
HETATM    5  C2  UNK     1      18.734  -0.920  35.201  1.00  0.00     0.094 A 
HETATM    6  C3  UNK     1      19.680  -1.390  32.636  1.00  0.00     0.005 A 
HETATM    7  C4  UNK     1      18.475   0.048  34.238  1.00  0.00     0.008 A 
HETATM    8  C5  UNK     1      19.469  -2.790  36.194  1.00  0.00     0.009 A 
HETATM    9  C6  UNK     1      18.970  -0.229  32.957  1.00  0.00     0.099 A 
HETATM   10  C7  UNK     1      19.914  -2.338  33.652  1.00  0.00     0.030 A 
HETATM   11  C8  UNK     1      20.149  -1.567  31.252  1.00  0.00    -0.043 A 
HETATM   12  C10 UNK     1      18.801  -2.000  37.100  1.00  0.00     0.155 A 
HETATM   13  C11 UNK     1      17.724   1.299  34.537  1.00  0.00     0.054 C 
HETATM   14  C12 UNK     1      19.884  -0.616  30.346  1.00  0.00     0.090 A 
HETATM   15  C13 UNK     1      20.915  -2.801  30.873  1.00  0.00     0.049 C 
HETATM   16  C16 UNK     1      19.138   0.612  30.665  1.00  0.00     0.288 A 
ENDROOT
BRANCH   8  17
HETATM   17  C9  UNK     1      20.052  -4.052  36.539  1.00  0.00    -0.023 A 
HETATM   18  C14 UNK     1      20.966  -4.137  37.592  1.00  0.00     0.013 A 
HETATM   19  C18 UNK     1      21.534  -5.366  37.928  1.00  0.00     0.007 A 
HETATM   20  C17 UNK     1      21.188  -6.513  37.213  1.00  0.00    -0.062 A 
HETATM   21  C19 UNK     1      20.275  -6.431  36.162  1.00  0.00     0.007 A 
HETATM   22  C20 UNK     1      21.794  -7.827  37.574  1.00  0.00     0.048 C 
HETATM   23  C15 UNK     1      19.708  -5.202  35.825  1.00  0.00     0.013 A 
ENDBRANCH   8  17
TORSDOF 1
ENDMDL
MODEL 5
REMARK VINA RESULT:      -8.2     21.918     24.476
REMARK  1 active torsions:
REMARK  status: ('A' for Active; 'I' for Inactive)
REMARK    1  A    between atoms: C5_8  and  C9_12 
ROOT
HETATM    1  O1  UNK     1      15.389   5.921  10.309  1.00  0.00    -0.320 OA
HETATM    2  O2  UNK     1      18.156   9.868  10.102  1.00  0.00    -0.274 OA
HETATM    3  O3  UNK     1      19.419  11.769   9.961  1.00  0.00    -0.260 OA
HETATM    4  C1  UNK     1      14.730   7.693   9.075  1.00  0.00     0.012 A 
HETATM    5  C2  UNK     1      15.716   7.181   9.910  1.00  0.00     0.094 A 
HETATM    6  C3  UNK     1      16.037   9.741   8.889  1.00  0.00     0.005 A 
HETATM    7  C4  UNK     1      16.866   7.874  10.272  1.00  0.00     0.008 A 
HETATM    8  C5  UNK     1      13.747   6.673   8.968  1.00  0.00     0.009 A 
HETATM    9  C6  UNK     1      16.988   9.162   9.736  1.00  0.00     0.099 A 
HETATM   10  C7  UNK     1      14.890   8.994   8.555  1.00  0.00     0.030 A 
HETATM   11  C8  UNK     1      16.279  11.104   8.389  1.00  0.00    -0.043 A 
HETATM   12  C10 UNK     1      14.195   5.622   9.734  1.00  0.00     0.155 A 
HETATM   13  C11 UNK     1      17.904   7.294  11.169  1.00  0.00     0.054 C 
HETATM   14  C12 UNK     1      17.396  11.746   8.756  1.00  0.00     0.090 A 
HETATM   15  C13 UNK     1      15.279  11.757   7.478  1.00  0.00     0.049 C 
HETATM   16  C16 UNK     1      18.408  11.152   9.646  1.00  0.00     0.288 A 
ENDROOT
BRANCH   8  17
HETATM   17  C9  UNK     1      12.512   6.640   8.243  1.00  0.00    -0.023 A 
HETATM   18  C14 UNK     1      11.296   6.704   8.926  1.00  0.00     0.013 A 
HETATM   19  C18 UNK     1      10.093   6.672   8.220  1.00  0.00     0.007 A 
HETATM   20  C17 UNK     1      10.104   6.577   6.828  1.00  0.00    -0.062 A 
HETATM   21  C19 UNK     1      11.317   6.513   6.143  1.00  0.00     0.007 A 
HETATM   22  C20 UNK     1       8.818   6.544   6.073  1.00  0.00     0.048 C 
HETATM   23  C15 UNK     1      12.520   6.544   6.850  1.00  0.00     0.013 A 
ENDBRANCH   8  17
TORSDOF 1
ENDMDL
MODEL 6
REMARK VINA RESULT:      -7.9     18.501     21.691
REMARK  1 active torsions:
REMARK  status: ('A' for Active; 'I' for Inactive)
REMARK    1  A    between atoms: C5_8  and  C9_12 
ROOT
HETATM    1  O1  UNK     1      35.826  -6.248  36.155  1.00  0.00    -0.320 OA
HETATM    2  O2  UNK     1      35.839  -7.752  31.571  1.00  0.00    -0.274 OA
HETATM    3  O3  UNK     1      35.776  -8.455  29.396  1.00  0.00    -0.260 OA
HETATM    4  C1  UNK     1      33.891  -6.339  34.995  1.00  0.00     0.012 A 
HETATM    5  C2  UNK     1      35.263  -6.557  34.954  1.00  0.00     0.094 A 
HETATM    6  C3  UNK     1      33.766  -7.080  32.678  1.00  0.00     0.005 A 
HETATM    7  C4  UNK     1      35.943  -7.025  33.836  1.00  0.00     0.008 A 
HETATM    8  C5  UNK     1      33.614  -5.867  36.307  1.00  0.00     0.009 A 
HETATM    9  C6  UNK     1      35.151  -7.275  32.709  1.00  0.00     0.099 A 
HETATM   10  C7  UNK     1      33.128  -6.603  33.839  1.00  0.00     0.030 A 
HETATM   11  C8  UNK     1      33.042  -7.380  31.432  1.00  0.00    -0.043 A 
HETATM   12  C10 UNK     1      34.820  -5.831  36.968  1.00  0.00     0.155 A 
HETATM   13  C11 UNK     1      37.416  -7.249  33.827  1.00  0.00     0.054 C 
HETATM   14  C12 UNK     1      33.726  -7.830  30.371  1.00  0.00     0.090 A 
HETATM   15  C13 UNK     1      31.555  -7.182  31.363  1.00  0.00     0.049 C 
HETATM   16  C16 UNK     1      35.183  -8.042  30.385  1.00  0.00     0.288 A 
ENDROOT
BRANCH   8  17
HETATM   17  C9  UNK     1      32.378  -5.482  36.918  1.00  0.00    -0.023 A 
HETATM   18  C14 UNK     1      31.859  -4.203  36.704  1.00  0.00     0.013 A 
HETATM   19  C18 UNK     1      30.654  -3.828  37.298  1.00  0.00     0.007 A 
HETATM   20  C17 UNK     1      29.964  -4.731  38.108  1.00  0.00    -0.062 A 
HETATM   21  C19 UNK     1      30.480  -6.009  38.323  1.00  0.00     0.007 A 
HETATM   22  C20 UNK     1      28.675  -4.330  38.742  1.00  0.00     0.048 C 
HETATM   23  C15 UNK     1      31.685  -6.384  37.729  1.00  0.00     0.013 A 
ENDBRANCH   8  17
TORSDOF 1
ENDMDL
MODEL 7
REMARK VINA RESULT:      -7.9     17.796     18.981
REMARK  1 active torsions:
REMARK  status: ('A' for Active; 'I' for Inactive)
REMARK    1  A    between atoms: C5_8  and  C9_12 
ROOT
HETATM    1  O1  UNK     1      27.063  -9.382  36.906  1.00  0.00    -0.320 OA
HETATM    2  O2  UNK     1      28.706  -5.454  39.176  1.00  0.00    -0.274 OA
HETATM    3  O3  UNK     1      29.528  -3.581  40.198  1.00  0.00    -0.260 OA
HETATM    4  C1  UNK     1      28.687  -8.131  35.958  1.00  0.00     0.012 A 
HETATM    5  C2  UNK     1      27.847  -8.277  37.056  1.00  0.00     0.094 A 
HETATM    6  C3  UNK     1      29.600  -6.128  37.003  1.00  0.00     0.005 A 
HETATM    7  C4  UNK     1      27.825  -7.409  38.141  1.00  0.00     0.008 A 
HETATM    8  C5  UNK     1      28.387  -9.218  35.094  1.00  0.00     0.009 A 
HETATM    9  C6  UNK     1      28.725  -6.338  38.074  1.00  0.00     0.099 A 
HETATM   10  C7  UNK     1      29.579  -7.039  35.929  1.00  0.00     0.030 A 
HETATM   11  C8  UNK     1      30.499  -4.964  37.049  1.00  0.00    -0.043 A 
HETATM   12  C10 UNK     1      27.398  -9.945  35.716  1.00  0.00     0.155 A 
HETATM   13  C11 UNK     1      26.911  -7.596  39.302  1.00  0.00     0.054 C 
HETATM   14  C12 UNK     1      30.455  -4.145  38.108  1.00  0.00     0.090 A 
HETATM   15  C13 UNK     1      31.451  -4.708  35.916  1.00  0.00     0.049 C 
HETATM   16  C16 UNK     1      29.541  -4.350  39.244  1.00  0.00     0.288 A 
ENDROOT
BRANCH   8  17
HETATM   17  C9  UNK     1      28.937  -9.578  33.822  1.00  0.00    -0.023 A 
HETATM   18  C14 UNK     1      29.778 -10.687  33.710  1.00  0.00     0.013 A 
HETATM   19  C18 UNK     1      30.314 -11.038  32.471  1.00  0.00     0.007 A 
HETATM   20  C17 UNK     1      30.009 -10.279  31.340  1.00  0.00    -0.062 A 
HETATM   21  C19 UNK     1      29.170  -9.171  31.449  1.00  0.00     0.007 A 
HETATM   22  C20 UNK     1      30.581 -10.655  30.015  1.00  0.00     0.048 C 
HETATM   23  C15 UNK     1      28.634  -8.820  32.688  1.00  0.00     0.013 A 
ENDBRANCH   8  17
TORSDOF 1
ENDMDL
MODEL 8
REMARK VINA RESULT:      -7.9     18.750     20.973
REMARK  1 active torsions:
REMARK  status: ('A' for Active; 'I' for Inactive)
REMARK    1  A    between atoms: C5_8  and  C9_12 
ROOT
HETATM    1  O1  UNK     1      31.812  -4.248  37.186  1.00  0.00    -0.320 OA
HETATM    2  O2  UNK     1      34.880  -5.728  33.768  1.00  0.00    -0.274 OA
HETATM    3  O3  UNK     1      36.306  -6.495  32.153  1.00  0.00    -0.260 OA
HETATM    4  C1  UNK     1      31.797  -6.405  36.517  1.00  0.00     0.012 A 
HETATM    5  C2  UNK     1      32.385  -5.157  36.347  1.00  0.00     0.094 A 
HETATM    6  C3  UNK     1      33.294  -7.275  34.803  1.00  0.00     0.005 A 
HETATM    7  C4  UNK     1      33.409  -4.896  35.445  1.00  0.00     0.008 A 
HETATM    8  C5  UNK     1      30.807  -6.233  37.522  1.00  0.00     0.009 A 
HETATM    9  C6  UNK     1      33.838  -5.991  34.686  1.00  0.00     0.099 A 
HETATM   10  C7  UNK     1      32.257  -7.483  35.733  1.00  0.00     0.030 A 
HETATM   11  C8  UNK     1      33.830  -8.346  33.947  1.00  0.00    -0.043 A 
HETATM   12  C10 UNK     1      30.859  -4.909  37.893  1.00  0.00     0.155 A 
HETATM   13  C11 UNK     1      34.017  -3.545  35.290  1.00  0.00     0.054 C 
HETATM   14  C12 UNK     1      34.818  -8.062  33.087  1.00  0.00     0.090 A 
HETATM   15  C13 UNK     1      33.270  -9.735  34.047  1.00  0.00     0.049 C 
HETATM   16  C16 UNK     1      35.403  -6.718  32.950  1.00  0.00     0.288 A 
ENDROOT
BRANCH   8  17
HETATM   17  C9  UNK     1      29.894  -7.171  38.102  1.00  0.00    -0.023 A 
HETATM   18  C14 UNK     1      28.804  -6.718  38.848  1.00  0.00     0.013 A 
HETATM   19  C18 UNK     1      27.914  -7.632  39.413  1.00  0.00     0.007 A 
HETATM   20  C17 UNK     1      28.112  -9.002  39.232  1.00  0.00    -0.062 A 
HETATM   21  C19 UNK     1      29.200  -9.456  38.488  1.00  0.00     0.007 A 
HETATM   22  C20 UNK     1      27.160  -9.978  39.835  1.00  0.00     0.048 C 
HETATM   23  C15 UNK     1      30.090  -8.542  37.923  1.00  0.00     0.013 A 
ENDBRANCH   8  17
TORSDOF 1
ENDMDL
MODEL 9
REMARK VINA RESULT:      -7.8     18.363     20.676
REMARK  1 active torsions:
REMARK  status: ('A' for Active; 'I' for Inactive)
REMARK    1  A    between atoms: C5_8  and  C9_12 
ROOT
HETATM    1  O1  UNK     1      33.855  -3.596  35.154  1.00  0.00    -0.320 OA
HETATM    2  O2  UNK     1      30.166  -4.672  38.072  1.00  0.00    -0.274 OA
HETATM    3  O3  UNK     1      28.433  -5.250  39.447  1.00  0.00    -0.260 OA
HETATM    4  C1  UNK     1      33.382  -5.754  35.621  1.00  0.00     0.012 A 
HETATM    5  C2  UNK     1      33.023  -4.429  35.839  1.00  0.00     0.094 A 
HETATM    6  C3  UNK     1      31.548  -6.426  37.077  1.00  0.00     0.005 A 
HETATM    7  C4  UNK     1      31.963  -4.033  36.646  1.00  0.00     0.008 A 
HETATM    8  C5  UNK     1      34.502  -5.711  34.748  1.00  0.00     0.009 A 
HETATM    9  C6  UNK     1      31.245  -5.071  37.252  1.00  0.00     0.099 A 
HETATM   10  C7  UNK     1      32.634  -6.771  36.250  1.00  0.00     0.030 A 
HETATM   11  C8  UNK     1      30.718  -7.426  37.769  1.00  0.00    -0.043 A 
HETATM   12  C10 UNK     1      34.747  -4.382  34.496  1.00  0.00     0.155 A 
HETATM   13  C11 UNK     1      31.605  -2.602  36.858  1.00  0.00     0.054 C 
HETATM   14  C12 UNK     1      29.703  -7.013  38.539  1.00  0.00     0.090 A 
HETATM   15  C13 UNK     1      31.015  -8.889  37.604  1.00  0.00     0.049 C 
HETATM   16  C16 UNK     1      29.369  -5.592  38.735  1.00  0.00     0.288 A 
ENDROOT
BRANCH   8  17
HETATM   17  C9  UNK     1      35.287  -6.769  34.187  1.00  0.00    -0.023 A 
HETATM   18  C14 UNK     1      34.751  -7.587  33.190  1.00  0.00     0.013 A 
HETATM   19  C18 UNK     1      35.516  -8.617  32.642  1.00  0.00     0.007 A 
HETATM   20  C17 UNK     1      36.820  -8.832  33.091  1.00  0.00    -0.062 A 
HETATM   21  C19 UNK     1      37.358  -8.017  34.087  1.00  0.00     0.007 A 
HETATM   22  C20 UNK     1      37.638  -9.933  32.505  1.00  0.00     0.048 C 
HETATM   23  C15 UNK     1      36.593  -6.987  34.634  1.00  0.00     0.013 A 
ENDBRANCH   8  17
TORSDOF 1
ENDMDL
MODEL 10
REMARK VINA RESULT:      -7.8     17.861     21.428
REMARK  1 active torsions:
REMARK  status: ('A' for Active; 'I' for Inactive)
REMARK    1  A    between atoms: C5_8  and  C9_12 
ROOT
HETATM    1  O1  UNK     1      33.253  -9.407  29.364  1.00  0.00    -0.320 OA
HETATM    2  O2  UNK     1      36.301  -7.902  32.789  1.00  0.00    -0.274 OA
HETATM    3  O3  UNK     1      37.692  -7.153  34.442  1.00  0.00    -0.260 OA
HETATM    4  C1  UNK     1      32.513  -8.054  31.014  1.00  0.00     0.012 A 
HETATM    5  C2  UNK     1      33.610  -8.729  30.491  1.00  0.00     0.094 A 
HETATM    6  C3  UNK     1      33.951  -7.227  32.798  1.00  0.00     0.005 A 
HETATM    7  C4  UNK     1      34.881  -8.701  31.052  1.00  0.00     0.008 A 
HETATM    8  C5  UNK     1      31.428  -8.349  30.145  1.00  0.00     0.009 A 
HETATM    9  C6  UNK     1      35.009  -7.932  32.215  1.00  0.00     0.099 A 
HETATM   10  C7  UNK     1      32.684  -7.291  32.187  1.00  0.00     0.030 A 
HETATM   11  C8  UNK     1      34.213  -6.453  34.023  1.00  0.00    -0.043 A 
HETATM   12  C10 UNK     1      31.931  -9.171  29.163  1.00  0.00     0.155 A 
HETATM   13  C11 UNK     1      36.036  -9.436  30.464  1.00  0.00     0.054 C 
HETATM   14  C12 UNK     1      35.449  -6.446  34.540  1.00  0.00     0.090 A 
HETATM   15  C13 UNK     1      33.100  -5.684  34.675  1.00  0.00     0.049 C 
HETATM   16  C16 UNK     1      36.574  -7.182  33.941  1.00  0.00     0.288 A 
ENDROOT
BRANCH   8  17
HETATM   17  C9  UNK     1      30.059  -7.931  30.188  1.00  0.00    -0.023 A 
HETATM   18  C14 UNK     1      29.742  -6.571  30.231  1.00  0.00     0.013 A 
HETATM   19  C18 UNK     1      28.409  -6.164  30.273  1.00  0.00     0.007 A 
HETATM   20  C17 UNK     1      27.389  -7.115  30.270  1.00  0.00    -0.062 A 
HETATM   21  C19 UNK     1      27.702  -8.474  30.226  1.00  0.00     0.007 A 
HETATM   22  C20 UNK     1      25.963  -6.679  30.313  1.00  0.00     0.048 C 
HETATM   23  C15 UNK     1      29.036  -8.881  30.185  1.00  0.00     0.013 A 
ENDBRANCH   8  17
TORSDOF 1
ENDMDL
