MODEL 1
REMARK VINA RESULT:      -9.1      0.000      0.000
REMARK  6 active torsions:
REMARK  status: ('A' for Active; 'I' for Inactive)
REMARK    1  A    between atoms: C2_7  and  O1_3 
REMARK    2  A    between atoms: C5_10  and  O1_3 
REMARK    3  A    between atoms: C3_8  and  O2_4 
REMARK    4  A    between atoms: C1_6  and  C9_14 
REMARK    5  A    between atoms: C5_10  and  C8_13 
REMARK    6  A    between atoms: C10_15  and  C11_16 
ROOT
HETATM    1  N1  UNK     1      21.977  -1.706  35.315  1.00  0.00    -0.191 NA
HETATM    2  C9  UNK     1      18.676  -2.467  35.958  1.00  0.00     0.036 C 
HETATM    3  C10 UNK     1      19.903  -3.008  36.188  1.00  0.00     0.055 C 
HETATM    4  C23 UNK     1      21.045  -2.280  35.701  1.00  0.00     0.100 C 
ENDROOT
BRANCH   3   5
HETATM    5  C11 UNK     1      20.116  -4.260  36.895  1.00  0.00    -0.015 A 
HETATM    6  C14 UNK     1      21.278  -4.449  37.645  1.00  0.00     0.016 A 
HETATM    7  C19 UNK     1      21.483  -5.650  38.323  1.00  0.00     0.043 A 
HETATM    8  C21 UNK     1      20.527  -6.664  38.251  1.00  0.00     0.116 A 
HETATM    9  C20 UNK     1      19.365  -6.476  37.501  1.00  0.00     0.043 A 
HETATM   10  F1  UNK     1      20.724  -7.818  38.901  1.00  0.00    -0.206 F 
HETATM   11  C15 UNK     1      19.161  -5.274  36.823  1.00  0.00     0.016 A 
ENDBRANCH   3   5
BRANCH   2  12
HETATM   12  C1  UNK     1      18.415  -1.203  35.255  1.00  0.00    -0.015 A 
HETATM   13  C4  UNK     1      18.654  -1.179  33.886  1.00  0.00     0.052 A 
HETATM   14  C3  UNK     1      18.424  -0.005  33.168  1.00  0.00     0.102 A 
HETATM   15  C2  UNK     1      17.955   1.133  33.824  1.00  0.00     0.103 A 
HETATM   16  C7  UNK     1      17.717   1.099  35.198  1.00  0.00     0.059 A 
HETATM   17  C6  UNK     1      17.948  -0.075  35.916  1.00  0.00     0.024 A 
HETATM   18 Br1  UNK     1      17.604  -0.054  37.785  1.00  0.00    -0.050 Br
BRANCH  14  19
HETATM   19  O2  UNK     1      18.659   0.017  31.826  1.00  0.00    -0.353 OA
HETATM   20  C22 UNK     1      19.694  -0.832  31.336  1.00  0.00     0.210 C 
ENDBRANCH  14  19
BRANCH  15  21
HETATM   21  O1  UNK     1      17.725   2.284  33.133  1.00  0.00    -0.344 OA
BRANCH  21  22
HETATM   22  C5  UNK     1      18.279   3.485  33.670  1.00  0.00     0.214 C 
BRANCH  22  23
HETATM   23  C8  UNK     1      18.672   4.391  32.542  1.00  0.00    -0.034 A 
HETATM   24  C12 UNK     1      18.654   3.912  31.236  1.00  0.00     0.009 A 
HETATM   25  C16 UNK     1      19.020   4.755  30.187  1.00  0.00     0.001 A 
HETATM   26  C18 UNK     1      19.400   6.071  30.449  1.00  0.00     0.000 A 
HETATM   27  C17 UNK     1      19.415   6.545  31.760  1.00  0.00     0.001 A 
HETATM   28  C13 UNK     1      19.050   5.702  32.811  1.00  0.00     0.009 A 
ENDBRANCH  22  23
ENDBRANCH  21  22
ENDBRANCH  15  21
ENDBRANCH   2  12
TORSDOF 6
ENDMDL
MODEL 2
REMARK VINA RESULT:      -9.1      6.456      8.764
REMARK  6 active torsions:
REMARK  status: ('A' for Active; 'I' for Inactive)
REMARK    1  A    between atoms: C2_7  and  O1_3 
REMARK    2  A    between atoms: C5_10  and  O1_3 
REMARK    3  A    between atoms: C3_8  and  O2_4 
REMARK    4  A    between atoms: C1_6  and  C9_14 
REMARK    5  A    between atoms: C5_10  and  C8_13 
REMARK    6  A    between atoms: C10_15  and  C11_16 
ROOT
HETATM    1  N1  UNK     1      17.900   2.673  33.930  1.00  0.00    -0.191 NA
HETATM    2  C9  UNK     1      18.281   4.626  31.113  1.00  0.00     0.036 C 
HETATM    3  C10 UNK     1      18.343   3.309  31.448  1.00  0.00     0.055 C 
HETATM    4  C23 UNK     1      18.096   2.966  32.824  1.00  0.00     0.100 C 
ENDROOT
BRANCH   3   5
HETATM    5  C11 UNK     1      18.632   2.245  30.500  1.00  0.00    -0.015 A 
HETATM    6  C14 UNK     1      19.551   1.248  30.829  1.00  0.00     0.016 A 
HETATM    7  C19 UNK     1      19.830   0.228  29.920  1.00  0.00     0.043 A 
HETATM    8  C21 UNK     1      19.191   0.205  28.680  1.00  0.00     0.116 A 
HETATM    9  C20 UNK     1      18.272   1.202  28.350  1.00  0.00     0.043 A 
HETATM   10  F1  UNK     1      19.459  -0.774  27.807  1.00  0.00    -0.206 F 
HETATM   11  C15 UNK     1      17.994   2.222  29.260  1.00  0.00     0.016 A 
ENDBRANCH   3   5
BRANCH   2  12
HETATM   12  C1  UNK     1      17.986   5.731  32.035  1.00  0.00    -0.015 A 
HETATM   13  C4  UNK     1      16.648   5.977  32.321  1.00  0.00     0.052 A 
HETATM   14  C3  UNK     1      16.309   7.015  33.191  1.00  0.00     0.102 A 
HETATM   15  C2  UNK     1      17.311   7.796  33.767  1.00  0.00     0.103 A 
HETATM   16  C7  UNK     1      18.650   7.541  33.474  1.00  0.00     0.059 A 
HETATM   17  C6  UNK     1      18.989   6.504  32.605  1.00  0.00     0.024 A 
HETATM   18 Br1  UNK     1      20.832   6.210  32.249  1.00  0.00    -0.050 Br
BRANCH  14  19
HETATM   19  O2  UNK     1      14.998   7.254  33.469  1.00  0.00    -0.353 OA
HETATM   20  C22 UNK     1      14.088   7.234  32.371  1.00  0.00     0.210 C 
ENDBRANCH  14  19
BRANCH  15  21
HETATM   21  O1  UNK     1      16.992   8.811  34.618  1.00  0.00    -0.344 OA
BRANCH  21  22
HETATM   22  C5  UNK     1      16.971  10.130  34.074  1.00  0.00     0.214 C 
BRANCH  22  23
HETATM   23  C8  UNK     1      15.578  10.679  34.173  1.00  0.00    -0.034 A 
HETATM   24  C12 UNK     1      15.125  11.191  35.384  1.00  0.00     0.009 A 
HETATM   25  C16 UNK     1      13.830  11.701  35.476  1.00  0.00     0.001 A 
HETATM   26  C18 UNK     1      12.997  11.697  34.357  1.00  0.00     0.000 A 
HETATM   27  C17 UNK     1      13.459  11.182  33.146  1.00  0.00     0.001 A 
HETATM   28  C13 UNK     1      14.754  10.671  33.053  1.00  0.00     0.009 A 
ENDBRANCH  22  23
ENDBRANCH  21  22
ENDBRANCH  15  21
ENDBRANCH   2  12
TORSDOF 6
ENDMDL
MODEL 3
REMARK VINA RESULT:      -9.0      5.974     10.590
REMARK  6 active torsions:
REMARK  status: ('A' for Active; 'I' for Inactive)
REMARK    1  A    between atoms: C2_7  and  O1_3 
REMARK    2  A    between atoms: C5_10  and  O1_3 
REMARK    3  A    between atoms: C3_8  and  O2_4 
REMARK    4  A    between atoms: C1_6  and  C9_14 
REMARK    5  A    between atoms: C5_10  and  C8_13 
REMARK    6  A    between atoms: C10_15  and  C11_16 
ROOT
HETATM    1  N1  UNK     1      15.518   6.806  31.812  1.00  0.00    -0.191 NA
HETATM    2  C9  UNK     1      18.775   6.503  32.904  1.00  0.00     0.036 C 
HETATM    3  C10 UNK     1      17.795   7.446  32.892  1.00  0.00     0.055 C 
HETATM    4  C23 UNK     1      16.538   7.082  32.292  1.00  0.00     0.100 C 
ENDROOT
BRANCH   3   5
HETATM    5  C11 UNK     1      17.947   8.779  33.452  1.00  0.00    -0.015 A 
HETATM    6  C14 UNK     1      19.210   9.236  33.832  1.00  0.00     0.016 A 
HETATM    7  C19 UNK     1      19.356  10.514  34.370  1.00  0.00     0.043 A 
HETATM    8  C21 UNK     1      18.240  11.336  34.530  1.00  0.00     0.116 A 
HETATM    9  C20 UNK     1      16.977  10.879  34.150  1.00  0.00     0.043 A 
HETATM   10  F1  UNK     1      18.381  12.563  35.047  1.00  0.00    -0.206 F 
HETATM   11  C15 UNK     1      16.832   9.601  33.612  1.00  0.00     0.016 A 
ENDBRANCH   3   5
BRANCH   2  12
HETATM   12  C1  UNK     1      18.663   5.144  32.356  1.00  0.00    -0.015 A 
HETATM   13  C4  UNK     1      18.138   4.165  33.192  1.00  0.00     0.052 A 
HETATM   14  C3  UNK     1      18.008   2.857  32.725  1.00  0.00     0.102 A 
HETATM   15  C2  UNK     1      18.404   2.539  31.425  1.00  0.00     0.103 A 
HETATM   16  C7  UNK     1      18.929   3.528  30.594  1.00  0.00     0.059 A 
HETATM   17  C6  UNK     1      19.059   4.836  31.062  1.00  0.00     0.024 A 
HETATM   18 Br1  UNK     1      19.781   6.134  29.878  1.00  0.00    -0.050 Br
BRANCH  14  19
HETATM   19  O2  UNK     1      17.494   1.900  33.546  1.00  0.00    -0.353 OA
HETATM   20  C22 UNK     1      18.378   1.327  34.507  1.00  0.00     0.210 C 
ENDBRANCH  14  19
BRANCH  15  21
HETATM   21  O1  UNK     1      18.282   1.266  30.958  1.00  0.00    -0.344 OA
BRANCH  21  22
HETATM   22  C5  UNK     1      19.255   0.826  30.011  1.00  0.00     0.214 C 
BRANCH  22  23
HETATM   23  C8  UNK     1      19.798  -0.502  30.448  1.00  0.00    -0.034 A 
HETATM   24  C12 UNK     1      19.729  -0.867  31.788  1.00  0.00     0.009 A 
HETATM   25  C16 UNK     1      20.234  -2.103  32.194  1.00  0.00     0.001 A 
HETATM   26  C18 UNK     1      20.804  -2.965  31.258  1.00  0.00     0.000 A 
HETATM   27  C17 UNK     1      20.870  -2.592  29.916  1.00  0.00     0.001 A 
HETATM   28  C13 UNK     1      20.365  -1.357  29.509  1.00  0.00     0.009 A 
ENDBRANCH  22  23
ENDBRANCH  21  22
ENDBRANCH  15  21
ENDBRANCH   2  12
TORSDOF 6
ENDMDL
MODEL 4
REMARK VINA RESULT:      -8.5     11.892     13.986
REMARK  6 active torsions:
REMARK  status: ('A' for Active; 'I' for Inactive)
REMARK    1  A    between atoms: C2_7  and  O1_3 
REMARK    2  A    between atoms: C5_10  and  O1_3 
REMARK    3  A    between atoms: C3_8  and  O2_4 
REMARK    4  A    between atoms: C1_6  and  C9_14 
REMARK    5  A    between atoms: C5_10  and  C8_13 
REMARK    6  A    between atoms: C10_15  and  C11_16 
ROOT
HETATM    1  N1  UNK     1      27.403 -10.630  39.603  1.00  0.00    -0.191 NA
HETATM    2  C9  UNK     1      27.374  -8.801  36.680  1.00  0.00     0.036 C 
HETATM    3  C10 UNK     1      26.597  -9.729  37.301  1.00  0.00     0.055 C 
HETATM    4  C23 UNK     1      27.051 -10.222  38.575  1.00  0.00     0.100 C 
ENDROOT
BRANCH   3   5
HETATM    5  C11 UNK     1      25.348 -10.234  36.756  1.00  0.00    -0.015 A 
HETATM    6  C14 UNK     1      25.285 -11.529  36.240  1.00  0.00     0.016 A 
HETATM    7  C19 UNK     1      24.087 -12.014  35.716  1.00  0.00     0.043 A 
HETATM    8  C21 UNK     1      22.950 -11.204  35.708  1.00  0.00     0.116 A 
HETATM    9  C20 UNK     1      23.013  -9.910  36.225  1.00  0.00     0.043 A 
HETATM   10  F1  UNK     1      21.800 -11.670  35.205  1.00  0.00    -0.206 F 
HETATM   11  C15 UNK     1      24.212  -9.425  36.748  1.00  0.00     0.016 A 
ENDBRANCH   3   5
BRANCH   2  12
HETATM   12  C1  UNK     1      28.638  -8.258  37.196  1.00  0.00    -0.015 A 
HETATM   13  C4  UNK     1      29.809  -8.904  36.813  1.00  0.00     0.052 A 
HETATM   14  C3  UNK     1      31.038  -8.431  37.273  1.00  0.00     0.102 A 
HETATM   15  C2  UNK     1      31.087  -7.317  38.111  1.00  0.00     0.103 A 
HETATM   16  C7  UNK     1      29.907  -6.675  38.490  1.00  0.00     0.059 A 
HETATM   17  C6  UNK     1      28.678  -7.148  38.029  1.00  0.00     0.024 A 
HETATM   18 Br1  UNK     1      27.110  -6.229  38.583  1.00  0.00    -0.050 Br
BRANCH  14  19
HETATM   19  O2  UNK     1      32.183  -9.065  36.897  1.00  0.00    -0.353 OA
HETATM   20  C22 UNK     1      32.657  -8.817  35.575  1.00  0.00     0.210 C 
ENDBRANCH  14  19
BRANCH  15  21
HETATM   21  O1  UNK     1      32.281  -6.846  38.566  1.00  0.00    -0.344 OA
BRANCH  21  22
HETATM   22  C5  UNK     1      32.573  -5.471  38.319  1.00  0.00     0.214 C 
BRANCH  22  23
HETATM   23  C8  UNK     1      33.403  -5.363  37.074  1.00  0.00    -0.034 A 
HETATM   24  C12 UNK     1      32.939  -4.610  36.001  1.00  0.00     0.009 A 
HETATM   25  C16 UNK     1      33.711  -4.509  34.843  1.00  0.00     0.001 A 
HETATM   26  C18 UNK     1      34.942  -5.160  34.767  1.00  0.00     0.000 A 
HETATM   27  C17 UNK     1      35.402  -5.912  35.847  1.00  0.00     0.001 A 
HETATM   28  C13 UNK     1      34.630  -6.014  37.006  1.00  0.00     0.009 A 
ENDBRANCH  22  23
ENDBRANCH  21  22
ENDBRANCH  15  21
ENDBRANCH   2  12
TORSDOF 6
ENDMDL
MODEL 5
REMARK VINA RESULT:      -8.1     26.299     28.656
REMARK  6 active torsions:
REMARK  status: ('A' for Active; 'I' for Inactive)
REMARK    1  A    between atoms: C2_7  and  O1_3 
REMARK    2  A    between atoms: C5_10  and  O1_3 
REMARK    3  A    between atoms: C3_8  and  O2_4 
REMARK    4  A    between atoms: C1_6  and  C9_14 
REMARK    5  A    between atoms: C5_10  and  C8_13 
REMARK    6  A    between atoms: C10_15  and  C11_16 
ROOT
HETATM    1  N1  UNK     1      16.447  12.415  11.494  1.00  0.00    -0.191 NA
HETATM    2  C9  UNK     1      17.865  10.176   9.287  1.00  0.00     0.036 C 
HETATM    3  C10 UNK     1      18.237  11.282   9.986  1.00  0.00     0.055 C 
HETATM    4  C23 UNK     1      17.240  11.902  10.818  1.00  0.00     0.100 C 
ENDROOT
BRANCH   3   5
HETATM    5  C11 UNK     1      19.572  11.856   9.943  1.00  0.00    -0.015 A 
HETATM    6  C14 UNK     1      20.246  12.146  11.130  1.00  0.00     0.016 A 
HETATM    7  C19 UNK     1      21.526  12.697  11.089  1.00  0.00     0.043 A 
HETATM    8  C21 UNK     1      22.134  12.960   9.860  1.00  0.00     0.116 A 
HETATM    9  C20 UNK     1      21.461  12.670   8.673  1.00  0.00     0.043 A 
HETATM   10  F1  UNK     1      23.363  13.490   9.820  1.00  0.00    -0.206 F 
HETATM   11  C15 UNK     1      20.180  12.118   8.715  1.00  0.00     0.016 A 
ENDBRANCH   3   5
BRANCH   2  12
HETATM   12  C1  UNK     1      16.532   9.559   9.306  1.00  0.00    -0.015 A 
HETATM   13  C4  UNK     1      16.370   8.426  10.095  1.00  0.00     0.052 A 
HETATM   14  C3  UNK     1      15.125   7.798  10.151  1.00  0.00     0.102 A 
HETATM   15  C2  UNK     1      14.053   8.310   9.419  1.00  0.00     0.103 A 
HETATM   16  C7  UNK     1      14.226   9.447   8.630  1.00  0.00     0.059 A 
HETATM   17  C6  UNK     1      15.471  10.074   8.575  1.00  0.00     0.024 A 
HETATM   18 Br1  UNK     1      15.637  11.620   7.482  1.00  0.00    -0.050 Br
BRANCH  14  19
HETATM   19  O2  UNK     1      14.968   6.688  10.924  1.00  0.00    -0.353 OA
HETATM   20  C22 UNK     1      15.129   5.424  10.284  1.00  0.00     0.210 C 
ENDBRANCH  14  19
BRANCH  15  21
HETATM   21  O1  UNK     1      12.833   7.706   9.466  1.00  0.00    -0.344 OA
BRANCH  21  22
HETATM   22  C5  UNK     1      11.715   8.465   9.009  1.00  0.00     0.214 C 
BRANCH  22  23
HETATM   23  C8  UNK     1      10.892   7.618   8.085  1.00  0.00    -0.034 A 
HETATM   24  C12 UNK     1      11.442   7.171   6.888  1.00  0.00     0.009 A 
HETATM   25  C16 UNK     1      10.676   6.383   6.028  1.00  0.00     0.001 A 
HETATM   26  C18 UNK     1       9.367   6.047   6.371  1.00  0.00     0.000 A 
HETATM   27  C17 UNK     1       8.822   6.499   7.572  1.00  0.00     0.001 A 
HETATM   28  C13 UNK     1       9.587   7.288   8.432  1.00  0.00     0.009 A 
ENDBRANCH  22  23
ENDBRANCH  21  22
ENDBRANCH  15  21
ENDBRANCH   2  12
TORSDOF 6
ENDMDL
MODEL 6
REMARK VINA RESULT:      -8.1     26.885     28.780
REMARK  6 active torsions:
REMARK  status: ('A' for Active; 'I' for Inactive)
REMARK    1  A    between atoms: C2_7  and  O1_3 
REMARK    2  A    between atoms: C5_10  and  O1_3 
REMARK    3  A    between atoms: C3_8  and  O2_4 
REMARK    4  A    between atoms: C1_6  and  C9_14 
REMARK    5  A    between atoms: C5_10  and  C8_13 
REMARK    6  A    between atoms: C10_15  and  C11_16 
ROOT
HETATM    1  N1  UNK     1      15.882  11.735   7.356  1.00  0.00    -0.191 NA
HETATM    2  C9  UNK     1      17.106   9.961  10.049  1.00  0.00     0.036 C 
HETATM    3  C10 UNK     1      17.548  10.902   9.171  1.00  0.00     0.055 C 
HETATM    4  C23 UNK     1      16.619  11.357   8.170  1.00  0.00     0.100 C 
ENDROOT
BRANCH   3   5
HETATM    5  C11 UNK     1      18.887  11.468   9.198  1.00  0.00    -0.015 A 
HETATM    6  C14 UNK     1      19.539  11.770   8.002  1.00  0.00     0.016 A 
HETATM    7  C19 UNK     1      20.824  12.312   8.026  1.00  0.00     0.043 A 
HETATM    8  C21 UNK     1      21.457  12.552   9.247  1.00  0.00     0.116 A 
HETATM    9  C20 UNK     1      20.804  12.250  10.442  1.00  0.00     0.043 A 
HETATM   10  F1  UNK     1      22.691  13.072   9.270  1.00  0.00    -0.206 F 
HETATM   11  C15 UNK     1      19.520  11.707  10.417  1.00  0.00     0.016 A 
ENDBRANCH   3   5
BRANCH   2  12
HETATM   12  C1  UNK     1      15.762   9.367  10.063  1.00  0.00    -0.015 A 
HETATM   13  C4  UNK     1      15.610   8.127   9.453  1.00  0.00     0.052 A 
HETATM   14  C3  UNK     1      14.356   7.517   9.438  1.00  0.00     0.102 A 
HETATM   15  C2  UNK     1      13.264   8.150  10.032  1.00  0.00     0.103 A 
HETATM   16  C7  UNK     1      13.427   9.394  10.642  1.00  0.00     0.059 A 
HETATM   17  C6  UNK     1      14.681  10.005  10.658  1.00  0.00     0.024 A 
HETATM   18 Br1  UNK     1      14.833  11.698  11.505  1.00  0.00    -0.050 Br
BRANCH  14  19
HETATM   19  O2  UNK     1      14.209   6.302   8.839  1.00  0.00    -0.353 OA
HETATM   20  C22 UNK     1      14.643   5.160   9.575  1.00  0.00     0.210 C 
ENDBRANCH  14  19
BRANCH  15  21
HETATM   21  O1  UNK     1      12.035   7.563  10.023  1.00  0.00    -0.344 OA
BRANCH  21  22
HETATM   22  C5  UNK     1      10.982   8.273   9.373  1.00  0.00     0.214 C 
BRANCH  22  23
HETATM   23  C8  UNK     1      10.517   7.481   8.187  1.00  0.00    -0.034 A 
HETATM   24  C12 UNK     1      11.369   7.300   7.103  1.00  0.00     0.009 A 
HETATM   25  C16 UNK     1      10.936   6.563   6.001  1.00  0.00     0.001 A 
HETATM   26  C18 UNK     1       9.655   6.012   5.989  1.00  0.00     0.000 A 
HETATM   27  C17 UNK     1       8.806   6.198   7.079  1.00  0.00     0.001 A 
HETATM   28  C13 UNK     1       9.238   6.935   8.183  1.00  0.00     0.009 A 
ENDBRANCH  22  23
ENDBRANCH  21  22
ENDBRANCH  15  21
ENDBRANCH   2  12
TORSDOF 6
ENDMDL
MODEL 7
REMARK VINA RESULT:      -8.1     11.602     13.830
REMARK  6 active torsions:
REMARK  status: ('A' for Active; 'I' for Inactive)
REMARK    1  A    between atoms: C2_7  and  O1_3 
REMARK    2  A    between atoms: C5_10  and  O1_3 
REMARK    3  A    between atoms: C3_8  and  O2_4 
REMARK    4  A    between atoms: C1_6  and  C9_14 
REMARK    5  A    between atoms: C5_10  and  C8_13 
REMARK    6  A    between atoms: C10_15  and  C11_16 
ROOT
HETATM    1  N1  UNK     1      27.446 -10.447  39.485  1.00  0.00    -0.191 NA
HETATM    2  C9  UNK     1      27.258  -8.650  36.547  1.00  0.00     0.036 C 
HETATM    3  C10 UNK     1      26.535  -9.599  37.201  1.00  0.00     0.055 C 
HETATM    4  C23 UNK     1      27.047 -10.062  38.465  1.00  0.00     0.100 C 
ENDROOT
BRANCH   3   5
HETATM    5  C11 UNK     1      25.289 -10.156  36.701  1.00  0.00    -0.015 A 
HETATM    6  C14 UNK     1      24.125  -9.385  36.715  1.00  0.00     0.016 A 
HETATM    7  C19 UNK     1      22.930  -9.919  36.236  1.00  0.00     0.043 A 
HETATM    8  C21 UNK     1      22.896 -11.224  35.742  1.00  0.00     0.116 A 
HETATM    9  C20 UNK     1      24.059 -11.995  35.728  1.00  0.00     0.043 A 
HETATM   10  F1  UNK     1      21.747 -11.737  35.284  1.00  0.00    -0.206 F 
HETATM   11  C15 UNK     1      25.255 -11.460  36.208  1.00  0.00     0.016 A 
ENDBRANCH   3   5
BRANCH   2  12
HETATM   12  C1  UNK     1      28.516  -8.056  37.018  1.00  0.00    -0.015 A 
HETATM   13  C4  UNK     1      28.424  -7.049  37.972  1.00  0.00     0.052 A 
HETATM   14  C3  UNK     1      29.587  -6.449  38.455  1.00  0.00     0.102 A 
HETATM   15  C2  UNK     1      30.833  -6.861  37.980  1.00  0.00     0.103 A 
HETATM   16  C7  UNK     1      30.915  -7.872  37.023  1.00  0.00     0.059 A 
HETATM   17  C6  UNK     1      29.752  -8.472  36.540  1.00  0.00     0.024 A 
HETATM   18 Br1  UNK     1      29.935  -9.843  35.238  1.00  0.00    -0.050 Br
BRANCH  14  19
HETATM   19  O2  UNK     1      29.494  -5.463  39.389  1.00  0.00    -0.353 OA
HETATM   20  C22 UNK     1      29.059  -4.182  38.939  1.00  0.00     0.210 C 
ENDBRANCH  14  19
BRANCH  15  21
HETATM   21  O1  UNK     1      31.975  -6.283  38.445  1.00  0.00    -0.344 OA
BRANCH  21  22
HETATM   22  C5  UNK     1      32.326  -5.012  37.901  1.00  0.00     0.214 C 
BRANCH  22  23
HETATM   23  C8  UNK     1      33.341  -5.206  36.814  1.00  0.00    -0.034 A 
HETATM   24  C12 UNK     1      34.429  -6.045  37.030  1.00  0.00     0.009 A 
HETATM   25  C16 UNK     1      35.373  -6.226  36.019  1.00  0.00     0.001 A 
HETATM   26  C18 UNK     1      35.222  -5.569  34.798  1.00  0.00     0.000 A 
HETATM   27  C17 UNK     1      34.129  -4.730  34.588  1.00  0.00     0.001 A 
HETATM   28  C13 UNK     1      33.184  -4.548  35.600  1.00  0.00     0.009 A 
ENDBRANCH  22  23
ENDBRANCH  21  22
ENDBRANCH  15  21
ENDBRANCH   2  12
TORSDOF 6
ENDMDL
MODEL 8
REMARK VINA RESULT:      -8.0     26.892     28.586
REMARK  6 active torsions:
REMARK  status: ('A' for Active; 'I' for Inactive)
REMARK    1  A    between atoms: C2_7  and  O1_3 
REMARK    2  A    between atoms: C5_10  and  O1_3 
REMARK    3  A    between atoms: C3_8  and  O2_4 
REMARK    4  A    between atoms: C1_6  and  C9_14 
REMARK    5  A    between atoms: C5_10  and  C8_13 
REMARK    6  A    between atoms: C10_15  and  C11_16 
ROOT
HETATM    1  N1  UNK     1      15.306  10.996   7.570  1.00  0.00    -0.191 NA
HETATM    2  C9  UNK     1      16.780   9.559  10.336  1.00  0.00     0.036 C 
HETATM    3  C10 UNK     1      17.021  10.588   9.481  1.00  0.00     0.055 C 
HETATM    4  C23 UNK     1      16.066  10.806   8.426  1.00  0.00     0.100 C 
ENDROOT
BRANCH   3   5
HETATM    5  C11 UNK     1      18.173  11.471   9.581  1.00  0.00    -0.015 A 
HETATM    6  C14 UNK     1      18.973  11.702   8.461  1.00  0.00     0.016 A 
HETATM    7  C19 UNK     1      20.078  12.548   8.556  1.00  0.00     0.043 A 
HETATM    8  C21 UNK     1      20.384  13.163   9.772  1.00  0.00     0.116 A 
HETATM    9  C20 UNK     1      19.583  12.931  10.891  1.00  0.00     0.043 A 
HETATM   10  F1  UNK     1      21.445  13.974   9.863  1.00  0.00    -0.206 F 
HETATM   11  C15 UNK     1      18.479  12.085  10.795  1.00  0.00     0.016 A 
ENDBRANCH   3   5
BRANCH   2  12
HETATM   12  C1  UNK     1      15.628   8.648  10.277  1.00  0.00    -0.015 A 
HETATM   13  C4  UNK     1      14.385   9.176  10.607  1.00  0.00     0.052 A 
HETATM   14  C3  UNK     1      13.257   8.356  10.568  1.00  0.00     0.102 A 
HETATM   15  C2  UNK     1      13.381   7.016  10.199  1.00  0.00     0.103 A 
HETATM   16  C7  UNK     1      14.633   6.496   9.870  1.00  0.00     0.059 A 
HETATM   17  C6  UNK     1      15.761   7.316   9.909  1.00  0.00     0.024 A 
HETATM   18 Br1  UNK     1      17.435   6.544   9.449  1.00  0.00    -0.050 Br
BRANCH  14  19
HETATM   19  O2  UNK     1      12.040   8.875  10.891  1.00  0.00    -0.353 OA
HETATM   20  C22 UNK     1      11.296   9.487   9.840  1.00  0.00     0.210 C 
ENDBRANCH  14  19
BRANCH  15  21
HETATM   21  O1  UNK     1      12.286   6.207  10.157  1.00  0.00    -0.344 OA
BRANCH  21  22
HETATM   22  C5  UNK     1      12.248   5.221   9.128  1.00  0.00     0.214 C 
BRANCH  22  23
HETATM   23  C8  UNK     1      11.228   5.620   8.103  1.00  0.00    -0.034 A 
HETATM   24  C12 UNK     1       9.903   5.798   8.486  1.00  0.00     0.009 A 
HETATM   25  C16 UNK     1       8.954   6.169   7.533  1.00  0.00     0.001 A 
HETATM   26  C18 UNK     1       9.336   6.361   6.205  1.00  0.00     0.000 A 
HETATM   27  C17 UNK     1      10.666   6.181   5.830  1.00  0.00     0.001 A 
HETATM   28  C13 UNK     1      11.616   5.809   6.782  1.00  0.00     0.009 A 
ENDBRANCH  22  23
ENDBRANCH  21  22
ENDBRANCH  15  21
ENDBRANCH   2  12
TORSDOF 6
ENDMDL
MODEL 9
REMARK VINA RESULT:      -8.0      9.851     13.404
REMARK  6 active torsions:
REMARK  status: ('A' for Active; 'I' for Inactive)
REMARK    1  A    between atoms: C2_7  and  O1_3 
REMARK    2  A    between atoms: C5_10  and  O1_3 
REMARK    3  A    between atoms: C3_8  and  O2_4 
REMARK    4  A    between atoms: C1_6  and  C9_14 
REMARK    5  A    between atoms: C5_10  and  C8_13 
REMARK    6  A    between atoms: C10_15  and  C11_16 
ROOT
HETATM    1  N1  UNK     1      29.244  -6.253  34.733  1.00  0.00    -0.191 NA
HETATM    2  C9  UNK     1      30.269  -7.125  37.908  1.00  0.00     0.036 C 
HETATM    3  C10 UNK     1      30.834  -6.735  36.733  1.00  0.00     0.055 C 
HETATM    4  C23 UNK     1      29.946  -6.471  35.631  1.00  0.00     0.100 C 
ENDROOT
BRANCH   3   5
HETATM    5  C11 UNK     1      32.265  -6.568  36.539  1.00  0.00    -0.015 A 
HETATM    6  C14 UNK     1      33.126  -6.599  37.636  1.00  0.00     0.016 A 
HETATM    7  C19 UNK     1      34.499  -6.439  37.450  1.00  0.00     0.043 A 
HETATM    8  C21 UNK     1      35.012  -6.245  36.166  1.00  0.00     0.116 A 
HETATM    9  C20 UNK     1      34.150  -6.213  35.069  1.00  0.00     0.043 A 
HETATM   10  F1  UNK     1      36.329  -6.089  35.988  1.00  0.00    -0.206 F 
HETATM   11  C15 UNK     1      32.777  -6.374  35.256  1.00  0.00     0.016 A 
ENDBRANCH   3   5
BRANCH   2  12
HETATM   12  C1  UNK     1      28.831  -7.300  38.150  1.00  0.00    -0.015 A 
HETATM   13  C4  UNK     1      28.307  -8.574  37.962  1.00  0.00     0.052 A 
HETATM   14  C3  UNK     1      26.947  -8.797  38.179  1.00  0.00     0.102 A 
HETATM   15  C2  UNK     1      26.123  -7.746  38.582  1.00  0.00     0.103 A 
HETATM   16  C7  UNK     1      26.658  -6.472  38.768  1.00  0.00     0.059 A 
HETATM   17  C6  UNK     1      28.018  -6.248  38.552  1.00  0.00     0.024 A 
HETATM   18 Br1  UNK     1      28.682  -4.489  38.824  1.00  0.00    -0.050 Br
BRANCH  14  19
HETATM   19  O2  UNK     1      26.435 -10.046  37.993  1.00  0.00    -0.353 OA
HETATM   20  C22 UNK     1      26.176 -10.448  36.650  1.00  0.00     0.210 C 
ENDBRANCH  14  19
BRANCH  15  21
HETATM   21  O1  UNK     1      24.794  -7.953  38.796  1.00  0.00    -0.344 OA
BRANCH  21  22
HETATM   22  C5  UNK     1      24.000  -6.808  39.100  1.00  0.00     0.214 C 
BRANCH  22  23
HETATM   23  C8  UNK     1      22.557  -7.214  39.162  1.00  0.00    -0.034 A 
HETATM   24  C12 UNK     1      22.222  -8.508  39.546  1.00  0.00     0.009 A 
HETATM   25  C16 UNK     1      20.881  -8.886  39.604  1.00  0.00     0.001 A 
HETATM   26  C18 UNK     1      19.883  -7.967  39.279  1.00  0.00     0.000 A 
HETATM   27  C17 UNK     1      20.226  -6.671  38.895  1.00  0.00     0.001 A 
HETATM   28  C13 UNK     1      21.568  -6.293  38.837  1.00  0.00     0.009 A 
ENDBRANCH  22  23
ENDBRANCH  21  22
ENDBRANCH  15  21
ENDBRANCH   2  12
TORSDOF 6
ENDMDL
MODEL 10
REMARK VINA RESULT:      -7.9      6.563      8.955
REMARK  6 active torsions:
REMARK  status: ('A' for Active; 'I' for Inactive)
REMARK    1  A    between atoms: C2_7  and  O1_3 
REMARK    2  A    between atoms: C5_10  and  O1_3 
REMARK    3  A    between atoms: C3_8  and  O2_4 
REMARK    4  A    between atoms: C1_6  and  C9_14 
REMARK    5  A    between atoms: C5_10  and  C8_13 
REMARK    6  A    between atoms: C10_15  and  C11_16 
ROOT
HETATM    1  N1  UNK     1      19.547   6.119  29.717  1.00  0.00    -0.191 NA
HETATM    2  C9  UNK     1      17.847   4.226  32.044  1.00  0.00     0.036 C 
HETATM    3  C10 UNK     1      18.544   4.028  30.893  1.00  0.00     0.055 C 
HETATM    4  C23 UNK     1      19.096   5.191  30.249  1.00  0.00     0.100 C 
ENDROOT
BRANCH   3   5
HETATM    5  C11 UNK     1      18.763   2.722  30.293  1.00  0.00    -0.015 A 
HETATM    6  C14 UNK     1      18.251   2.442  29.026  1.00  0.00     0.016 A 
HETATM    7  C19 UNK     1      18.460   1.189  28.450  1.00  0.00     0.043 A 
HETATM    8  C21 UNK     1      19.181   0.214  29.142  1.00  0.00     0.116 A 
HETATM    9  C20 UNK     1      19.693   0.495  30.409  1.00  0.00     0.043 A 
HETATM   10  F1  UNK     1      19.380  -0.989  28.590  1.00  0.00    -0.206 F 
HETATM   11  C15 UNK     1      19.483   1.748  30.984  1.00  0.00     0.016 A 
ENDBRANCH   3   5
BRANCH   2  12
HETATM   12  C1  UNK     1      17.607   5.524  32.688  1.00  0.00    -0.015 A 
HETATM   13  C4  UNK     1      16.459   6.214  32.316  1.00  0.00     0.052 A 
HETATM   14  C3  UNK     1      16.181   7.452  32.896  1.00  0.00     0.102 A 
HETATM   15  C2  UNK     1      17.053   7.990  33.843  1.00  0.00     0.103 A 
HETATM   16  C7  UNK     1      18.203   7.290  34.210  1.00  0.00     0.059 A 
HETATM   17  C6  UNK     1      18.480   6.052  33.630  1.00  0.00     0.024 A 
HETATM   18 Br1  UNK     1      20.062   5.152  34.175  1.00  0.00    -0.050 Br
BRANCH  14  19
HETATM   19  O2  UNK     1      15.056   8.126  32.530  1.00  0.00    -0.353 OA
HETATM   20  C22 UNK     1      13.880   7.351  32.309  1.00  0.00     0.210 C 
ENDBRANCH  14  19
BRANCH  15  21
HETATM   21  O1  UNK     1      16.792   9.197  34.416  1.00  0.00    -0.344 OA
BRANCH  21  22
HETATM   22  C5  UNK     1      17.661  10.277  34.078  1.00  0.00     0.214 C 
BRANCH  22  23
HETATM   23  C8  UNK     1      16.875  11.555  34.070  1.00  0.00    -0.034 A 
HETATM   24  C12 UNK     1      15.486  11.508  34.012  1.00  0.00     0.009 A 
HETATM   25  C16 UNK     1      14.755  12.695  34.004  1.00  0.00     0.001 A 
HETATM   26  C18 UNK     1      15.416  13.922  34.054  1.00  0.00     0.000 A 
HETATM   27  C17 UNK     1      16.809  13.962  34.112  1.00  0.00     0.001 A 
HETATM   28  C13 UNK     1      17.541  12.774  34.120  1.00  0.00     0.009 A 
ENDBRANCH  22  23
ENDBRANCH  21  22
ENDBRANCH  15  21
ENDBRANCH   2  12
TORSDOF 6
ENDMDL
