MODEL 1
REMARK VINA RESULT:      -7.4      0.000      0.000
REMARK  3 active torsions:
REMARK  status: ('A' for Active; 'I' for Inactive)
REMARK    1  A    between atoms: C7_11  and  N1_3 
REMARK    2  A    between atoms: C1_5  and  C3_7 
REMARK    3  A    between atoms: C2_6  and  C4_8 
ROOT
HETATM    1  N2  UNK     1      15.795   4.303   9.753  1.00  0.00    -0.191 NA
HETATM    2  C3  UNK     1      12.754   4.974   8.271  1.00  0.00     0.035 C 
HETATM    3  C4  UNK     1      13.730   5.653   8.931  1.00  0.00     0.055 C 
HETATM    4  C15 UNK     1      14.869   4.897   9.383  1.00  0.00     0.100 C 
ENDROOT
BRANCH   3   5
HETATM    5  C2  UNK     1      13.685   7.082   9.194  1.00  0.00    -0.015 A 
HETATM    6  C10 UNK     1      13.132   7.556  10.383  1.00  0.00     0.013 A 
HETATM    7  C12 UNK     1      13.089   8.928  10.635  1.00  0.00     0.001 A 
HETATM    8  C14 UNK     1      13.601   9.825   9.697  1.00  0.00     0.000 A 
HETATM    9  C13 UNK     1      14.155   9.351   8.508  1.00  0.00     0.001 A 
HETATM   10  C11 UNK     1      14.197   7.980   8.256  1.00  0.00     0.013 A 
ENDBRANCH   3   5
BRANCH   2  11
HETATM   11  C1  UNK     1      11.508   5.553   7.751  1.00  0.00    -0.032 A 
HETATM   12  C5  UNK     1      10.426   5.724   8.604  1.00  0.00     0.047 A 
HETATM   13  C7  UNK     1       9.244   6.274   8.109  1.00  0.00     0.103 A 
HETATM   14  C9  UNK     1       9.155   6.646   6.767  1.00  0.00     0.036 A 
HETATM   15  C8  UNK     1      10.250   6.468   5.921  1.00  0.00     0.003 A 
HETATM   16  C6  UNK     1      11.432   5.918   6.415  1.00  0.00     0.011 A 
BRANCH  13  17
HETATM   17  N1  UNK     1       8.130   6.455   8.971  1.00  0.00    -0.116 N 
HETATM   18  O1  UNK     1       8.195   6.026  10.148  1.00  0.00    -0.532 OA
HETATM   19  O2  UNK     1       7.109   7.037   8.530  1.00  0.00    -0.532 OA
ENDBRANCH  13  17
ENDBRANCH   2  11
TORSDOF 3
ENDMDL
MODEL 2
REMARK VINA RESULT:      -7.3     23.977     25.435
REMARK  3 active torsions:
REMARK  status: ('A' for Active; 'I' for Inactive)
REMARK    1  A    between atoms: C7_11  and  N1_3 
REMARK    2  A    between atoms: C1_5  and  C3_7 
REMARK    3  A    between atoms: C2_6  and  C4_8 
ROOT
HETATM    1  N2  UNK     1      19.037  10.333  34.162  1.00  0.00    -0.191 NA
HETATM    2  C3  UNK     1      19.156   7.084  33.014  1.00  0.00     0.035 C 
HETATM    3  C4  UNK     1      18.215   8.028  33.285  1.00  0.00     0.055 C 
HETATM    4  C15 UNK     1      18.680   9.301  33.771  1.00  0.00     0.100 C 
ENDROOT
BRANCH   3   5
HETATM    5  C2  UNK     1      16.787   7.822  33.104  1.00  0.00    -0.015 A 
HETATM    6  C10 UNK     1      16.248   7.751  31.820  1.00  0.00     0.013 A 
HETATM    7  C12 UNK     1      14.878   7.554  31.647  1.00  0.00     0.001 A 
HETATM    8  C14 UNK     1      14.047   7.427  32.761  1.00  0.00     0.000 A 
HETATM    9  C13 UNK     1      14.585   7.497  34.045  1.00  0.00     0.001 A 
HETATM   10  C11 UNK     1      15.955   7.695  34.218  1.00  0.00     0.013 A 
ENDBRANCH   3   5
BRANCH   2  11
HETATM   11  C1  UNK     1      18.889   5.721  32.534  1.00  0.00    -0.032 A 
HETATM   12  C5  UNK     1      18.580   4.723  33.447  1.00  0.00     0.047 A 
HETATM   13  C7  UNK     1      18.328   3.430  32.990  1.00  0.00     0.103 A 
HETATM   14  C9  UNK     1      18.387   3.148  31.625  1.00  0.00     0.036 A 
HETATM   15  C8  UNK     1      18.699   4.161  30.717  1.00  0.00     0.003 A 
HETATM   16  C6  UNK     1      18.952   5.454  31.174  1.00  0.00     0.011 A 
BRANCH  13  17
HETATM   17  N1  UNK     1      18.010   2.399  33.913  1.00  0.00    -0.116 N 
HETATM   18  O1  UNK     1      18.432   2.486  35.091  1.00  0.00    -0.532 OA
HETATM   19  O2  UNK     1      17.318   1.427  33.525  1.00  0.00    -0.532 OA
ENDBRANCH  13  17
ENDBRANCH   2  11
TORSDOF 3
ENDMDL
MODEL 3
REMARK VINA RESULT:      -6.9     31.069     33.120
REMARK  3 active torsions:
REMARK  status: ('A' for Active; 'I' for Inactive)
REMARK    1  A    between atoms: C7_11  and  N1_3 
REMARK    2  A    between atoms: C1_5  and  C3_7 
REMARK    3  A    between atoms: C2_6  and  C4_8 
ROOT
HETATM    1  N2  UNK     1      23.140 -11.447  35.280  1.00  0.00    -0.191 NA
HETATM    2  C3  UNK     1      20.818  -8.902  35.431  1.00  0.00     0.035 C 
HETATM    3  C4  UNK     1      21.764  -9.458  36.235  1.00  0.00     0.055 C 
HETATM    4  C15 UNK     1      22.520 -10.559  35.698  1.00  0.00     0.100 C 
ENDROOT
BRANCH   3   5
HETATM    5  C2  UNK     1      22.050  -8.999  37.584  1.00  0.00    -0.015 A 
HETATM    6  C10 UNK     1      23.215  -8.279  37.844  1.00  0.00     0.013 A 
HETATM    7  C12 UNK     1      23.490  -7.838  39.139  1.00  0.00     0.001 A 
HETATM    8  C14 UNK     1      22.598  -8.119  40.174  1.00  0.00     0.000 A 
HETATM    9  C13 UNK     1      21.432  -8.839  39.915  1.00  0.00     0.001 A 
HETATM   10  C11 UNK     1      21.158  -9.280  38.620  1.00  0.00     0.013 A 
ENDBRANCH   3   5
BRANCH   2  11
HETATM   11  C1  UNK     1      19.929  -7.791  35.797  1.00  0.00    -0.032 A 
HETATM   12  C5  UNK     1      20.432  -6.498  35.837  1.00  0.00     0.047 A 
HETATM   13  C7  UNK     1      19.587  -5.444  36.184  1.00  0.00     0.103 A 
HETATM   14  C9  UNK     1      18.248  -5.694  36.489  1.00  0.00     0.036 A 
HETATM   15  C8  UNK     1      17.755  -6.999  36.445  1.00  0.00     0.003 A 
HETATM   16  C6  UNK     1      18.600  -8.052  36.098  1.00  0.00     0.011 A 
BRANCH  13  17
HETATM   17  N1  UNK     1      20.088  -4.117  36.228  1.00  0.00    -0.116 N 
HETATM   18  O1  UNK     1      20.342  -3.526  35.151  1.00  0.00    -0.532 OA
HETATM   19  O2  UNK     1      20.265  -3.570  37.344  1.00  0.00    -0.532 OA
ENDBRANCH  13  17
ENDBRANCH   2  11
TORSDOF 3
ENDMDL
MODEL 4
REMARK VINA RESULT:      -6.9     22.382     24.293
REMARK  3 active torsions:
REMARK  status: ('A' for Active; 'I' for Inactive)
REMARK    1  A    between atoms: C7_11  and  N1_3 
REMARK    2  A    between atoms: C1_5  and  C3_7 
REMARK    3  A    between atoms: C2_6  and  C4_8 
ROOT
HETATM    1  N2  UNK     1      18.247   0.264  34.581  1.00  0.00    -0.191 NA
HETATM    2  C3  UNK     1      18.255   3.440  33.238  1.00  0.00     0.035 C 
HETATM    3  C4  UNK     1      18.365   2.157  32.802  1.00  0.00     0.055 C 
HETATM    4  C15 UNK     1      18.299   1.116  33.794  1.00  0.00     0.100 C 
ENDROOT
BRANCH   3   5
HETATM    5  C2  UNK     1      18.536   1.788  31.406  1.00  0.00    -0.015 A 
HETATM    6  C10 UNK     1      19.490   0.837  31.047  1.00  0.00     0.013 A 
HETATM    7  C12 UNK     1      19.653   0.483  29.708  1.00  0.00     0.001 A 
HETATM    8  C14 UNK     1      18.862   1.082  28.727  1.00  0.00     0.000 A 
HETATM    9  C13 UNK     1      17.908   2.034  29.085  1.00  0.00     0.001 A 
HETATM   10  C11 UNK     1      17.745   2.388  30.425  1.00  0.00     0.013 A 
ENDBRANCH   3   5
BRANCH   2  11
HETATM   11  C1  UNK     1      18.319   4.640  32.394  1.00  0.00    -0.032 A 
HETATM   12  C5  UNK     1      17.267   5.545  32.411  1.00  0.00     0.047 A 
HETATM   13  C7  UNK     1      17.329   6.684  31.608  1.00  0.00     0.103 A 
HETATM   14  C9  UNK     1      18.442   6.906  30.796  1.00  0.00     0.036 A 
HETATM   15  C8  UNK     1      19.493   5.989  30.788  1.00  0.00     0.003 A 
HETATM   16  C6  UNK     1      19.431   4.850  31.591  1.00  0.00     0.011 A 
BRANCH  13  17
HETATM   17  N1  UNK     1      16.259   7.618  31.616  1.00  0.00    -0.116 N 
HETATM   18  O1  UNK     1      15.384   7.533  32.511  1.00  0.00    -0.532 OA
HETATM   19  O2  UNK     1      16.218   8.502  30.727  1.00  0.00    -0.532 OA
ENDBRANCH  13  17
ENDBRANCH   2  11
TORSDOF 3
ENDMDL
MODEL 5
REMARK VINA RESULT:      -6.8     12.957     15.228
REMARK  3 active torsions:
REMARK  status: ('A' for Active; 'I' for Inactive)
REMARK    1  A    between atoms: C7_11  and  N1_3 
REMARK    2  A    between atoms: C1_5  and  C3_7 
REMARK    3  A    between atoms: C2_6  and  C4_8 
ROOT
HETATM    1  N2  UNK     1      23.415  -4.349  16.255  1.00  0.00    -0.191 NA
HETATM    2  C3  UNK     1      20.409  -5.881  15.544  1.00  0.00     0.035 C 
HETATM    3  C4  UNK     1      20.979  -4.656  15.399  1.00  0.00     0.055 C 
HETATM    4  C15 UNK     1      22.328  -4.496  15.876  1.00  0.00     0.100 C 
ENDROOT
BRANCH   3   5
HETATM    5  C2  UNK     1      20.309  -3.518  14.790  1.00  0.00    -0.015 A 
HETATM    6  C10 UNK     1      20.515  -3.227  13.442  1.00  0.00     0.013 A 
HETATM    7  C12 UNK     1      19.872  -2.136  12.857  1.00  0.00     0.001 A 
HETATM    8  C14 UNK     1      19.022  -1.337  13.622  1.00  0.00     0.000 A 
HETATM    9  C13 UNK     1      18.815  -1.628  14.970  1.00  0.00     0.001 A 
HETATM   10  C11 UNK     1      19.459  -2.718  15.554  1.00  0.00     0.013 A 
ENDBRANCH   3   5
BRANCH   2  11
HETATM   11  C1  UNK     1      19.042  -6.243  15.145  1.00  0.00    -0.032 A 
HETATM   12  C5  UNK     1      18.051  -6.341  16.112  1.00  0.00     0.047 A 
HETATM   13  C7  UNK     1      16.754  -6.685  15.731  1.00  0.00     0.103 A 
HETATM   14  C9  UNK     1      16.462  -6.929  14.389  1.00  0.00     0.036 A 
HETATM   15  C8  UNK     1      17.467  -6.828  13.427  1.00  0.00     0.003 A 
HETATM   16  C6  UNK     1      18.764  -6.484  13.808  1.00  0.00     0.011 A 
BRANCH  13  17
HETATM   17  N1  UNK     1      15.730  -6.788  16.710  1.00  0.00    -0.116 N 
HETATM   18  O1  UNK     1      16.044  -7.064  17.893  1.00  0.00    -0.532 OA
HETATM   19  O2  UNK     1      14.538  -6.601  16.365  1.00  0.00    -0.532 OA
ENDBRANCH  13  17
ENDBRANCH   2  11
TORSDOF 3
ENDMDL
MODEL 6
REMARK VINA RESULT:      -6.7     30.489     31.941
REMARK  3 active torsions:
REMARK  status: ('A' for Active; 'I' for Inactive)
REMARK    1  A    between atoms: C7_11  and  N1_3 
REMARK    2  A    between atoms: C1_5  and  C3_7 
REMARK    3  A    between atoms: C2_6  and  C4_8 
ROOT
HETATM    1  N2  UNK     1      30.271  -2.261  31.217  1.00  0.00    -0.191 NA
HETATM    2  C3  UNK     1      29.295  -5.349  30.035  1.00  0.00     0.035 C 
HETATM    3  C4  UNK     1      29.686  -4.794  31.213  1.00  0.00     0.055 C 
HETATM    4  C15 UNK     1      30.008  -3.391  31.206  1.00  0.00     0.100 C 
ENDROOT
BRANCH   3   5
HETATM    5  C2  UNK     1      29.786  -5.532  32.462  1.00  0.00    -0.015 A 
HETATM    6  C10 UNK     1      31.038  -5.870  32.975  1.00  0.00     0.013 A 
HETATM    7  C12 UNK     1      31.134  -6.578  34.173  1.00  0.00     0.001 A 
HETATM    8  C14 UNK     1      29.977  -6.947  34.859  1.00  0.00     0.000 A 
HETATM    9  C13 UNK     1      28.724  -6.609  34.348  1.00  0.00     0.001 A 
HETATM   10  C11 UNK     1      28.629  -5.902  33.149  1.00  0.00     0.013 A 
ENDBRANCH   3   5
BRANCH   2  11
HETATM   11  C1  UNK     1      28.946  -6.761  29.828  1.00  0.00    -0.032 A 
HETATM   12  C5  UNK     1      29.873  -7.616  29.248  1.00  0.00     0.047 A 
HETATM   13  C7  UNK     1      29.540  -8.956  29.051  1.00  0.00     0.103 A 
HETATM   14  C9  UNK     1      28.283  -9.427  29.435  1.00  0.00     0.036 A 
HETATM   15  C8  UNK     1      27.360  -8.557  30.016  1.00  0.00     0.003 A 
HETATM   16  C6  UNK     1      27.693  -7.217  30.213  1.00  0.00     0.011 A 
BRANCH  13  17
HETATM   17  N1  UNK     1      30.478  -9.843  28.460  1.00  0.00    -0.116 N 
HETATM   18  O1  UNK     1      31.141  -9.454  27.468  1.00  0.00    -0.532 OA
HETATM   19  O2  UNK     1      30.619 -10.992  28.945  1.00  0.00    -0.532 OA
ENDBRANCH  13  17
ENDBRANCH   2  11
TORSDOF 3
ENDMDL
MODEL 7
REMARK VINA RESULT:      -6.5      2.026      3.114
REMARK  3 active torsions:
REMARK  status: ('A' for Active; 'I' for Inactive)
REMARK    1  A    between atoms: C7_11  and  N1_3 
REMARK    2  A    between atoms: C1_5  and  C3_7 
REMARK    3  A    between atoms: C2_6  and  C4_8 
ROOT
HETATM    1  N2  UNK     1      13.766  10.527  11.338  1.00  0.00    -0.191 NA
HETATM    2  C3  UNK     1      11.677   8.822   9.188  1.00  0.00     0.035 C 
HETATM    3  C4  UNK     1      12.850   8.608   9.841  1.00  0.00     0.055 C 
HETATM    4  C15 UNK     1      13.349   9.676  10.667  1.00  0.00     0.100 C 
ENDROOT
BRANCH   3   5
HETATM    5  C2  UNK     1      13.611   7.372   9.754  1.00  0.00    -0.015 A 
HETATM    6  C10 UNK     1      12.969   6.144   9.911  1.00  0.00     0.013 A 
HETATM    7  C12 UNK     1      13.698   4.959   9.827  1.00  0.00     0.001 A 
HETATM    8  C14 UNK     1      15.072   5.002   9.585  1.00  0.00     0.000 A 
HETATM    9  C13 UNK     1      15.715   6.229   9.427  1.00  0.00     0.001 A 
HETATM   10  C11 UNK     1      14.985   7.414   9.512  1.00  0.00     0.013 A 
ENDBRANCH   3   5
BRANCH   2  11
HETATM   11  C1  UNK     1      11.013   7.873   8.285  1.00  0.00    -0.032 A 
HETATM   12  C5  UNK     1       9.787   7.331   8.643  1.00  0.00     0.047 A 
HETATM   13  C7  UNK     1       9.158   6.430   7.784  1.00  0.00     0.103 A 
HETATM   14  C9  UNK     1       9.763   6.078   6.577  1.00  0.00     0.036 A 
HETATM   15  C8  UNK     1      10.996   6.630   6.228  1.00  0.00     0.003 A 
HETATM   16  C6  UNK     1      11.625   7.531   7.087  1.00  0.00     0.011 A 
BRANCH  13  17
HETATM   17  N1  UNK     1       7.903   5.868   8.138  1.00  0.00    -0.116 N 
HETATM   18  O1  UNK     1       7.066   6.582   8.742  1.00  0.00    -0.532 OA
HETATM   19  O2  UNK     1       7.666   4.673   7.839  1.00  0.00    -0.532 OA
ENDBRANCH  13  17
ENDBRANCH   2  11
TORSDOF 3
ENDMDL
MODEL 8
REMARK VINA RESULT:      -6.5     35.327     37.260
REMARK  3 active torsions:
REMARK  status: ('A' for Active; 'I' for Inactive)
REMARK    1  A    between atoms: C7_11  and  N1_3 
REMARK    2  A    between atoms: C1_5  and  C3_7 
REMARK    3  A    between atoms: C2_6  and  C4_8 
ROOT
HETATM    1  N2  UNK     1      29.418  -3.739  39.913  1.00  0.00    -0.191 NA
HETATM    2  C3  UNK     1      31.181  -4.495  37.048  1.00  0.00     0.035 C 
HETATM    3  C4  UNK     1      30.547  -5.159  38.050  1.00  0.00     0.055 C 
HETATM    4  C15 UNK     1      29.925  -4.364  39.077  1.00  0.00     0.100 C 
ENDROOT
BRANCH   3   5
HETATM    5  C2  UNK     1      30.459  -6.608  38.132  1.00  0.00    -0.015 A 
HETATM    6  C10 UNK     1      29.223  -7.241  38.002  1.00  0.00     0.013 A 
HETATM    7  C12 UNK     1      29.139  -8.631  38.080  1.00  0.00     0.001 A 
HETATM    8  C14 UNK     1      30.292  -9.388  38.289  1.00  0.00     0.000 A 
HETATM    9  C13 UNK     1      31.528  -8.756  38.419  1.00  0.00     0.001 A 
HETATM   10  C11 UNK     1      31.612  -7.366  38.342  1.00  0.00     0.013 A 
ENDBRANCH   3   5
BRANCH   2  11
HETATM   11  C1  UNK     1      31.892  -5.118  35.923  1.00  0.00    -0.032 A 
HETATM   12  C5  UNK     1      33.265  -5.310  36.005  1.00  0.00     0.047 A 
HETATM   13  C7  UNK     1      33.938  -5.902  34.936  1.00  0.00     0.103 A 
HETATM   14  C9  UNK     1      33.234  -6.293  33.797  1.00  0.00     0.036 A 
HETATM   15  C8  UNK     1      31.854  -6.093  33.727  1.00  0.00     0.003 A 
HETATM   16  C6  UNK     1      31.181  -5.502  34.796  1.00  0.00     0.011 A 
BRANCH  13  17
HETATM   17  N1  UNK     1      35.342  -6.105  35.006  1.00  0.00    -0.116 N 
HETATM   18  O1  UNK     1      35.935  -5.887  36.090  1.00  0.00    -0.532 OA
HETATM   19  O2  UNK     1      35.951  -6.496  33.981  1.00  0.00    -0.532 OA
ENDBRANCH  13  17
ENDBRANCH   2  11
TORSDOF 3
ENDMDL
MODEL 9
REMARK VINA RESULT:      -6.4     34.676     36.643
REMARK  3 active torsions:
REMARK  status: ('A' for Active; 'I' for Inactive)
REMARK    1  A    between atoms: C7_11  and  N1_3 
REMARK    2  A    between atoms: C1_5  and  C3_7 
REMARK    3  A    between atoms: C2_6  and  C4_8 
ROOT
HETATM    1  N2  UNK     1      29.369  -3.728  39.913  1.00  0.00    -0.191 NA
HETATM    2  C3  UNK     1      31.336  -4.294  37.138  1.00  0.00     0.035 C 
HETATM    3  C4  UNK     1      30.685  -5.024  38.083  1.00  0.00     0.055 C 
HETATM    4  C15 UNK     1      29.959  -4.298  39.092  1.00  0.00     0.100 C 
ENDROOT
BRANCH   3   5
HETATM    5  C2  UNK     1      30.678  -6.477  38.121  1.00  0.00    -0.015 A 
HETATM    6  C10 UNK     1      31.859  -7.175  38.370  1.00  0.00     0.013 A 
HETATM    7  C12 UNK     1      31.852  -8.569  38.407  1.00  0.00     0.001 A 
HETATM    8  C14 UNK     1      30.662  -9.266  38.194  1.00  0.00     0.000 A 
HETATM    9  C13 UNK     1      29.480  -8.569  37.944  1.00  0.00     0.001 A 
HETATM   10  C11 UNK     1      29.488  -7.175  37.907  1.00  0.00     0.013 A 
ENDBRANCH   3   5
BRANCH   2  11
HETATM   11  C1  UNK     1      32.147  -4.841  36.042  1.00  0.00    -0.032 A 
HETATM   12  C5  UNK     1      31.517  -5.400  34.939  1.00  0.00     0.047 A 
HETATM   13  C7  UNK     1      32.288  -5.919  33.899  1.00  0.00     0.103 A 
HETATM   14  C9  UNK     1      33.680  -5.875  33.973  1.00  0.00     0.036 A 
HETATM   15  C8  UNK     1      34.302  -5.311  35.088  1.00  0.00     0.003 A 
HETATM   16  C6  UNK     1      33.531  -4.792  36.128  1.00  0.00     0.011 A 
BRANCH  13  17
HETATM   17  N1  UNK     1      31.656  -6.492  32.764  1.00  0.00    -0.116 N 
HETATM   18  O1  UNK     1      30.536  -6.055  32.405  1.00  0.00    -0.532 OA
HETATM   19  O2  UNK     1      32.234  -7.423  32.152  1.00  0.00    -0.532 OA
ENDBRANCH  13  17
ENDBRANCH   2  11
TORSDOF 3
ENDMDL
MODEL 10
REMARK VINA RESULT:      -6.4     32.658     35.258
REMARK  3 active torsions:
REMARK  status: ('A' for Active; 'I' for Inactive)
REMARK    1  A    between atoms: C7_11  and  N1_3 
REMARK    2  A    between atoms: C1_5  and  C3_7 
REMARK    3  A    between atoms: C2_6  and  C4_8 
ROOT
HETATM    1  N2  UNK     1      30.663 -10.607  34.365  1.00  0.00    -0.191 NA
HETATM    2  C3  UNK     1      30.916  -7.643  36.109  1.00  0.00     0.035 C 
HETATM    3  C4  UNK     1      30.439  -8.075  34.911  1.00  0.00     0.055 C 
HETATM    4  C15 UNK     1      30.568  -9.478  34.617  1.00  0.00     0.100 C 
ENDROOT
BRANCH   3   5
HETATM    5  C2  UNK     1      29.809  -7.206  33.930  1.00  0.00    -0.015 A 
HETATM    6  C10 UNK     1      28.446  -6.927  34.017  1.00  0.00     0.013 A 
HETATM    7  C12 UNK     1      27.842  -6.093  33.076  1.00  0.00     0.001 A 
HETATM    8  C14 UNK     1      28.603  -5.538  32.047  1.00  0.00     0.000 A 
HETATM    9  C13 UNK     1      29.967  -5.815  31.959  1.00  0.00     0.001 A 
HETATM   10  C11 UNK     1      30.570  -6.650  32.900  1.00  0.00     0.013 A 
ENDBRANCH   3   5
BRANCH   2  11
HETATM   11  C1  UNK     1      30.900  -6.254  36.587  1.00  0.00    -0.032 A 
HETATM   12  C5  UNK     1      29.994  -5.879  37.568  1.00  0.00     0.047 A 
HETATM   13  C7  UNK     1      29.980  -4.560  38.021  1.00  0.00     0.103 A 
HETATM   14  C9  UNK     1      30.872  -3.629  37.486  1.00  0.00     0.036 A 
HETATM   15  C8  UNK     1      31.778  -4.019  36.499  1.00  0.00     0.003 A 
HETATM   16  C6  UNK     1      31.792  -5.338  36.047  1.00  0.00     0.011 A 
BRANCH  13  17
HETATM   17  N1  UNK     1      29.059  -4.163  39.026  1.00  0.00    -0.116 N 
HETATM   18  O1  UNK     1      29.495  -3.637  40.078  1.00  0.00    -0.532 OA
HETATM   19  O2  UNK     1      27.833  -4.350  38.834  1.00  0.00    -0.532 OA
ENDBRANCH  13  17
ENDBRANCH   2  11
TORSDOF 3
ENDMDL
