MODEL 1
REMARK VINA RESULT:      -8.8      0.000      0.000
REMARK  1 active torsions:
REMARK  status: ('A' for Active; 'I' for Inactive)
REMARK    1  A    between atoms: C14_18  and  C17_21 
ROOT
HETATM    1  O1  UNK     1      18.671   1.016  31.995  1.00  0.00    -0.273 OA
HETATM    2  O2  UNK     1      18.849   1.899  29.910  1.00  0.00    -0.259 OA
HETATM    3  N1  UNK     1      18.316  -0.670  36.524  1.00  0.00    -0.380 N 
HETATM    4  C1  UNK     1      18.750  -0.820  35.206  1.00  0.00     0.045 A 
HETATM    5  C2  UNK     1      18.524   0.186  34.243  1.00  0.00     0.004 A 
HETATM    6  C3  UNK     1      17.398   0.415  36.853  1.00  0.00     0.123 C 
HETATM    7  C4  UNK     1      18.383  -1.812  37.433  1.00  0.00     0.123 C 
HETATM    8  C5  UNK     1      19.465  -1.968  34.803  1.00  0.00    -0.030 A 
HETATM    9  C6  UNK     1      17.783   1.449  34.618  1.00  0.00     0.045 C 
HETATM   10  C7  UNK     1      17.804   1.686  36.125  1.00  0.00     0.025 C 
HETATM   11  C8  UNK     1      19.680  -2.582  37.224  1.00  0.00     0.024 C 
HETATM   12  C9  UNK     1      19.758  -3.078  35.786  1.00  0.00     0.042 C 
HETATM   13  C10 UNK     1      18.952  -0.013  32.914  1.00  0.00     0.099 A 
HETATM   14  C11 UNK     1      19.880  -2.128  33.468  1.00  0.00     0.024 A 
HETATM   15  C12 UNK     1      19.623  -1.155  32.493  1.00  0.00     0.006 A 
HETATM   16  C13 UNK     1      20.033  -1.285  31.073  1.00  0.00    -0.030 A 
HETATM   17  C14 UNK     1      19.788  -0.261  30.228  1.00  0.00     0.084 A 
HETATM   18  C15 UNK     1      19.077   0.965  30.674  1.00  0.00     0.302 A 
HETATM   19  C16 UNK     1      20.691  -2.591  30.688  1.00  0.00     0.050 C 
ENDROOT
BRANCH  17  20
HETATM   20  C17 UNK     1      20.224  -0.321  28.818  1.00  0.00     0.276 C 
HETATM   21  O3  UNK     1      19.465  -0.639  27.919  1.00  0.00    -0.301 OA
ENDBRANCH  17  20
TORSDOF 1
ENDMDL
MODEL 2
REMARK VINA RESULT:      -8.2      1.330      1.887
REMARK  1 active torsions:
REMARK  status: ('A' for Active; 'I' for Inactive)
REMARK    1  A    between atoms: C14_18  and  C17_21 
ROOT
HETATM    1  O1  UNK     1      17.876   2.266  33.050  1.00  0.00    -0.273 OA
HETATM    2  O2  UNK     1      17.561   3.934  31.542  1.00  0.00    -0.259 OA
HETATM    3  N1  UNK     1      18.580  -1.146  36.419  1.00  0.00    -0.380 N 
HETATM    4  C1  UNK     1      18.734  -0.686  35.110  1.00  0.00     0.045 A 
HETATM    5  C2  UNK     1      18.254   0.582  34.720  1.00  0.00     0.004 A 
HETATM    6  C3  UNK     1      17.693  -0.428  37.327  1.00  0.00     0.123 C 
HETATM    7  C4  UNK     1      18.901  -2.537  36.729  1.00  0.00     0.123 C 
HETATM    8  C5  UNK     1      19.411  -1.459  34.144  1.00  0.00    -0.030 A 
HETATM    9  C6  UNK     1      17.540   1.467  35.716  1.00  0.00     0.045 C 
HETATM   10  C7  UNK     1      17.864   1.073  37.153  1.00  0.00     0.025 C 
HETATM   11  C8  UNK     1      20.165  -2.966  35.998  1.00  0.00     0.024 C 
HETATM   12  C9  UNK     1      19.967  -2.820  34.495  1.00  0.00     0.042 C 
HETATM   13  C10 UNK     1      18.402   1.003  33.382  1.00  0.00     0.099 A 
HETATM   14  C11 UNK     1      19.543  -1.003  32.818  1.00  0.00     0.024 A 
HETATM   15  C12 UNK     1      19.032   0.235  32.409  1.00  0.00     0.006 A 
HETATM   16  C13 UNK     1      19.140   0.751  31.022  1.00  0.00    -0.030 A 
HETATM   17  C14 UNK     1      18.665   1.985  30.748  1.00  0.00     0.084 A 
HETATM   18  C15 UNK     1      17.997   2.812  31.786  1.00  0.00     0.302 A 
HETATM   19  C16 UNK     1      19.774  -0.180  30.014  1.00  0.00     0.050 C 
ENDROOT
BRANCH  17  20
HETATM   20  C17 UNK     1      18.797   2.565  29.395  1.00  0.00     0.276 C 
HETATM   21  O3  UNK     1      17.940   2.415  28.541  1.00  0.00    -0.301 OA
ENDBRANCH  17  20
TORSDOF 1
ENDMDL
MODEL 3
REMARK VINA RESULT:      -8.2      2.844      6.429
REMARK  1 active torsions:
REMARK  status: ('A' for Active; 'I' for Inactive)
REMARK    1  A    between atoms: C14_18  and  C17_21 
ROOT
HETATM    1  O1  UNK     1      19.854  -2.072  33.332  1.00  0.00    -0.273 OA
HETATM    2  O2  UNK     1      20.248  -3.651  34.915  1.00  0.00    -0.259 OA
HETATM    3  N1  UNK     1      19.201   1.246  29.860  1.00  0.00    -0.380 N 
HETATM    4  C1  UNK     1      19.078   0.845  31.191  1.00  0.00     0.045 A 
HETATM    5  C2  UNK     1      19.552  -0.411  31.624  1.00  0.00     0.004 A 
HETATM    6  C3  UNK     1      19.589   0.265  28.853  1.00  0.00     0.123 C 
HETATM    7  C4  UNK     1      18.516   2.456  29.412  1.00  0.00     0.123 C 
HETATM    8  C5  UNK     1      18.508   1.701  32.157  1.00  0.00    -0.030 A 
HETATM    9  C6  UNK     1      20.193  -1.364  30.640  1.00  0.00     0.045 C 
HETATM   10  C7  UNK     1      20.687  -0.638  29.394  1.00  0.00     0.025 C 
HETATM   11  C8  UNK     1      18.620   3.548  30.467  1.00  0.00     0.024 C 
HETATM   12  C9  UNK     1      17.993   3.068  31.769  1.00  0.00     0.042 C 
HETATM   13  C10 UNK     1      19.385  -0.795  32.971  1.00  0.00     0.099 A 
HETATM   14  C11 UNK     1      18.361   1.284  33.494  1.00  0.00     0.024 A 
HETATM   15  C12 UNK     1      18.790   0.022  33.926  1.00  0.00     0.006 A 
HETATM   16  C13 UNK     1      18.648  -0.462  35.320  1.00  0.00    -0.030 A 
HETATM   17  C14 UNK     1      19.149  -1.674  35.644  1.00  0.00     0.084 A 
HETATM   18  C15 UNK     1      19.792  -2.548  34.628  1.00  0.00     0.302 A 
HETATM   19  C16 UNK     1      17.924   0.461  36.274  1.00  0.00     0.050 C 
ENDROOT
BRANCH  17  20
HETATM   20  C17 UNK     1      19.080  -2.177  37.031  1.00  0.00     0.276 C 
HETATM   21  O3  UNK     1      20.075  -2.518  37.646  1.00  0.00    -0.301 OA
ENDBRANCH  17  20
TORSDOF 1
ENDMDL
MODEL 4
REMARK VINA RESULT:      -8.1      2.624      5.834
REMARK  1 active torsions:
REMARK  status: ('A' for Active; 'I' for Inactive)
REMARK    1  A    between atoms: C14_18  and  C17_21 
ROOT
HETATM    1  O1  UNK     1      17.875   1.268  34.592  1.00  0.00    -0.273 OA
HETATM    2  O2  UNK     1      17.022   1.677  36.657  1.00  0.00    -0.259 OA
HETATM    3  N1  UNK     1      19.531   0.505  30.102  1.00  0.00    -0.380 N 
HETATM    4  C1  UNK     1      19.321   0.060  31.408  1.00  0.00     0.045 A 
HETATM    5  C2  UNK     1      18.673   0.871  32.363  1.00  0.00     0.004 A 
HETATM    6  C3  UNK     1      19.312   1.912  29.785  1.00  0.00     0.123 C 
HETATM    7  C4  UNK     1      20.384  -0.275  29.210  1.00  0.00     0.123 C 
HETATM    8  C5  UNK     1      19.717  -1.235  31.806  1.00  0.00    -0.030 A 
HETATM    9  C6  UNK     1      18.205   2.260  31.991  1.00  0.00     0.045 C 
HETATM   10  C7  UNK     1      18.059   2.419  30.482  1.00  0.00     0.025 C 
HETATM   11  C8  UNK     1      20.121  -1.764  29.390  1.00  0.00     0.024 C 
HETATM   12  C9  UNK     1      20.402  -2.166  30.832  1.00  0.00     0.042 C 
HETATM   13  C10 UNK     1      18.504   0.399  33.681  1.00  0.00     0.099 A 
HETATM   14  C11 UNK     1      19.527  -1.673  33.130  1.00  0.00     0.024 A 
HETATM   15  C12 UNK     1      18.923  -0.859  34.098  1.00  0.00     0.006 A 
HETATM   16  C13 UNK     1      18.711  -1.275  35.506  1.00  0.00    -0.030 A 
HETATM   17  C14 UNK     1      18.064  -0.435  36.343  1.00  0.00     0.084 A 
HETATM   18  C15 UNK     1      17.608   0.909  35.900  1.00  0.00     0.302 A 
HETATM   19  C16 UNK     1      19.264  -2.628  35.890  1.00  0.00     0.050 C 
ENDROOT
BRANCH  17  20
HETATM   20  C17 UNK     1      17.782  -0.825  37.740  1.00  0.00     0.276 C 
HETATM   21  O3  UNK     1      18.517  -0.511  38.660  1.00  0.00    -0.301 OA
ENDBRANCH  17  20
TORSDOF 1
ENDMDL
MODEL 5
REMARK VINA RESULT:      -7.9      1.288      3.171
REMARK  1 active torsions:
REMARK  status: ('A' for Active; 'I' for Inactive)
REMARK    1  A    between atoms: C14_18  and  C17_21 
ROOT
HETATM    1  O1  UNK     1      20.230  -2.212  32.384  1.00  0.00    -0.273 OA
HETATM    2  O2  UNK     1      21.039  -2.823  30.353  1.00  0.00    -0.259 OA
HETATM    3  N1  UNK     1      18.451  -1.112  36.757  1.00  0.00    -0.380 N 
HETATM    4  C1  UNK     1      18.650  -0.789  35.413  1.00  0.00     0.045 A 
HETATM    5  C2  UNK     1      19.321  -1.672  34.540  1.00  0.00     0.004 A 
HETATM    6  C3  UNK     1      19.161  -2.250  37.329  1.00  0.00     0.123 C 
HETATM    7  C4  UNK     1      17.941  -0.092  37.668  1.00  0.00     0.123 C 
HETATM    8  C5  UNK     1      18.151   0.415  34.875  1.00  0.00    -0.030 A 
HETATM    9  C6  UNK     1      19.859  -2.988  35.053  1.00  0.00     0.045 C 
HETATM   10  C7  UNK     1      19.173  -3.411  36.347  1.00  0.00     0.025 C 
HETATM   11  C8  UNK     1      16.849   0.727  36.993  1.00  0.00     0.024 C 
HETATM   12  C9  UNK     1      17.407   1.400  35.746  1.00  0.00     0.042 C 
HETATM   13  C10 UNK     1      19.529  -1.300  33.196  1.00  0.00     0.099 A 
HETATM   14  C11 UNK     1      18.374   0.750  33.526  1.00  0.00     0.024 A 
HETATM   15  C12 UNK     1      19.077  -0.099  32.661  1.00  0.00     0.006 A 
HETATM   16  C13 UNK     1      19.344   0.216  31.236  1.00  0.00    -0.030 A 
HETATM   17  C14 UNK     1      19.980  -0.699  30.474  1.00  0.00     0.084 A 
HETATM   18  C15 UNK     1      20.459  -1.987  31.040  1.00  0.00     0.302 A 
HETATM   19  C16 UNK     1      18.882   1.575  30.758  1.00  0.00     0.050 C 
ENDROOT
BRANCH  17  20
HETATM   20  C17 UNK     1      20.222  -0.454  29.037  1.00  0.00     0.276 C 
HETATM   21  O3  UNK     1      19.431  -0.804  28.179  1.00  0.00    -0.301 OA
ENDBRANCH  17  20
TORSDOF 1
ENDMDL
MODEL 6
REMARK VINA RESULT:      -7.9      3.611      5.756
REMARK  1 active torsions:
REMARK  status: ('A' for Active; 'I' for Inactive)
REMARK    1  A    between atoms: C14_18  and  C17_21 
ROOT
HETATM    1  O1  UNK     1      17.688   4.323  33.753  1.00  0.00    -0.273 OA
HETATM    2  O2  UNK     1      17.194   6.461  34.335  1.00  0.00    -0.259 OA
HETATM    3  N1  UNK     1      18.816  -0.274  32.711  1.00  0.00    -0.380 N 
HETATM    4  C1  UNK     1      18.731   1.068  32.336  1.00  0.00     0.045 A 
HETATM    5  C2  UNK     1      18.276   2.053  33.238  1.00  0.00     0.004 A 
HETATM    6  C3  UNK     1      18.192  -0.706  33.956  1.00  0.00     0.123 C 
HETATM    7  C4  UNK     1      19.090  -1.284  31.693  1.00  0.00     0.123 C 
HETATM    8  C5  UNK     1      19.134   1.489  31.051  1.00  0.00    -0.030 A 
HETATM    9  C6  UNK     1      17.850   1.667  34.636  1.00  0.00     0.045 C 
HETATM   10  C7  UNK     1      18.434   0.321  35.051  1.00  0.00     0.025 C 
HETATM   11  C8  UNK     1      20.141  -0.781  30.713  1.00  0.00     0.024 C 
HETATM   12  C9  UNK     1      19.648   0.493  30.038  1.00  0.00     0.042 C 
HETATM   13  C10 UNK     1      18.176   3.394  32.815  1.00  0.00     0.099 A 
HETATM   14  C11 UNK     1      19.024   2.839  30.666  1.00  0.00     0.024 A 
HETATM   15  C12 UNK     1      18.533   3.818  31.540  1.00  0.00     0.006 A 
HETATM   16  C13 UNK     1      18.391   5.249  31.175  1.00  0.00    -0.030 A 
HETATM   17  C14 UNK     1      17.962   6.121  32.113  1.00  0.00     0.084 A 
HETATM   18  C15 UNK     1      17.586   5.674  33.479  1.00  0.00     0.302 A 
HETATM   19  C16 UNK     1      18.732   5.608  29.746  1.00  0.00     0.050 C 
ENDROOT
BRANCH  17  20
HETATM   20  C17 UNK     1      17.855   7.564  31.814  1.00  0.00     0.276 C 
HETATM   21  O3  UNK     1      16.826   8.062  31.392  1.00  0.00    -0.301 OA
ENDBRANCH  17  20
TORSDOF 1
ENDMDL
MODEL 7
REMARK VINA RESULT:      -7.7     11.522     13.596
REMARK  1 active torsions:
REMARK  status: ('A' for Active; 'I' for Inactive)
REMARK    1  A    between atoms: C14_18  and  C17_21 
ROOT
HETATM    1  O1  UNK     1      27.553  -5.565  38.394  1.00  0.00    -0.273 OA
HETATM    2  O2  UNK     1      25.345  -5.215  38.795  1.00  0.00    -0.259 OA
HETATM    3  N1  UNK     1      32.264  -6.137  37.412  1.00  0.00    -0.380 N 
HETATM    4  C1  UNK     1      31.001  -6.681  37.653  1.00  0.00     0.045 A 
HETATM    5  C2  UNK     1      29.880  -5.856  37.880  1.00  0.00     0.004 A 
HETATM    6  C3  UNK     1      32.483  -4.714  37.648  1.00  0.00     0.123 C 
HETATM    7  C4  UNK     1      33.429  -7.017  37.390  1.00  0.00     0.123 C 
HETATM    8  C5  UNK     1      30.799  -8.078  37.639  1.00  0.00    -0.030 A 
HETATM    9  C6  UNK     1      30.028  -4.352  37.885  1.00  0.00     0.045 C 
HETATM   10  C7  UNK     1      31.291  -3.909  37.154  1.00  0.00     0.025 C 
HETATM   11  C8  UNK     1      33.099  -8.318  36.673  1.00  0.00     0.024 C 
HETATM   12  C9  UNK     1      31.952  -9.022  37.386  1.00  0.00     0.042 C 
HETATM   13  C10 UNK     1      28.625  -6.443  38.148  1.00  0.00     0.099 A 
HETATM   14  C11 UNK     1      29.530  -8.626  37.907  1.00  0.00     0.024 A 
HETATM   15  C12 UNK     1      28.418  -7.817  38.176  1.00  0.00     0.006 A 
HETATM   16  C13 UNK     1      27.066  -8.350  38.473  1.00  0.00    -0.030 A 
HETATM   17  C14 UNK     1      26.050  -7.481  38.660  1.00  0.00     0.084 A 
HETATM   18  C15 UNK     1      26.265  -6.011  38.624  1.00  0.00     0.302 A 
HETATM   19  C16 UNK     1      26.949  -9.855  38.556  1.00  0.00     0.050 C 
ENDROOT
BRANCH  17  20
HETATM   20  C17 UNK     1      24.675  -7.963  38.905  1.00  0.00     0.276 C 
HETATM   21  O3  UNK     1      23.873  -8.119  38.001  1.00  0.00    -0.301 OA
ENDBRANCH  17  20
TORSDOF 1
ENDMDL
MODEL 8
REMARK VINA RESULT:      -7.5      3.731      6.725
REMARK  1 active torsions:
REMARK  status: ('A' for Active; 'I' for Inactive)
REMARK    1  A    between atoms: C14_18  and  C17_21 
ROOT
HETATM    1  O1  UNK     1      18.411   1.057  32.169  1.00  0.00    -0.273 OA
HETATM    2  O2  UNK     1      18.440  -1.191  32.485  1.00  0.00    -0.259 OA
HETATM    3  N1  UNK     1      18.487   5.830  31.333  1.00  0.00    -0.380 N 
HETATM    4  C1  UNK     1      18.435   4.757  32.224  1.00  0.00     0.045 A 
HETATM    5  C2  UNK     1      18.477   3.423  31.766  1.00  0.00     0.004 A 
HETATM    6  C3  UNK     1      18.326   5.580  29.906  1.00  0.00     0.123 C 
HETATM    7  C4  UNK     1      18.233   7.181  31.827  1.00  0.00     0.123 C 
HETATM    8  C5  UNK     1      18.378   4.972  33.617  1.00  0.00    -0.030 A 
HETATM    9  C6  UNK     1      18.561   3.128  30.286  1.00  0.00     0.045 C 
HETATM   10  C7  UNK     1      19.085   4.326  29.502  1.00  0.00     0.025 C 
HETATM   11  C8  UNK     1      18.895   7.385  33.183  1.00  0.00     0.024 C 
HETATM   12  C9  UNK     1      18.347   6.374  34.181  1.00  0.00     0.042 C 
HETATM   13  C10 UNK     1      18.393   2.364  32.693  1.00  0.00     0.099 A 
HETATM   14  C11 UNK     1      18.300   3.888  34.512  1.00  0.00     0.024 A 
HETATM   15  C12 UNK     1      18.297   2.560  34.066  1.00  0.00     0.006 A 
HETATM   16  C13 UNK     1      18.207   1.388  34.971  1.00  0.00    -0.030 A 
HETATM   17  C14 UNK     1      18.273   0.148  34.440  1.00  0.00     0.084 A 
HETATM   18  C15 UNK     1      18.382  -0.067  32.973  1.00  0.00     0.302 A 
HETATM   19  C16 UNK     1      18.031   1.696  36.441  1.00  0.00     0.050 C 
ENDROOT
BRANCH  17  20
HETATM   20  C17 UNK     1      18.241  -1.049  35.304  1.00  0.00     0.276 C 
HETATM   21  O3  UNK     1      19.259  -1.570  35.725  1.00  0.00    -0.301 OA
ENDBRANCH  17  20
TORSDOF 1
ENDMDL
MODEL 9
REMARK VINA RESULT:      -7.4     15.202     18.780
REMARK  1 active torsions:
REMARK  status: ('A' for Active; 'I' for Inactive)
REMARK    1  A    between atoms: C14_18  and  C17_21 
ROOT
HETATM    1  O1  UNK     1      19.340   0.809  14.827  1.00  0.00    -0.273 OA
HETATM    2  O2  UNK     1      19.473   2.949  15.574  1.00  0.00    -0.259 OA
HETATM    3  N1  UNK     1      18.965  -3.685  13.052  1.00  0.00    -0.380 N 
HETATM    4  C1  UNK     1      18.917  -2.800  14.131  1.00  0.00     0.045 A 
HETATM    5  C2  UNK     1      19.125  -1.416  13.952  1.00  0.00     0.004 A 
HETATM    6  C3  UNK     1      19.486  -3.219  11.772  1.00  0.00     0.123 C 
HETATM    7  C4  UNK     1      18.952  -5.123  13.307  1.00  0.00     0.123 C 
HETATM    8  C5  UNK     1      18.620  -3.258  15.432  1.00  0.00    -0.030 A 
HETATM    9  C6  UNK     1      19.425  -0.862  12.578  1.00  0.00     0.045 C 
HETATM   10  C7  UNK     1      18.979  -1.817  11.476  1.00  0.00     0.025 C 
HETATM   11  C8  UNK     1      17.971  -5.457  14.421  1.00  0.00     0.024 C 
HETATM   12  C9  UNK     1      18.369  -4.724  15.695  1.00  0.00     0.042 C 
HETATM   13  C10 UNK     1      19.097  -0.556  15.069  1.00  0.00     0.099 A 
HETATM   14  C11 UNK     1      18.597  -2.367  16.522  1.00  0.00     0.024 A 
HETATM   15  C12 UNK     1      18.844  -0.998  16.363  1.00  0.00     0.006 A 
HETATM   16  C13 UNK     1      18.839  -0.025  17.483  1.00  0.00    -0.030 A 
HETATM   17  C14 UNK     1      19.032   1.284  17.211  1.00  0.00     0.084 A 
HETATM   18  C15 UNK     1      19.296   1.761  15.828  1.00  0.00     0.302 A 
HETATM   19  C16 UNK     1      18.629  -0.603  18.864  1.00  0.00     0.050 C 
ENDROOT
BRANCH  17  20
HETATM   20  C17 UNK     1      18.983   2.297  18.285  1.00  0.00     0.276 C 
HETATM   21  O3  UNK     1      19.978   2.630  18.904  1.00  0.00    -0.301 OA
ENDBRANCH  17  20
TORSDOF 1
ENDMDL
MODEL 10
REMARK VINA RESULT:      -7.4      3.493      5.890
REMARK  1 active torsions:
REMARK  status: ('A' for Active; 'I' for Inactive)
REMARK    1  A    between atoms: C14_18  and  C17_21 
ROOT
HETATM    1  O1  UNK     1      18.882   4.280  30.197  1.00  0.00    -0.273 OA
HETATM    2  O2  UNK     1      18.751   6.392  29.374  1.00  0.00    -0.259 OA
HETATM    3  N1  UNK     1      19.097  -0.302  31.763  1.00  0.00    -0.380 N 
HETATM    4  C1  UNK     1      18.813   1.046  31.994  1.00  0.00     0.045 A 
HETATM    5  C2  UNK     1      18.958   2.009  30.973  1.00  0.00     0.004 A 
HETATM    6  C3  UNK     1      19.792  -0.684  30.540  1.00  0.00     0.123 C 
HETATM    7  C4  UNK     1      19.134  -1.227  32.893  1.00  0.00     0.123 C 
HETATM    8  C5  UNK     1      18.333   1.482  33.246  1.00  0.00    -0.030 A 
HETATM    9  C6  UNK     1      19.447   1.599  29.602  1.00  0.00     0.045 C 
HETATM   10  C7  UNK     1      19.253   0.107  29.358  1.00  0.00     0.025 C 
HETATM   11  C8  UNK     1      18.003  -0.923  33.866  1.00  0.00     0.024 C 
HETATM   12  C9  UNK     1      18.136   0.504  34.381  1.00  0.00     0.042 C 
HETATM   13  C10 UNK     1      18.690   3.365  31.250  1.00  0.00     0.099 A 
HETATM   14  C11 UNK     1      18.072   2.845  33.484  1.00  0.00     0.024 A 
HETATM   15  C12 UNK     1      18.254   3.816  32.491  1.00  0.00     0.006 A 
HETATM   16  C13 UNK     1      18.000   5.263  32.699  1.00  0.00    -0.030 A 
HETATM   17  C14 UNK     1      18.151   6.108  31.656  1.00  0.00     0.084 A 
HETATM   18  C15 UNK     1      18.611   5.629  30.326  1.00  0.00     0.302 A 
HETATM   19  C16 UNK     1      17.600   5.673  34.098  1.00  0.00     0.050 C 
ENDROOT
BRANCH  17  20
HETATM   20  C17 UNK     1      17.859   7.548  31.799  1.00  0.00     0.276 C 
HETATM   21  O3  UNK     1      16.814   8.038  31.408  1.00  0.00    -0.301 OA
ENDBRANCH  17  20
TORSDOF 1
ENDMDL
