MODEL 1
REMARK VINA RESULT:      -9.5      0.000      0.000
REMARK  4 active torsions:
REMARK  status: ('A' for Active; 'I' for Inactive)
REMARK    1  A    between atoms: C2_7  and  N1_5 
REMARK       I    between atoms: C6_11  and  N1_5 
REMARK    2  A    between atoms: C1_6  and  C2_7 
REMARK    3  A    between atoms: C1_6  and  C3_8 
REMARK    4  A    between atoms: C4_9  and  C6_11 
ROOT
HETATM    1  O2  UNK     1      17.526   3.434  31.676  1.00  0.00    -0.267 OA
HETATM    2  N1  UNK     1      19.078   4.340  30.190  1.00  0.00    -0.356 N 
HETATM    3  C6  UNK     1      18.402   3.311  30.821  1.00  0.00     0.257 C 
HETATM    4  H5  UNK     1      19.808   4.133  29.515  1.00  0.00     0.162 HD
ENDROOT
BRANCH   3   5
HETATM    5  C4  UNK     1      18.829   1.983  30.364  1.00  0.00     0.108 A 
HETATM    6  C11 UNK     1      18.688   1.553  28.955  1.00  0.00     0.304 A 
HETATM    7  O1  UNK     1      19.131   0.271  28.645  1.00  0.00    -0.274 OA
HETATM    8  O3  UNK     1      18.205   2.287  28.099  1.00  0.00    -0.259 OA
HETATM    9  C8  UNK     1      19.688  -0.579  29.620  1.00  0.00     0.089 A 
HETATM   10  C13 UNK     1      20.103  -1.846  29.214  1.00  0.00     0.038 A 
HETATM   11  C5  UNK     1      19.812  -0.156  30.939  1.00  0.00    -0.001 A 
HETATM   12  C17 UNK     1      20.657  -2.710  30.156  1.00  0.00     0.003 A 
HETATM   13  C16 UNK     1      20.790  -2.302  31.485  1.00  0.00     0.001 A 
HETATM   14  C12 UNK     1      20.368  -1.028  31.878  1.00  0.00     0.014 A 
HETATM   15  C7  UNK     1      19.358   1.180  31.295  1.00  0.00     0.037 A 
ENDBRANCH   3   5
BRANCH   2  16
HETATM   16  C2  UNK     1      18.827   5.735  30.470  1.00  0.00     0.127 C 
BRANCH  16  17
HETATM   17  C1  UNK     1      19.770   6.298  31.532  1.00  0.00     0.058 C 
BRANCH  17  18
HETATM   18  C3  UNK     1      19.043   6.843  32.737  1.00  0.00    -0.055 A 
HETATM   19  C10 UNK     1      19.773   7.355  33.797  1.00  0.00     0.007 A 
HETATM   20  C15 UNK     1      19.101   7.857  34.911  1.00  0.00     0.002 A 
HETATM   21  C18 UNK     1      17.706   7.842  34.950  1.00  0.00     0.024 A 
HETATM   22  C14 UNK     1      16.984   7.324  33.875  1.00  0.00     0.034 A 
HETATM   23 Cl1  UNK     1      15.264   7.305  33.924  1.00  0.00    -0.084 Cl
HETATM   24  C9  UNK     1      17.657   6.820  32.761  1.00  0.00     0.031 A 
ENDBRANCH  17  18
ENDBRANCH  16  17
ENDBRANCH   2  16
TORSDOF 4
ENDMDL
MODEL 2
REMARK VINA RESULT:      -9.4      1.157      2.012
REMARK  4 active torsions:
REMARK  status: ('A' for Active; 'I' for Inactive)
REMARK    1  A    between atoms: C2_7  and  N1_5 
REMARK       I    between atoms: C6_11  and  N1_5 
REMARK    2  A    between atoms: C1_6  and  C2_7 
REMARK    3  A    between atoms: C1_6  and  C3_8 
REMARK    4  A    between atoms: C4_9  and  C6_11 
ROOT
HETATM    1  O2  UNK     1      17.984   2.560  28.513  1.00  0.00    -0.267 OA
HETATM    2  N1  UNK     1      19.063   3.808  30.161  1.00  0.00    -0.356 N 
HETATM    3  C6  UNK     1      18.610   2.643  29.569  1.00  0.00     0.257 C 
HETATM    4  H5  UNK     1      19.548   3.774  31.052  1.00  0.00     0.162 HD
ENDROOT
BRANCH   3   5
HETATM    5  C4  UNK     1      18.955   1.441  30.337  1.00  0.00     0.108 A 
HETATM    6  C11 UNK     1      18.617   1.301  31.771  1.00  0.00     0.304 A 
HETATM    7  O1  UNK     1      18.997   0.113  32.390  1.00  0.00    -0.274 OA
HETATM    8  O3  UNK     1      18.032   2.184  32.388  1.00  0.00    -0.259 OA
HETATM    9  C8  UNK     1      19.670  -0.907  31.689  1.00  0.00     0.089 A 
HETATM   10  C13 UNK     1      20.009  -2.061  32.394  1.00  0.00     0.038 A 
HETATM   11  C5  UNK     1      19.978  -0.755  30.342  1.00  0.00    -0.001 A 
HETATM   12  C17 UNK     1      20.675  -3.088  31.729  1.00  0.00     0.003 A 
HETATM   13  C16 UNK     1      20.993  -2.953  30.376  1.00  0.00     0.001 A 
HETATM   14  C12 UNK     1      20.646  -1.789  29.682  1.00  0.00     0.014 A 
HETATM   15  C7  UNK     1      19.594   0.475  29.666  1.00  0.00     0.037 A 
ENDBRANCH   3   5
BRANCH   2  16
HETATM   16  C2  UNK     1      18.847   5.118  29.589  1.00  0.00     0.127 C 
BRANCH  16  17
HETATM   17  C1  UNK     1      19.633   6.210  30.312  1.00  0.00     0.058 C 
BRANCH  17  18
HETATM   18  C3  UNK     1      19.093   6.513  31.688  1.00  0.00    -0.055 A 
HETATM   19  C10 UNK     1      19.968   6.594  32.759  1.00  0.00     0.007 A 
HETATM   20  C15 UNK     1      19.468   6.873  34.031  1.00  0.00     0.002 A 
HETATM   21  C18 UNK     1      18.099   7.067  34.216  1.00  0.00     0.024 A 
HETATM   22  C14 UNK     1      17.230   6.982  33.128  1.00  0.00     0.034 A 
HETATM   23 Cl1  UNK     1      15.540   7.222  33.356  1.00  0.00    -0.084 Cl
HETATM   24  C9  UNK     1      17.729   6.702  31.856  1.00  0.00     0.031 A 
ENDBRANCH  17  18
ENDBRANCH  16  17
ENDBRANCH   2  16
TORSDOF 4
ENDMDL
MODEL 3
REMARK VINA RESULT:      -9.0      8.304     12.414
REMARK  4 active torsions:
REMARK  status: ('A' for Active; 'I' for Inactive)
REMARK    1  A    between atoms: C2_7  and  N1_5 
REMARK       I    between atoms: C6_11  and  N1_5 
REMARK    2  A    between atoms: C1_6  and  C2_7 
REMARK    3  A    between atoms: C1_6  and  C3_8 
REMARK    4  A    between atoms: C4_9  and  C6_11 
ROOT
HETATM    1  O2  UNK     1      20.908  -4.555  36.901  1.00  0.00    -0.267 OA
HETATM    2  N1  UNK     1      18.636  -5.013  36.640  1.00  0.00    -0.356 N 
HETATM    3  C6  UNK     1      19.759  -4.205  36.635  1.00  0.00     0.257 C 
HETATM    4  H5  UNK     1      17.723  -4.621  36.432  1.00  0.00     0.162 HD
ENDROOT
BRANCH   3   5
HETATM    5  C4  UNK     1      19.460  -2.817  36.263  1.00  0.00     0.108 A 
HETATM    6  C11 UNK     1      19.908  -2.234  34.978  1.00  0.00     0.304 A 
HETATM    7  O1  UNK     1      19.562  -0.907  34.740  1.00  0.00    -0.274 OA
HETATM    8  O3  UNK     1      20.551  -2.883  34.161  1.00  0.00    -0.259 OA
HETATM    9  C8  UNK     1      18.823  -0.152  35.672  1.00  0.00     0.089 A 
HETATM   10  C13 UNK     1      18.524   1.169  35.344  1.00  0.00     0.038 A 
HETATM   11  C5  UNK     1      18.412  -0.719  36.874  1.00  0.00    -0.001 A 
HETATM   12  C17 UNK     1      17.795   1.941  36.246  1.00  0.00     0.003 A 
HETATM   13  C16 UNK     1      17.374   1.389  37.457  1.00  0.00     0.001 A 
HETATM   14  C12 UNK     1      17.682   0.062  37.773  1.00  0.00     0.014 A 
HETATM   15  C7  UNK     1      18.758  -2.105  37.152  1.00  0.00     0.037 A 
ENDBRANCH   3   5
BRANCH   2  16
HETATM   16  C2  UNK     1      18.680  -6.420  36.970  1.00  0.00     0.127 C 
BRANCH  16  17
HETATM   17  C1  UNK     1      19.250  -7.270  35.837  1.00  0.00     0.058 C 
BRANCH  17  18
HETATM   18  C3  UNK     1      19.752  -8.614  36.304  1.00  0.00    -0.055 A 
HETATM   19  C10 UNK     1      19.052  -9.297  37.285  1.00  0.00     0.007 A 
HETATM   20  C15 UNK     1      19.517 -10.539  37.718  1.00  0.00     0.002 A 
HETATM   21  C18 UNK     1      20.676 -11.082  37.164  1.00  0.00     0.024 A 
HETATM   22  C14 UNK     1      21.371 -10.383  36.177  1.00  0.00     0.034 A 
HETATM   23 Cl1  UNK     1      22.801 -11.053  35.494  1.00  0.00    -0.084 Cl
HETATM   24  C9  UNK     1      20.907  -9.140  35.744  1.00  0.00     0.031 A 
ENDBRANCH  17  18
ENDBRANCH  16  17
ENDBRANCH   2  16
TORSDOF 4
ENDMDL
MODEL 4
REMARK VINA RESULT:      -8.9      8.160     12.329
REMARK  4 active torsions:
REMARK  status: ('A' for Active; 'I' for Inactive)
REMARK    1  A    between atoms: C2_7  and  N1_5 
REMARK       I    between atoms: C6_11  and  N1_5 
REMARK    2  A    between atoms: C1_6  and  C2_7 
REMARK    3  A    between atoms: C1_6  and  C3_8 
REMARK    4  A    between atoms: C4_9  and  C6_11 
ROOT
HETATM    1  O2  UNK     1      20.989  -4.469  36.969  1.00  0.00    -0.267 OA
HETATM    2  N1  UNK     1      18.791  -5.023  36.421  1.00  0.00    -0.356 N 
HETATM    3  C6  UNK     1      19.858  -4.160  36.597  1.00  0.00     0.257 C 
HETATM    4  H5  UNK     1      17.885  -4.664  36.137  1.00  0.00     0.162 HD
ENDROOT
BRANCH   3   5
HETATM    5  C4  UNK     1      19.522  -2.766  36.285  1.00  0.00     0.108 A 
HETATM    6  C11 UNK     1      19.960  -2.114  35.031  1.00  0.00     0.304 A 
HETATM    7  O1  UNK     1      19.577  -0.788  34.849  1.00  0.00    -0.274 OA
HETATM    8  O3  UNK     1      20.627  -2.707  34.190  1.00  0.00    -0.259 OA
HETATM    9  C8  UNK     1      18.811  -0.097  35.808  1.00  0.00     0.089 A 
HETATM   10  C13 UNK     1      18.476   1.229  35.537  1.00  0.00     0.038 A 
HETATM   11  C5  UNK     1      18.409  -0.729  36.980  1.00  0.00    -0.001 A 
HETATM   12  C17 UNK     1      17.719   1.938  36.466  1.00  0.00     0.003 A 
HETATM   13  C16 UNK     1      17.307   1.320  37.649  1.00  0.00     0.001 A 
HETATM   14  C12 UNK     1      17.651  -0.010  37.907  1.00  0.00     0.014 A 
HETATM   15  C7  UNK     1      18.793  -2.115  37.200  1.00  0.00     0.037 A 
ENDBRANCH   3   5
BRANCH   2  16
HETATM   16  C2  UNK     1      18.880  -6.445  36.662  1.00  0.00     0.127 C 
BRANCH  16  17
HETATM   17  C1  UNK     1      19.437  -7.209  35.462  1.00  0.00     0.058 C 
BRANCH  17  18
HETATM   18  C3  UNK     1      20.113  -8.501  35.848  1.00  0.00    -0.055 A 
HETATM   19  C10 UNK     1      21.260  -8.894  35.177  1.00  0.00     0.007 A 
HETATM   20  C15 UNK     1      21.884 -10.089  35.533  1.00  0.00     0.002 A 
HETATM   21  C18 UNK     1      21.354 -10.877  36.556  1.00  0.00     0.024 A 
HETATM   22  C14 UNK     1      20.199 -10.468  37.222  1.00  0.00     0.034 A 
HETATM   23 Cl1  UNK     1      19.545 -11.439  38.484  1.00  0.00    -0.084 Cl
HETATM   24  C9  UNK     1      19.574  -9.273  36.866  1.00  0.00     0.031 A 
ENDBRANCH  17  18
ENDBRANCH  16  17
ENDBRANCH   2  16
TORSDOF 4
ENDMDL
MODEL 5
REMARK VINA RESULT:      -8.9      3.213      8.559
REMARK  4 active torsions:
REMARK  status: ('A' for Active; 'I' for Inactive)
REMARK    1  A    between atoms: C2_7  and  N1_5 
REMARK       I    between atoms: C6_11  and  N1_5 
REMARK    2  A    between atoms: C1_6  and  C2_7 
REMARK    3  A    between atoms: C1_6  and  C3_8 
REMARK    4  A    between atoms: C4_9  and  C6_11 
ROOT
HETATM    1  O2  UNK     1      18.345   3.691  34.062  1.00  0.00    -0.267 OA
HETATM    2  N1  UNK     1      18.002   3.965  31.772  1.00  0.00    -0.356 N 
HETATM    3  C6  UNK     1      18.152   4.401  33.077  1.00  0.00     0.257 C 
HETATM    4  H5  UNK     1      17.818   4.632  31.029  1.00  0.00     0.162 HD
ENDROOT
BRANCH   3   5
HETATM    5  C4  UNK     1      18.063   5.860  33.204  1.00  0.00     0.108 A 
HETATM    6  C11 UNK     1      16.854   6.612  32.799  1.00  0.00     0.304 A 
HETATM    7  O1  UNK     1      16.890   7.993  32.970  1.00  0.00    -0.274 OA
HETATM    8  O3  UNK     1      15.867   6.052  32.336  1.00  0.00    -0.259 OA
HETATM    9  C8  UNK     1      18.019   8.647  33.502  1.00  0.00     0.089 A 
HETATM   10  C13 UNK     1      17.961  10.034  33.636  1.00  0.00     0.038 A 
HETATM   11  C5  UNK     1      19.144   7.922  33.877  1.00  0.00    -0.001 A 
HETATM   12  C17 UNK     1      19.061  10.709  34.158  1.00  0.00     0.003 A 
HETATM   13  C16 UNK     1      20.201   9.997  34.539  1.00  0.00     0.001 A 
HETATM   14  C12 UNK     1      20.244   8.607  34.399  1.00  0.00     0.014 A 
HETATM   15  C7  UNK     1      19.138   6.477  33.711  1.00  0.00     0.037 A 
ENDBRANCH   3   5
BRANCH   2  16
HETATM   16  C2  UNK     1      18.056   2.571  31.397  1.00  0.00     0.127 C 
BRANCH  16  17
HETATM   17  C1  UNK     1      18.867   2.339  30.123  1.00  0.00     0.058 C 
BRANCH  17  18
HETATM   18  C3  UNK     1      19.373   0.923  29.997  1.00  0.00    -0.055 A 
HETATM   19  C10 UNK     1      19.567   0.381  28.736  1.00  0.00     0.007 A 
HETATM   20  C15 UNK     1      20.033  -0.928  28.619  1.00  0.00     0.002 A 
HETATM   21  C18 UNK     1      20.300  -1.680  29.764  1.00  0.00     0.024 A 
HETATM   22  C14 UNK     1      20.100  -1.121  31.027  1.00  0.00     0.034 A 
HETATM   23 Cl1  UNK     1      20.429  -2.047  32.439  1.00  0.00    -0.084 Cl
HETATM   24  C9  UNK     1      19.632   0.189  31.144  1.00  0.00     0.031 A 
ENDBRANCH  17  18
ENDBRANCH  16  17
ENDBRANCH   2  16
TORSDOF 4
ENDMDL
MODEL 6
REMARK VINA RESULT:      -8.9      1.108      1.315
REMARK  4 active torsions:
REMARK  status: ('A' for Active; 'I' for Inactive)
REMARK    1  A    between atoms: C2_7  and  N1_5 
REMARK       I    between atoms: C6_11  and  N1_5 
REMARK    2  A    between atoms: C1_6  and  C2_7 
REMARK    3  A    between atoms: C1_6  and  C3_8 
REMARK    4  A    between atoms: C4_9  and  C6_11 
ROOT
HETATM    1  O2  UNK     1      17.318   3.239  31.562  1.00  0.00    -0.267 OA
HETATM    2  N1  UNK     1      19.163   4.194  30.504  1.00  0.00    -0.356 N 
HETATM    3  C6  UNK     1      18.347   3.147  30.895  1.00  0.00     0.257 C 
HETATM    4  H5  UNK     1      20.011   4.011  29.976  1.00  0.00     0.162 HD
ENDROOT
BRANCH   3   5
HETATM    5  C4  UNK     1      18.827   1.843  30.424  1.00  0.00     0.108 A 
HETATM    6  C11 UNK     1      18.769   1.452  28.998  1.00  0.00     0.304 A 
HETATM    7  O1  UNK     1      19.256   0.188  28.675  1.00  0.00    -0.274 OA
HETATM    8  O3  UNK     1      18.315   2.200  28.139  1.00  0.00    -0.259 OA
HETATM    9  C8  UNK     1      19.780  -0.679  29.654  1.00  0.00     0.089 A 
HETATM   10  C13 UNK     1      20.244  -1.924  29.235  1.00  0.00     0.038 A 
HETATM   11  C5  UNK     1      19.825  -0.292  30.989  1.00  0.00    -0.001 A 
HETATM   12  C17 UNK     1      20.767  -2.804  30.179  1.00  0.00     0.003 A 
HETATM   13  C16 UNK     1      20.821  -2.432  31.525  1.00  0.00     0.001 A 
HETATM   14  C12 UNK     1      20.351  -1.180  31.931  1.00  0.00     0.014 A 
HETATM   15  C7  UNK     1      19.324   1.023  31.358  1.00  0.00     0.037 A 
ENDBRANCH   3   5
BRANCH   2  16
HETATM   16  C2  UNK     1      18.894   5.572  30.844  1.00  0.00     0.127 C 
BRANCH  16  17
HETATM   17  C1  UNK     1      19.541   5.986  32.164  1.00  0.00     0.058 C 
BRANCH  17  18
HETATM   18  C3  UNK     1      18.611   6.773  33.055  1.00  0.00    -0.055 A 
HETATM   19  C10 UNK     1      17.642   6.104  33.785  1.00  0.00     0.007 A 
HETATM   20  C15 UNK     1      16.782   6.831  34.607  1.00  0.00     0.002 A 
HETATM   21  C18 UNK     1      16.902   8.219  34.690  1.00  0.00     0.024 A 
HETATM   22  C14 UNK     1      17.882   8.879  33.949  1.00  0.00     0.034 A 
HETATM   23 Cl1  UNK     1      18.030  10.591  34.050  1.00  0.00    -0.084 Cl
HETATM   24  C9  UNK     1      18.743   8.152  33.125  1.00  0.00     0.031 A 
ENDBRANCH  17  18
ENDBRANCH  16  17
ENDBRANCH   2  16
TORSDOF 4
ENDMDL
MODEL 7
REMARK VINA RESULT:      -8.8      2.593      7.987
REMARK  4 active torsions:
REMARK  status: ('A' for Active; 'I' for Inactive)
REMARK    1  A    between atoms: C2_7  and  N1_5 
REMARK       I    between atoms: C6_11  and  N1_5 
REMARK    2  A    between atoms: C1_6  and  C2_7 
REMARK    3  A    between atoms: C1_6  and  C3_8 
REMARK    4  A    between atoms: C4_9  and  C6_11 
ROOT
HETATM    1  O2  UNK     1      17.895   2.376  32.412  1.00  0.00    -0.267 OA
HETATM    2  N1  UNK     1      18.222   3.150  30.237  1.00  0.00    -0.356 N 
HETATM    3  C6  UNK     1      18.121   3.281  31.610  1.00  0.00     0.257 C 
HETATM    4  H5  UNK     1      18.384   3.966  29.656  1.00  0.00     0.162 HD
ENDROOT
BRANCH   3   5
HETATM    5  C4  UNK     1      18.319   4.661  32.067  1.00  0.00     0.108 A 
HETATM    6  C11 UNK     1      19.387   5.526  31.515  1.00  0.00     0.304 A 
HETATM    7  O1  UNK     1      19.474   6.817  32.029  1.00  0.00    -0.274 OA
HETATM    8  O3  UNK     1      20.159   5.131  30.649  1.00  0.00    -0.259 OA
HETATM    9  C8  UNK     1      18.591   7.282  33.024  1.00  0.00     0.089 A 
HETATM   10  C13 UNK     1      18.756   8.590  33.476  1.00  0.00     0.038 A 
HETATM   11  C5  UNK     1      17.595   6.453  33.529  1.00  0.00    -0.001 A 
HETATM   12  C17 UNK     1      17.900   9.078  34.460  1.00  0.00     0.003 A 
HETATM   13  C16 UNK     1      16.894   8.260  34.979  1.00  0.00     0.001 A 
HETATM   14  C12 UNK     1      16.741   6.950  34.516  1.00  0.00     0.014 A 
HETATM   15  C7  UNK     1      17.478   5.098  33.012  1.00  0.00     0.037 A 
ENDBRANCH   3   5
BRANCH   2  16
HETATM   16  C2  UNK     1      18.068   1.886  29.553  1.00  0.00     0.127 C 
BRANCH  16  17
HETATM   17  C1  UNK     1      19.403   1.304  29.090  1.00  0.00     0.058 C 
BRANCH  17  18
HETATM   18  C3  UNK     1      19.758   0.015  29.790  1.00  0.00    -0.055 A 
HETATM   19  C10 UNK     1      20.435  -0.972  29.093  1.00  0.00     0.007 A 
HETATM   20  C15 UNK     1      20.763  -2.164  29.739  1.00  0.00     0.002 A 
HETATM   21  C18 UNK     1      20.409  -2.354  31.075  1.00  0.00     0.024 A 
HETATM   22  C14 UNK     1      19.727  -1.351  31.765  1.00  0.00     0.034 A 
HETATM   23 Cl1  UNK     1      19.290  -1.585  33.413  1.00  0.00    -0.084 Cl
HETATM   24  C9  UNK     1      19.398  -0.159  31.118  1.00  0.00     0.031 A 
ENDBRANCH  17  18
ENDBRANCH  16  17
ENDBRANCH   2  16
TORSDOF 4
ENDMDL
MODEL 8
REMARK VINA RESULT:      -8.6      1.782      2.512
REMARK  4 active torsions:
REMARK  status: ('A' for Active; 'I' for Inactive)
REMARK    1  A    between atoms: C2_7  and  N1_5 
REMARK       I    between atoms: C6_11  and  N1_5 
REMARK    2  A    between atoms: C1_6  and  C2_7 
REMARK    3  A    between atoms: C1_6  and  C3_8 
REMARK    4  A    between atoms: C4_9  and  C6_11 
ROOT
HETATM    1  O2  UNK     1      16.994   4.272  31.375  1.00  0.00    -0.267 OA
HETATM    2  N1  UNK     1      19.266   4.786  31.471  1.00  0.00    -0.356 N 
HETATM    3  C6  UNK     1      18.174   3.937  31.450  1.00  0.00     0.257 C 
HETATM    4  H5  UNK     1      20.204   4.410  31.564  1.00  0.00     0.162 HD
ENDROOT
BRANCH   3   5
HETATM    5  C4  UNK     1      18.552   2.520  31.525  1.00  0.00     0.108 A 
HETATM    6  C11 UNK     1      18.350   1.716  32.751  1.00  0.00     0.304 A 
HETATM    7  O1  UNK     1      18.747   0.384  32.698  1.00  0.00    -0.274 OA
HETATM    8  O3  UNK     1      17.856   2.196  33.766  1.00  0.00    -0.259 OA
HETATM    9  C8  UNK     1      19.315  -0.177  31.537  1.00  0.00     0.089 A 
HETATM   10  C13 UNK     1      19.682  -1.521  31.580  1.00  0.00     0.038 A 
HETATM   11  C5  UNK     1      19.496   0.596  30.395  1.00  0.00    -0.001 A 
HETATM   12  C17 UNK     1      20.246  -2.104  30.447  1.00  0.00     0.003 A 
HETATM   13  C16 UNK     1      20.436  -1.343  29.291  1.00  0.00     0.001 A 
HETATM   14  C12 UNK     1      20.063   0.004  29.264  1.00  0.00     0.014 A 
HETATM   15  C7  UNK     1      19.090   1.993  30.419  1.00  0.00     0.037 A 
ENDBRANCH   3   5
BRANCH   2  16
HETATM   16  C2  UNK     1      19.146   6.225  31.404  1.00  0.00     0.127 C 
BRANCH  16  17
HETATM   17  C1  UNK     1      19.528   6.905  32.717  1.00  0.00     0.058 C 
BRANCH  17  18
HETATM   18  C3  UNK     1      18.345   7.510  33.433  1.00  0.00    -0.055 A 
HETATM   19  C10 UNK     1      17.400   6.676  34.008  1.00  0.00     0.007 A 
HETATM   20  C15 UNK     1      16.306   7.235  34.668  1.00  0.00     0.002 A 
HETATM   21  C18 UNK     1      16.170   8.621  34.746  1.00  0.00     0.024 A 
HETATM   22  C14 UNK     1      17.130   9.449  34.162  1.00  0.00     0.034 A 
HETATM   23 Cl1  UNK     1      16.963  11.159  34.257  1.00  0.00    -0.084 Cl
HETATM   24  C9  UNK     1      18.224   8.890  33.500  1.00  0.00     0.031 A 
ENDBRANCH  17  18
ENDBRANCH  16  17
ENDBRANCH   2  16
TORSDOF 4
ENDMDL
MODEL 9
REMARK VINA RESULT:      -8.6      5.997      9.546
REMARK  4 active torsions:
REMARK  status: ('A' for Active; 'I' for Inactive)
REMARK    1  A    between atoms: C2_7  and  N1_5 
REMARK       I    between atoms: C6_11  and  N1_5 
REMARK    2  A    between atoms: C1_6  and  C2_7 
REMARK    3  A    between atoms: C1_6  and  C3_8 
REMARK    4  A    between atoms: C4_9  and  C6_11 
ROOT
HETATM    1  O2  UNK     1      17.383  -1.062  35.792  1.00  0.00    -0.267 OA
HETATM    2  N1  UNK     1      19.418  -2.189  35.635  1.00  0.00    -0.356 N 
HETATM    3  C6  UNK     1      18.416  -1.346  35.188  1.00  0.00     0.257 C 
HETATM    4  H5  UNK     1      20.223  -2.383  35.047  1.00  0.00     0.162 HD
ENDROOT
BRANCH   3   5
HETATM    5  C4  UNK     1      18.696  -0.781  33.863  1.00  0.00     0.108 A 
HETATM    6  C11 UNK     1      18.363   0.621  33.521  1.00  0.00     0.304 A 
HETATM    7  O1  UNK     1      18.678   1.041  32.232  1.00  0.00    -0.274 OA
HETATM    8  O3  UNK     1      17.836   1.377  34.328  1.00  0.00    -0.259 OA
HETATM    9  C8  UNK     1      19.284   0.180  31.296  1.00  0.00     0.089 A 
HETATM   10  C13 UNK     1      19.562   0.692  30.030  1.00  0.00     0.038 A 
HETATM   11  C5  UNK     1      19.588  -1.133  31.638  1.00  0.00    -0.001 A 
HETATM   12  C17 UNK     1      20.160  -0.136  29.083  1.00  0.00     0.003 A 
HETATM   13  C16 UNK     1      20.473  -1.458  29.408  1.00  0.00     0.001 A 
HETATM   14  C12 UNK     1      20.188  -1.957  30.683  1.00  0.00     0.014 A 
HETATM   15  C7  UNK     1      19.272  -1.603  32.979  1.00  0.00     0.037 A 
ENDBRANCH   3   5
BRANCH   2  16
HETATM   16  C2  UNK     1      19.370  -2.861  36.914  1.00  0.00     0.127 C 
BRANCH  16  17
HETATM   17  C1  UNK     1      20.549  -3.811  37.120  1.00  0.00     0.058 C 
BRANCH  17  18
HETATM   18  C3  UNK     1      20.164  -5.264  36.993  1.00  0.00    -0.055 A 
HETATM   19  C10 UNK     1      19.838  -5.773  35.746  1.00  0.00     0.007 A 
HETATM   20  C15 UNK     1      19.481  -7.116  35.628  1.00  0.00     0.002 A 
HETATM   21  C18 UNK     1      19.454  -7.934  36.757  1.00  0.00     0.024 A 
HETATM   22  C14 UNK     1      19.785  -7.407  38.007  1.00  0.00     0.034 A 
HETATM   23 Cl1  UNK     1      19.752  -8.416  39.401  1.00  0.00    -0.084 Cl
HETATM   24  C9  UNK     1      20.141  -6.064  38.125  1.00  0.00     0.031 A 
ENDBRANCH  17  18
ENDBRANCH  16  17
ENDBRANCH   2  16
TORSDOF 4
ENDMDL
MODEL 10
REMARK VINA RESULT:      -8.4      2.707      3.506
REMARK  4 active torsions:
REMARK  status: ('A' for Active; 'I' for Inactive)
REMARK    1  A    between atoms: C2_7  and  N1_5 
REMARK       I    between atoms: C6_11  and  N1_5 
REMARK    2  A    between atoms: C1_6  and  C2_7 
REMARK    3  A    between atoms: C1_6  and  C3_8 
REMARK    4  A    between atoms: C4_9  and  C6_11 
ROOT
HETATM    1  O2  UNK     1      17.388   2.429  30.193  1.00  0.00    -0.267 OA
HETATM    2  N1  UNK     1      19.149   3.662  31.095  1.00  0.00    -0.356 N 
HETATM    3  C6  UNK     1      18.251   2.612  31.051  1.00  0.00     0.257 C 
HETATM    4  H5  UNK     1      19.808   3.739  31.865  1.00  0.00     0.162 HD
ENDROOT
BRANCH   3   5
HETATM    5  C4  UNK     1      18.415   1.673  32.166  1.00  0.00     0.108 A 
HETATM    6  C11 UNK     1      18.985   0.320  31.978  1.00  0.00     0.304 A 
HETATM    7  O1  UNK     1      19.091  -0.478  33.114  1.00  0.00    -0.274 OA
HETATM    8  O3  UNK     1      19.348  -0.083  30.878  1.00  0.00    -0.259 OA
HETATM    9  C8  UNK     1      18.677  -0.025  34.382  1.00  0.00     0.089 A 
HETATM   10  C13 UNK     1      18.823  -0.896  35.460  1.00  0.00     0.038 A 
HETATM   11  C5  UNK     1      18.144   1.250  34.537  1.00  0.00    -0.001 A 
HETATM   12  C17 UNK     1      18.422  -0.477  36.726  1.00  0.00     0.003 A 
HETATM   13  C16 UNK     1      17.884   0.800  36.902  1.00  0.00     0.001 A 
HETATM   14  C12 UNK     1      17.744   1.663  35.810  1.00  0.00     0.014 A 
HETATM   15  C7  UNK     1      18.020   2.109  33.369  1.00  0.00     0.037 A 
ENDBRANCH   3   5
BRANCH   2  16
HETATM   16  C2  UNK     1      19.184   4.712  30.102  1.00  0.00     0.127 C 
BRANCH  16  17
HETATM   17  C1  UNK     1      19.849   5.986  30.620  1.00  0.00     0.058 C 
BRANCH  17  18
HETATM   18  C3  UNK     1      19.236   6.490  31.904  1.00  0.00    -0.055 A 
HETATM   19  C10 UNK     1      20.059   6.790  32.977  1.00  0.00     0.007 A 
HETATM   20  C15 UNK     1      19.493   7.255  34.164  1.00  0.00     0.002 A 
HETATM   21  C18 UNK     1      18.110   7.413  34.263  1.00  0.00     0.024 A 
HETATM   22  C14 UNK     1      17.294   7.107  33.174  1.00  0.00     0.034 A 
HETATM   23 Cl1  UNK     1      15.588   7.303  33.296  1.00  0.00    -0.084 Cl
HETATM   24  C9  UNK     1      17.860   6.642  31.987  1.00  0.00     0.031 A 
ENDBRANCH  17  18
ENDBRANCH  16  17
ENDBRANCH   2  16
TORSDOF 4
ENDMDL
