MODEL 1
REMARK VINA RESULT:      -7.4      0.000      0.000
REMARK  7 active torsions:
REMARK  status: ('A' for Active; 'I' for Inactive)
REMARK    1  A    between atoms: C2_5  and  O1_1 
REMARK    2  A    between atoms: C3_6  and  O1_1 
REMARK    3  A    between atoms: C4_7  and  O2_2 
REMARK    4  A    between atoms: C6_9  and  O2_2 
REMARK    5  A    between atoms: C1_4  and  C7_10 
REMARK    6  A    between atoms: C2_5  and  C4_7 
REMARK    7  A    between atoms: C11_14  and  C13_16 
ROOT
HETATM    1  N1  UNK     1      30.156  -2.894  30.241  1.00  0.00    -0.191 NA
HETATM    2  C7  UNK     1      30.590  -5.111  32.846  1.00  0.00     0.035 C 
HETATM    3  C11 UNK     1      29.945  -5.069  31.650  1.00  0.00     0.055 C 
HETATM    4  C24 UNK     1      30.067  -3.860  30.877  1.00  0.00     0.100 C 
ENDROOT
BRANCH   3   5
HETATM    5  C13 UNK     1      29.156  -6.168  31.116  1.00  0.00    -0.015 A 
HETATM    6  C19 UNK     1      27.808  -6.287  31.450  1.00  0.00     0.013 A 
HETATM    7  C21 UNK     1      27.051  -7.341  30.935  1.00  0.00     0.001 A 
HETATM    8  C23 UNK     1      27.644  -8.274  30.085  1.00  0.00     0.000 A 
HETATM    9  C22 UNK     1      28.993  -8.155  29.751  1.00  0.00     0.001 A 
HETATM   10  C20 UNK     1      29.749  -7.101  30.265  1.00  0.00     0.013 A 
ENDBRANCH   3   5
BRANCH   2  11
HETATM   11  C1  UNK     1      30.572  -6.238  33.789  1.00  0.00    -0.032 A 
HETATM   12  C5  UNK     1      29.610  -6.277  34.788  1.00  0.00     0.048 A 
HETATM   13  C3  UNK     1      29.593  -7.346  35.683  1.00  0.00     0.069 A 
HETATM   14  C9  UNK     1      30.538  -8.366  35.569  1.00  0.00     0.037 A 
HETATM   15  C12 UNK     1      31.501  -8.316  34.560  1.00  0.00     0.004 A 
HETATM   16  C8  UNK     1      31.518  -7.246  33.665  1.00  0.00     0.011 A 
BRANCH  13  17
HETATM   17  O1  UNK     1      28.655  -7.397  36.668  1.00  0.00    -0.349 OA
BRANCH  17  18
HETATM   18  C2  UNK     1      28.597  -6.289  37.565  1.00  0.00     0.202 C 
BRANCH  18  19
HETATM   19  C4  UNK     1      29.680  -6.445  38.615  1.00  0.00     0.202 C 
BRANCH  19  20
HETATM   20  O2  UNK     1      30.422  -5.235  38.700  1.00  0.00    -0.349 OA
BRANCH  20  21
HETATM   21  C6  UNK     1      31.396  -5.041  37.756  1.00  0.00     0.068 A 
HETATM   22  C14 UNK     1      31.360  -3.907  36.953  1.00  0.00     0.037 A 
HETATM   23  C16 UNK     1      32.352  -3.708  35.993  1.00  0.00     0.009 A 
HETATM   24  C10 UNK     1      33.374  -4.645  35.842  1.00  0.00    -0.062 A 
HETATM   25  C17 UNK     1      33.404  -5.781  36.651  1.00  0.00     0.009 A 
HETATM   26  C18 UNK     1      34.434  -4.433  34.815  1.00  0.00     0.048 C 
HETATM   27  C15 UNK     1      32.412  -5.979  37.611  1.00  0.00     0.037 A 
ENDBRANCH  20  21
ENDBRANCH  19  20
ENDBRANCH  18  19
ENDBRANCH  17  18
ENDBRANCH  13  17
ENDBRANCH   2  11
TORSDOF 7
ENDMDL
MODEL 2
REMARK VINA RESULT:      -7.2     14.582     16.949
REMARK  7 active torsions:
REMARK  status: ('A' for Active; 'I' for Inactive)
REMARK    1  A    between atoms: C2_5  and  O1_1 
REMARK    2  A    between atoms: C3_6  and  O1_1 
REMARK    3  A    between atoms: C4_7  and  O2_2 
REMARK    4  A    between atoms: C6_9  and  O2_2 
REMARK    5  A    between atoms: C1_4  and  C7_10 
REMARK    6  A    between atoms: C2_5  and  C4_7 
REMARK    7  A    between atoms: C11_14  and  C13_16 
ROOT
HETATM    1  N1  UNK     1      20.058   9.932  34.545  1.00  0.00    -0.191 NA
HETATM    2  C7  UNK     1      19.623   6.719  33.373  1.00  0.00     0.035 C 
HETATM    3  C11 UNK     1      18.863   7.822  33.608  1.00  0.00     0.055 C 
HETATM    4  C24 UNK     1      19.534   8.985  34.128  1.00  0.00     0.100 C 
ENDROOT
BRANCH   3   5
HETATM    5  C13 UNK     1      17.432   7.888  33.359  1.00  0.00    -0.015 A 
HETATM    6  C19 UNK     1      16.531   7.723  34.411  1.00  0.00     0.013 A 
HETATM    7  C21 UNK     1      15.159   7.788  34.171  1.00  0.00     0.001 A 
HETATM    8  C23 UNK     1      14.687   8.021  32.879  1.00  0.00     0.000 A 
HETATM    9  C22 UNK     1      15.587   8.186  31.827  1.00  0.00     0.001 A 
HETATM   10  C20 UNK     1      16.960   8.120  32.067  1.00  0.00     0.013 A 
ENDBRANCH   3   5
BRANCH   2  11
HETATM   11  C1  UNK     1      19.129   5.431  32.867  1.00  0.00    -0.032 A 
HETATM   12  C5  UNK     1      19.309   5.107  31.530  1.00  0.00     0.048 A 
HETATM   13  C3  UNK     1      18.839   3.885  31.051  1.00  0.00     0.069 A 
HETATM   14  C9  UNK     1      18.195   2.998  31.914  1.00  0.00     0.037 A 
HETATM   15  C12 UNK     1      18.020   3.334  33.257  1.00  0.00     0.004 A 
HETATM   16  C8  UNK     1      18.490   4.557  33.736  1.00  0.00     0.011 A 
BRANCH  13  17
HETATM   17  O1  UNK     1      19.009   3.555  29.741  1.00  0.00    -0.349 OA
BRANCH  17  18
HETATM   18  C2  UNK     1      17.851   3.129  29.025  1.00  0.00     0.202 C 
BRANCH  18  19
HETATM   19  C4  UNK     1      17.934   1.632  28.797  1.00  0.00     0.202 C 
BRANCH  19  20
HETATM   20  O2  UNK     1      19.302   1.250  28.714  1.00  0.00    -0.349 OA
BRANCH  20  21
HETATM   21  C6  UNK     1      19.689   0.173  29.466  1.00  0.00     0.068 A 
HETATM   22  C14 UNK     1      20.332  -0.898  28.855  1.00  0.00     0.037 A 
HETATM   23  C16 UNK     1      20.728  -1.995  29.621  1.00  0.00     0.009 A 
HETATM   24  C10 UNK     1      20.477  -2.013  30.993  1.00  0.00    -0.062 A 
HETATM   25  C17 UNK     1      19.831  -0.936  31.599  1.00  0.00     0.009 A 
HETATM   26  C18 UNK     1      20.899  -3.187  31.811  1.00  0.00     0.048 C 
HETATM   27  C15 UNK     1      19.437   0.160  30.833  1.00  0.00     0.037 A 
ENDBRANCH  20  21
ENDBRANCH  19  20
ENDBRANCH  18  19
ENDBRANCH  17  18
ENDBRANCH  13  17
ENDBRANCH   2  11
TORSDOF 7
ENDMDL
MODEL 3
REMARK VINA RESULT:      -7.1     14.786     16.700
REMARK  7 active torsions:
REMARK  status: ('A' for Active; 'I' for Inactive)
REMARK    1  A    between atoms: C2_5  and  O1_1 
REMARK    2  A    between atoms: C3_6  and  O1_1 
REMARK    3  A    between atoms: C4_7  and  O2_2 
REMARK    4  A    between atoms: C6_9  and  O2_2 
REMARK    5  A    between atoms: C1_4  and  C7_10 
REMARK    6  A    between atoms: C2_5  and  C4_7 
REMARK    7  A    between atoms: C11_14  and  C13_16 
ROOT
HETATM    1  N1  UNK     1      19.330   9.951  34.386  1.00  0.00    -0.191 NA
HETATM    2  C7  UNK     1      19.341   6.947  32.695  1.00  0.00     0.035 C 
HETATM    3  C11 UNK     1      18.429   7.840  33.165  1.00  0.00     0.055 C 
HETATM    4  C24 UNK     1      18.938   9.005  33.840  1.00  0.00     0.100 C 
ENDROOT
BRANCH   3   5
HETATM    5  C13 UNK     1      16.991   7.685  33.016  1.00  0.00    -0.015 A 
HETATM    6  C19 UNK     1      16.191   7.476  34.139  1.00  0.00     0.013 A 
HETATM    7  C21 UNK     1      14.811   7.330  33.995  1.00  0.00     0.001 A 
HETATM    8  C23 UNK     1      14.232   7.394  32.728  1.00  0.00     0.000 A 
HETATM    9  C22 UNK     1      15.032   7.602  31.605  1.00  0.00     0.001 A 
HETATM   10  C20 UNK     1      16.412   7.749  31.749  1.00  0.00     0.013 A 
ENDBRANCH   3   5
BRANCH   2  11
HETATM   11  C1  UNK     1      19.027   5.689  32.001  1.00  0.00    -0.032 A 
HETATM   12  C5  UNK     1      18.488   4.630  32.717  1.00  0.00     0.048 A 
HETATM   13  C3  UNK     1      18.191   3.437  32.058  1.00  0.00     0.069 A 
HETATM   14  C9  UNK     1      18.435   3.317  30.690  1.00  0.00     0.037 A 
HETATM   15  C12 UNK     1      18.977   4.389  29.980  1.00  0.00     0.004 A 
HETATM   16  C8  UNK     1      19.274   5.582  30.639  1.00  0.00     0.011 A 
BRANCH  13  17
HETATM   17  O1  UNK     1      17.663   2.391  32.749  1.00  0.00    -0.349 OA
BRANCH  17  18
HETATM   18  C2  UNK     1      18.139   2.184  34.078  1.00  0.00     0.202 C 
BRANCH  18  19
HETATM   19  C4  UNK     1      17.148   1.316  34.829  1.00  0.00     0.202 C 
BRANCH  19  20
HETATM   20  O2  UNK     1      17.233  -0.016  34.338  1.00  0.00    -0.349 OA
BRANCH  20  21
HETATM   21  C6  UNK     1      18.010  -0.890  35.053  1.00  0.00     0.068 A 
HETATM   22  C14 UNK     1      19.203  -1.353  34.509  1.00  0.00     0.037 A 
HETATM   23  C16 UNK     1      19.995  -2.241  35.236  1.00  0.00     0.009 A 
HETATM   24  C10 UNK     1      19.589  -2.660  36.503  1.00  0.00    -0.062 A 
HETATM   25  C17 UNK     1      18.392  -2.190  37.042  1.00  0.00     0.009 A 
HETATM   26  C18 UNK     1      20.436  -3.610  37.280  1.00  0.00     0.048 C 
HETATM   27  C15 UNK     1      17.600  -1.303  36.315  1.00  0.00     0.037 A 
ENDBRANCH  20  21
ENDBRANCH  19  20
ENDBRANCH  18  19
ENDBRANCH  17  18
ENDBRANCH  13  17
ENDBRANCH   2  11
TORSDOF 7
ENDMDL
MODEL 4
REMARK VINA RESULT:      -7.0     15.840     17.587
REMARK  7 active torsions:
REMARK  status: ('A' for Active; 'I' for Inactive)
REMARK    1  A    between atoms: C2_5  and  O1_1 
REMARK    2  A    between atoms: C3_6  and  O1_1 
REMARK    3  A    between atoms: C4_7  and  O2_2 
REMARK    4  A    between atoms: C6_9  and  O2_2 
REMARK    5  A    between atoms: C1_4  and  C7_10 
REMARK    6  A    between atoms: C2_5  and  C4_7 
REMARK    7  A    between atoms: C11_14  and  C13_16 
ROOT
HETATM    1  N1  UNK     1      18.235   0.266  34.562  1.00  0.00    -0.191 NA
HETATM    2  C7  UNK     1      18.227   3.486  33.331  1.00  0.00     0.035 C 
HETATM    3  C11 UNK     1      18.341   2.219  32.850  1.00  0.00     0.055 C 
HETATM    4  C24 UNK     1      18.282   1.144  33.806  1.00  0.00     0.100 C 
ENDROOT
BRANCH   3   5
HETATM    5  C13 UNK     1      18.511   1.899  31.441  1.00  0.00    -0.015 A 
HETATM    6  C19 UNK     1      17.770   2.581  30.476  1.00  0.00     0.013 A 
HETATM    7  C21 UNK     1      17.934   2.274  29.125  1.00  0.00     0.001 A 
HETATM    8  C23 UNK     1      18.841   1.287  28.740  1.00  0.00     0.000 A 
HETATM    9  C22 UNK     1      19.582   0.606  29.705  1.00  0.00     0.001 A 
HETATM   10  C20 UNK     1      19.418   0.912  31.056  1.00  0.00     0.013 A 
ENDBRANCH   3   5
BRANCH   2  11
HETATM   11  C1  UNK     1      18.284   4.715  32.526  1.00  0.00    -0.032 A 
HETATM   12  C5  UNK     1      17.125   5.447  32.315  1.00  0.00     0.048 A 
HETATM   13  C3  UNK     1      17.180   6.613  31.552  1.00  0.00     0.069 A 
HETATM   14  C9  UNK     1      18.393   7.035  31.009  1.00  0.00     0.037 A 
HETATM   15  C12 UNK     1      19.553   6.290  31.229  1.00  0.00     0.004 A 
HETATM   16  C8  UNK     1      19.498   5.124  31.992  1.00  0.00     0.011 A 
BRANCH  13  17
HETATM   17  O1  UNK     1      16.050   7.340  31.337  1.00  0.00    -0.349 OA
BRANCH  17  18
HETATM   18  C2  UNK     1      14.984   7.174  32.270  1.00  0.00     0.202 C 
BRANCH  18  19
HETATM   19  C4  UNK     1      14.723   8.497  32.965  1.00  0.00     0.202 C 
BRANCH  19  20
HETATM   20  O2  UNK     1      15.324   8.470  34.254  1.00  0.00    -0.349 OA
BRANCH  20  21
HETATM   21  C6  UNK     1      16.670   8.723  34.313  1.00  0.00     0.068 A 
HETATM   22  C14 UNK     1      17.535   7.737  34.772  1.00  0.00     0.037 A 
HETATM   23  C16 UNK     1      18.906   7.993  34.831  1.00  0.00     0.009 A 
HETATM   24  C10 UNK     1      19.400   9.235  34.431  1.00  0.00    -0.062 A 
HETATM   25  C17 UNK     1      18.525  10.219  33.972  1.00  0.00     0.009 A 
HETATM   26  C18 UNK     1      20.864   9.508  34.496  1.00  0.00     0.048 C 
HETATM   27  C15 UNK     1      17.156   9.962  33.912  1.00  0.00     0.037 A 
ENDBRANCH  20  21
ENDBRANCH  19  20
ENDBRANCH  18  19
ENDBRANCH  17  18
ENDBRANCH  13  17
ENDBRANCH   2  11
TORSDOF 7
ENDMDL
MODEL 5
REMARK VINA RESULT:      -6.9      9.007     11.863
REMARK  7 active torsions:
REMARK  status: ('A' for Active; 'I' for Inactive)
REMARK    1  A    between atoms: C2_5  and  O1_1 
REMARK    2  A    between atoms: C3_6  and  O1_1 
REMARK    3  A    between atoms: C4_7  and  O2_2 
REMARK    4  A    between atoms: C6_9  and  O2_2 
REMARK    5  A    between atoms: C1_4  and  C7_10 
REMARK    6  A    between atoms: C2_5  and  C4_7 
REMARK    7  A    between atoms: C11_14  and  C13_16 
ROOT
HETATM    1  N1  UNK     1      23.027 -11.598  35.319  1.00  0.00    -0.191 NA
HETATM    2  C7  UNK     1      20.851  -8.925  35.400  1.00  0.00     0.035 C 
HETATM    3  C11 UNK     1      21.784  -9.494  36.208  1.00  0.00     0.055 C 
HETATM    4  C24 UNK     1      22.467 -10.659  35.707  1.00  0.00     0.100 C 
ENDROOT
BRANCH   3   5
HETATM    5  C13 UNK     1      22.128  -8.990  37.528  1.00  0.00    -0.015 A 
HETATM    6  C19 UNK     1      21.246  -9.164  38.594  1.00  0.00     0.013 A 
HETATM    7  C21 UNK     1      21.579  -8.683  39.861  1.00  0.00     0.001 A 
HETATM    8  C23 UNK     1      22.794  -8.029  40.061  1.00  0.00     0.000 A 
HETATM    9  C22 UNK     1      23.677  -7.855  38.995  1.00  0.00     0.001 A 
HETATM   10  C20 UNK     1      23.344  -8.337  37.728  1.00  0.00     0.013 A 
ENDBRANCH   3   5
BRANCH   2  11
HETATM   11  C1  UNK     1      20.032  -7.750  35.732  1.00  0.00    -0.032 A 
HETATM   12  C5  UNK     1      20.590  -6.483  35.647  1.00  0.00     0.048 A 
HETATM   13  C3  UNK     1      19.813  -5.369  35.962  1.00  0.00     0.069 A 
HETATM   14  C9  UNK     1      18.487  -5.534  36.360  1.00  0.00     0.037 A 
HETATM   15  C12 UNK     1      17.936  -6.813  36.442  1.00  0.00     0.004 A 
HETATM   16  C8  UNK     1      18.713  -7.927  36.126  1.00  0.00     0.011 A 
BRANCH  13  17
HETATM   17  O1  UNK     1      20.349  -4.120  35.883  1.00  0.00    -0.349 OA
BRANCH  17  18
HETATM   18  C2  UNK     1      19.457  -3.020  36.058  1.00  0.00     0.202 C 
BRANCH  18  19
HETATM   19  C4  UNK     1      19.633  -2.052  34.904  1.00  0.00     0.202 C 
BRANCH  19  20
HETATM   20  O2  UNK     1      20.450  -2.659  33.910  1.00  0.00    -0.349 OA
BRANCH  20  21
HETATM   21  C6  UNK     1      20.328  -2.179  32.633  1.00  0.00     0.068 A 
HETATM   22  C14 UNK     1      19.700  -0.958  32.414  1.00  0.00     0.037 A 
HETATM   23  C16 UNK     1      19.576  -0.467  31.114  1.00  0.00     0.009 A 
HETATM   24  C10 UNK     1      20.081  -1.203  30.041  1.00  0.00    -0.062 A 
HETATM   25  C17 UNK     1      20.709  -2.426  30.269  1.00  0.00     0.009 A 
HETATM   26  C18 UNK     1      19.947  -0.679  28.651  1.00  0.00     0.048 C 
HETATM   27  C15 UNK     1      20.833  -2.916  31.568  1.00  0.00     0.037 A 
ENDBRANCH  20  21
ENDBRANCH  19  20
ENDBRANCH  18  19
ENDBRANCH  17  18
ENDBRANCH  13  17
ENDBRANCH   2  11
TORSDOF 7
ENDMDL
MODEL 6
REMARK VINA RESULT:      -6.9      2.896      5.029
REMARK  7 active torsions:
REMARK  status: ('A' for Active; 'I' for Inactive)
REMARK    1  A    between atoms: C2_5  and  O1_1 
REMARK    2  A    between atoms: C3_6  and  O1_1 
REMARK    3  A    between atoms: C4_7  and  O2_2 
REMARK    4  A    between atoms: C6_9  and  O2_2 
REMARK    5  A    between atoms: C1_4  and  C7_10 
REMARK    6  A    between atoms: C2_5  and  C4_7 
REMARK    7  A    between atoms: C11_14  and  C13_16 
ROOT
HETATM    1  N1  UNK     1      26.604  -9.878  37.308  1.00  0.00    -0.191 NA
HETATM    2  C7  UNK     1      28.012  -7.468  35.284  1.00  0.00     0.035 C 
HETATM    3  C11 UNK     1      28.144  -8.802  35.510  1.00  0.00     0.055 C 
HETATM    4  C24 UNK     1      27.287  -9.389  36.508  1.00  0.00     0.100 C 
ENDROOT
BRANCH   3   5
HETATM    5  C13 UNK     1      29.086  -9.655  34.803  1.00  0.00    -0.015 A 
HETATM    6  C19 UNK     1      30.284 -10.028  35.412  1.00  0.00     0.013 A 
HETATM    7  C21 UNK     1      31.186 -10.848  34.733  1.00  0.00     0.001 A 
HETATM    8  C23 UNK     1      30.888 -11.297  33.446  1.00  0.00     0.000 A 
HETATM    9  C22 UNK     1      29.689 -10.924  32.838  1.00  0.00     0.001 A 
HETATM   10  C20 UNK     1      28.787 -10.104  33.517  1.00  0.00     0.013 A 
ENDBRANCH   3   5
BRANCH   2  11
HETATM   11  C1  UNK     1      28.803  -6.680  34.329  1.00  0.00    -0.032 A 
HETATM   12  C5  UNK     1      30.131  -6.394  34.614  1.00  0.00     0.048 A 
HETATM   13  C3  UNK     1      30.882  -5.646  33.708  1.00  0.00     0.069 A 
HETATM   14  C9  UNK     1      30.297  -5.193  32.525  1.00  0.00     0.037 A 
HETATM   15  C12 UNK     1      28.961  -5.487  32.249  1.00  0.00     0.004 A 
HETATM   16  C8  UNK     1      28.210  -6.235  33.155  1.00  0.00     0.011 A 
BRANCH  13  17
HETATM   17  O1  UNK     1      32.184  -5.359  33.975  1.00  0.00    -0.349 OA
BRANCH  17  18
HETATM   18  C2  UNK     1      32.438  -4.300  34.898  1.00  0.00     0.202 C 
BRANCH  18  19
HETATM   19  C4  UNK     1      33.072  -4.877  36.150  1.00  0.00     0.202 C 
BRANCH  19  20
HETATM   20  O2  UNK     1      32.437  -4.315  37.292  1.00  0.00    -0.349 OA
BRANCH  20  21
HETATM   21  C6  UNK     1      31.327  -4.964  37.763  1.00  0.00     0.068 A 
HETATM   22  C14 UNK     1      30.170  -4.242  38.031  1.00  0.00     0.037 A 
HETATM   23  C16 UNK     1      29.037  -4.902  38.509  1.00  0.00     0.009 A 
HETATM   24  C10 UNK     1      29.072  -6.280  38.717  1.00  0.00    -0.062 A 
HETATM   25  C17 UNK     1      30.236  -6.998  38.447  1.00  0.00     0.009 A 
HETATM   26  C18 UNK     1      27.862  -6.986  39.230  1.00  0.00     0.048 C 
HETATM   27  C15 UNK     1      31.367  -6.338  37.968  1.00  0.00     0.037 A 
ENDBRANCH  20  21
ENDBRANCH  19  20
ENDBRANCH  18  19
ENDBRANCH  17  18
ENDBRANCH  13  17
ENDBRANCH   2  11
TORSDOF 7
ENDMDL
MODEL 7
REMARK VINA RESULT:      -6.9      3.598      5.981
REMARK  7 active torsions:
REMARK  status: ('A' for Active; 'I' for Inactive)
REMARK    1  A    between atoms: C2_5  and  O1_1 
REMARK    2  A    between atoms: C3_6  and  O1_1 
REMARK    3  A    between atoms: C4_7  and  O2_2 
REMARK    4  A    between atoms: C6_9  and  O2_2 
REMARK    5  A    between atoms: C1_4  and  C7_10 
REMARK    6  A    between atoms: C2_5  and  C4_7 
REMARK    7  A    between atoms: C11_14  and  C13_16 
ROOT
HETATM    1  N1  UNK     1      26.149  -4.710  38.609  1.00  0.00    -0.191 NA
HETATM    2  C7  UNK     1      29.176  -6.125  37.761  1.00  0.00     0.035 C 
HETATM    3  C11 UNK     1      27.965  -6.531  38.227  1.00  0.00     0.055 C 
HETATM    4  C24 UNK     1      26.966  -5.515  38.436  1.00  0.00     0.100 C 
ENDROOT
BRANCH   3   5
HETATM    5  C13 UNK     1      27.629  -7.917  38.513  1.00  0.00    -0.015 A 
HETATM    6  C19 UNK     1      27.866  -8.445  39.782  1.00  0.00     0.013 A 
HETATM    7  C21 UNK     1      27.542  -9.774  40.056  1.00  0.00     0.001 A 
HETATM    8  C23 UNK     1      26.979 -10.574  39.061  1.00  0.00     0.000 A 
HETATM    9  C22 UNK     1      26.742 -10.045  37.792  1.00  0.00     0.001 A 
HETATM   10  C20 UNK     1      27.066  -8.716  37.518  1.00  0.00     0.013 A 
ENDBRANCH   3   5
BRANCH   2  11
HETATM   11  C1  UNK     1      30.330  -6.999  37.503  1.00  0.00    -0.032 A 
HETATM   12  C5  UNK     1      30.347  -7.790  36.364  1.00  0.00     0.048 A 
HETATM   13  C3  UNK     1      31.442  -8.618  36.120  1.00  0.00     0.069 A 
HETATM   14  C9  UNK     1      32.509  -8.645  37.018  1.00  0.00     0.037 A 
HETATM   15  C12 UNK     1      32.481  -7.844  38.161  1.00  0.00     0.004 A 
HETATM   16  C8  UNK     1      31.386  -7.016  38.404  1.00  0.00     0.011 A 
BRANCH  13  17
HETATM   17  O1  UNK     1      31.471  -9.400  35.007  1.00  0.00    -0.349 OA
BRANCH  17  18
HETATM   18  C2  UNK     1      32.728  -9.542  34.347  1.00  0.00     0.202 C 
BRANCH  18  19
HETATM   19  C4  UNK     1      32.724  -8.697  33.088  1.00  0.00     0.202 C 
BRANCH  19  20
HETATM   20  O2  UNK     1      33.669  -7.644  33.232  1.00  0.00    -0.349 OA
BRANCH  20  21
HETATM   21  C6  UNK     1      33.297  -6.583  34.015  1.00  0.00     0.068 A 
HETATM   22  C14 UNK     1      34.122  -6.175  35.057  1.00  0.00     0.037 A 
HETATM   23  C16 UNK     1      33.745  -5.093  35.854  1.00  0.00     0.009 A 
HETATM   24  C10 UNK     1      32.544  -4.429  35.603  1.00  0.00    -0.062 A 
HETATM   25  C17 UNK     1      31.722  -4.845  34.557  1.00  0.00     0.009 A 
HETATM   26  C18 UNK     1      32.141  -3.274  36.456  1.00  0.00     0.048 C 
HETATM   27  C15 UNK     1      32.100  -5.925  33.760  1.00  0.00     0.037 A 
ENDBRANCH  20  21
ENDBRANCH  19  20
ENDBRANCH  18  19
ENDBRANCH  17  18
ENDBRANCH  13  17
ENDBRANCH   2  11
TORSDOF 7
ENDMDL
MODEL 8
REMARK VINA RESULT:      -6.8      3.063      5.947
REMARK  7 active torsions:
REMARK  status: ('A' for Active; 'I' for Inactive)
REMARK    1  A    between atoms: C2_5  and  O1_1 
REMARK    2  A    between atoms: C3_6  and  O1_1 
REMARK    3  A    between atoms: C4_7  and  O2_2 
REMARK    4  A    between atoms: C6_9  and  O2_2 
REMARK    5  A    between atoms: C1_4  and  C7_10 
REMARK    6  A    between atoms: C2_5  and  C4_7 
REMARK    7  A    between atoms: C11_14  and  C13_16 
ROOT
HETATM    1  N1  UNK     1      26.196  -4.717  38.749  1.00  0.00    -0.191 NA
HETATM    2  C7  UNK     1      29.096  -6.126  37.528  1.00  0.00     0.035 C 
HETATM    3  C11 UNK     1      27.951  -6.535  38.138  1.00  0.00     0.055 C 
HETATM    4  C24 UNK     1      26.985  -5.521  38.473  1.00  0.00     0.100 C 
ENDROOT
BRANCH   3   5
HETATM    5  C13 UNK     1      27.653  -7.922  38.456  1.00  0.00    -0.015 A 
HETATM    6  C19 UNK     1      28.040  -8.456  39.685  1.00  0.00     0.013 A 
HETATM    7  C21 UNK     1      27.752  -9.786  39.990  1.00  0.00     0.001 A 
HETATM    8  C23 UNK     1      27.076 -10.582  39.066  1.00  0.00     0.000 A 
HETATM    9  C22 UNK     1      26.689 -10.049  37.837  1.00  0.00     0.001 A 
HETATM   10  C20 UNK     1      26.977  -8.719  37.532  1.00  0.00     0.013 A 
ENDBRANCH   3   5
BRANCH   2  11
HETATM   11  C1  UNK     1      30.210  -6.997  37.127  1.00  0.00    -0.032 A 
HETATM   12  C5  UNK     1      31.464  -6.803  37.689  1.00  0.00     0.048 A 
HETATM   13  C3  UNK     1      32.521  -7.629  37.308  1.00  0.00     0.069 A 
HETATM   14  C9  UNK     1      32.312  -8.641  36.371  1.00  0.00     0.037 A 
HETATM   15  C12 UNK     1      31.046  -8.826  35.813  1.00  0.00     0.004 A 
HETATM   16  C8  UNK     1      29.990  -8.000  36.194  1.00  0.00     0.011 A 
BRANCH  13  17
HETATM   17  O1  UNK     1      33.756  -7.450  37.850  1.00  0.00    -0.349 OA
BRANCH  17  18
HETATM   18  C2  UNK     1      34.332  -6.149  37.736  1.00  0.00     0.202 C 
BRANCH  18  19
HETATM   19  C4  UNK     1      35.095  -6.060  36.429  1.00  0.00     0.202 C 
BRANCH  19  20
HETATM   20  O2  UNK     1      34.482  -5.081  35.599  1.00  0.00    -0.349 OA
BRANCH  20  21
HETATM   21  C6  UNK     1      33.519  -5.525  34.730  1.00  0.00     0.068 A 
HETATM   22  C14 UNK     1      32.268  -4.919  34.722  1.00  0.00     0.037 A 
HETATM   23  C16 UNK     1      31.288  -5.368  33.837  1.00  0.00     0.009 A 
HETATM   24  C10 UNK     1      31.567  -6.422  32.966  1.00  0.00    -0.062 A 
HETATM   25  C17 UNK     1      32.824  -7.025  32.980  1.00  0.00     0.009 A 
HETATM   26  C18 UNK     1      30.518  -6.903  32.021  1.00  0.00     0.048 C 
HETATM   27  C15 UNK     1      33.803  -6.575  33.865  1.00  0.00     0.037 A 
ENDBRANCH  20  21
ENDBRANCH  19  20
ENDBRANCH  18  19
ENDBRANCH  17  18
ENDBRANCH  13  17
ENDBRANCH   2  11
TORSDOF 7
ENDMDL
MODEL 9
REMARK VINA RESULT:      -6.7      2.395      4.250
REMARK  7 active torsions:
REMARK  status: ('A' for Active; 'I' for Inactive)
REMARK    1  A    between atoms: C2_5  and  O1_1 
REMARK    2  A    between atoms: C3_6  and  O1_1 
REMARK    3  A    between atoms: C4_7  and  O2_2 
REMARK    4  A    between atoms: C6_9  and  O2_2 
REMARK    5  A    between atoms: C1_4  and  C7_10 
REMARK    6  A    between atoms: C2_5  and  C4_7 
REMARK    7  A    between atoms: C11_14  and  C13_16 
ROOT
HETATM    1  N1  UNK     1      25.600  -6.274  29.888  1.00  0.00    -0.191 NA
HETATM    2  C7  UNK     1      27.947  -7.606  32.034  1.00  0.00     0.035 C 
HETATM    3  C11 UNK     1      27.657  -7.638  30.706  1.00  0.00     0.055 C 
HETATM    4  C24 UNK     1      26.515  -6.880  30.263  1.00  0.00     0.100 C 
ENDROOT
BRANCH   3   5
HETATM    5  C13 UNK     1      28.433  -8.379  29.725  1.00  0.00    -0.015 A 
HETATM    6  C19 UNK     1      27.914  -9.544  29.160  1.00  0.00     0.013 A 
HETATM    7  C21 UNK     1      28.659 -10.254  28.217  1.00  0.00     0.001 A 
HETATM    8  C23 UNK     1      29.920  -9.797  27.838  1.00  0.00     0.000 A 
HETATM    9  C22 UNK     1      30.439  -8.632  28.402  1.00  0.00     0.001 A 
HETATM   10  C20 UNK     1      29.695  -7.922  29.345  1.00  0.00     0.013 A 
ENDBRANCH   3   5
BRANCH   2  11
HETATM   11  C1  UNK     1      29.050  -8.325  32.687  1.00  0.00    -0.032 A 
HETATM   12  C5  UNK     1      30.229  -7.651  32.973  1.00  0.00     0.048 A 
HETATM   13  C3  UNK     1      31.276  -8.334  33.592  1.00  0.00     0.069 A 
HETATM   14  C9  UNK     1      31.132  -9.682  33.919  1.00  0.00     0.037 A 
HETATM   15  C12 UNK     1      29.941 -10.349  33.627  1.00  0.00     0.004 A 
HETATM   16  C8  UNK     1      28.895  -9.666  33.007  1.00  0.00     0.011 A 
BRANCH  13  17
HETATM   17  O1  UNK     1      32.437  -7.685  33.878  1.00  0.00    -0.349 OA
BRANCH  17  18
HETATM   18  C2  UNK     1      32.334  -6.450  34.584  1.00  0.00     0.202 C 
BRANCH  18  19
HETATM   19  C4  UNK     1      32.401  -6.725  36.074  1.00  0.00     0.202 C 
BRANCH  19  20
HETATM   20  O2  UNK     1      31.204  -6.262  36.687  1.00  0.00    -0.349 OA
BRANCH  20  21
HETATM   21  C6  UNK     1      30.127  -7.108  36.653  1.00  0.00     0.068 A 
HETATM   22  C14 UNK     1      28.926  -6.672  36.106  1.00  0.00     0.037 A 
HETATM   23  C16 UNK     1      27.829  -7.534  36.070  1.00  0.00     0.009 A 
HETATM   24  C10 UNK     1      27.941  -8.825  36.584  1.00  0.00    -0.062 A 
HETATM   25  C17 UNK     1      29.149  -9.256  37.132  1.00  0.00     0.009 A 
HETATM   26  C18 UNK     1      26.768  -9.746  36.547  1.00  0.00     0.048 C 
HETATM   27  C15 UNK     1      30.245  -8.395  37.167  1.00  0.00     0.037 A 
ENDBRANCH  20  21
ENDBRANCH  19  20
ENDBRANCH  18  19
ENDBRANCH  17  18
ENDBRANCH  13  17
ENDBRANCH   2  11
TORSDOF 7
ENDMDL
MODEL 10
REMARK VINA RESULT:      -6.7      2.869      4.275
REMARK  7 active torsions:
REMARK  status: ('A' for Active; 'I' for Inactive)
REMARK    1  A    between atoms: C2_5  and  O1_1 
REMARK    2  A    between atoms: C3_6  and  O1_1 
REMARK    3  A    between atoms: C4_7  and  O2_2 
REMARK    4  A    between atoms: C6_9  and  O2_2 
REMARK    5  A    between atoms: C1_4  and  C7_10 
REMARK    6  A    between atoms: C2_5  and  C4_7 
REMARK    7  A    between atoms: C11_14  and  C13_16 
ROOT
HETATM    1  N1  UNK     1      31.795  -8.925  27.573  1.00  0.00    -0.191 NA
HETATM    2  C7  UNK     1      31.945  -8.179  30.936  1.00  0.00     0.035 C 
HETATM    3  C11 UNK     1      31.016  -8.190  29.943  1.00  0.00     0.055 C 
HETATM    4  C24 UNK     1      31.457  -8.598  28.634  1.00  0.00     0.100 C 
ENDROOT
BRANCH   3   5
HETATM    5  C13 UNK     1      29.622  -7.826  30.133  1.00  0.00    -0.015 A 
HETATM    6  C19 UNK     1      28.659  -8.819  30.318  1.00  0.00     0.013 A 
HETATM    7  C21 UNK     1      27.322  -8.468  30.502  1.00  0.00     0.001 A 
HETATM    8  C23 UNK     1      26.947  -7.124  30.504  1.00  0.00     0.000 A 
HETATM    9  C22 UNK     1      27.909  -6.132  30.320  1.00  0.00     0.001 A 
HETATM   10  C20 UNK     1      29.247  -6.482  30.135  1.00  0.00     0.013 A 
ENDBRANCH   3   5
BRANCH   2  11
HETATM   11  C1  UNK     1      31.704  -7.775  32.329  1.00  0.00    -0.032 A 
HETATM   12  C5  UNK     1      31.924  -6.458  32.705  1.00  0.00     0.048 A 
HETATM   13  C3  UNK     1      31.694  -6.075  34.027  1.00  0.00     0.069 A 
HETATM   14  C9  UNK     1      31.247  -7.013  34.957  1.00  0.00     0.037 A 
HETATM   15  C12 UNK     1      31.028  -8.335  34.566  1.00  0.00     0.004 A 
HETATM   16  C8  UNK     1      31.258  -8.717  33.244  1.00  0.00     0.011 A 
BRANCH  13  17
HETATM   17  O1  UNK     1      31.907  -4.786  34.410  1.00  0.00    -0.349 OA
BRANCH  17  18
HETATM   18  C2  UNK     1      32.806  -4.573  35.497  1.00  0.00     0.202 C 
BRANCH  18  19
HETATM   19  C4  UNK     1      34.161  -4.172  34.946  1.00  0.00     0.202 C 
BRANCH  19  20
HETATM   20  O2  UNK     1      35.103  -5.196  35.240  1.00  0.00    -0.349 OA
BRANCH  20  21
HETATM   21  C6  UNK     1      35.194  -6.227  34.343  1.00  0.00     0.068 A 
HETATM   22  C14 UNK     1      34.982  -7.533  34.770  1.00  0.00     0.037 A 
HETATM   23  C16 UNK     1      35.073  -8.583  33.857  1.00  0.00     0.009 A 
HETATM   24  C10 UNK     1      35.377  -8.320  32.521  1.00  0.00    -0.062 A 
HETATM   25  C17 UNK     1      35.589  -7.007  32.099  1.00  0.00     0.009 A 
HETATM   26  C18 UNK     1      35.476  -9.443  31.545  1.00  0.00     0.048 C 
HETATM   27  C15 UNK     1      35.497  -5.958  33.013  1.00  0.00     0.037 A 
ENDBRANCH  20  21
ENDBRANCH  19  20
ENDBRANCH  18  19
ENDBRANCH  17  18
ENDBRANCH  13  17
ENDBRANCH   2  11
TORSDOF 7
ENDMDL
