MODEL 1
REMARK VINA RESULT:      -9.1      0.000      0.000
REMARK  6 active torsions:
REMARK  status: ('A' for Active; 'I' for Inactive)
REMARK    1  A    between atoms: C10_17  and  O1_2 
REMARK    2  A    between atoms: C6_13  and  O1_2 
REMARK       I    between atoms: C14_21  and  N1_7 
REMARK    3  A    between atoms: C5_12  and  N1_7 
REMARK    4  A    between atoms: C1_8  and  C4_11 
REMARK    5  A    between atoms: C2_9  and  C6_13 
REMARK    6  A    between atoms: C14_21  and  C15_22 
ROOT
HETATM    1  S1  UNK     1      17.419  -1.711  37.618  1.00  0.00    -0.075 SA
HETATM    2  C1  UNK     1      18.217  -0.039  35.839  1.00  0.00     0.006 A 
HETATM    3  C2  UNK     1      18.817  -1.287  35.505  1.00  0.00     0.085 A 
HETATM    4  C3  UNK     1      17.432  -0.128  36.966  1.00  0.00    -0.007 A 
HETATM    5  C5  UNK     1      18.460  -2.254  36.390  1.00  0.00     0.094 A 
HETATM    6  C9  UNK     1      16.638   0.924  37.647  1.00  0.00     0.057 C 
ENDROOT
BRANCH   5   7
HETATM    7  N1  UNK     1      18.810  -3.607  36.445  1.00  0.00    -0.316 N 
HETATM    8  C14 UNK     1      19.949  -4.132  37.038  1.00  0.00     0.262 C 
HETATM    9  O4  UNK     1      20.856  -3.539  37.617  1.00  0.00    -0.267 OA
HETATM   10  H3  UNK     1      18.132  -4.232  36.017  1.00  0.00     0.169 HD
BRANCH   8  11
HETATM   11  C15 UNK     1      20.005  -5.595  36.913  1.00  0.00     0.108 A 
HETATM   12  C17 UNK     1      19.866  -6.290  38.048  1.00  0.00     0.037 A 
HETATM   13  C16 UNK     1      19.908  -7.745  38.025  1.00  0.00    -0.001 A 
HETATM   14  C20 UNK     1      20.095  -8.394  36.810  1.00  0.00     0.089 A 
HETATM   15  C23 UNK     1      19.767  -8.511  39.185  1.00  0.00     0.014 A 
HETATM   16  O2  UNK     1      20.240  -7.657  35.619  1.00  0.00    -0.274 OA
HETATM   17  C24 UNK     1      20.144  -9.784  36.720  1.00  0.00     0.038 A 
HETATM   18  C22 UNK     1      20.204  -6.264  35.608  1.00  0.00     0.304 A 
HETATM   19  O5  UNK     1      20.332  -5.630  34.567  1.00  0.00    -0.259 OA
HETATM   20  C26 UNK     1      20.004 -10.541  37.880  1.00  0.00     0.003 A 
HETATM   21  C25 UNK     1      19.815  -9.906  39.111  1.00  0.00     0.001 A 
ENDBRANCH   8  11
ENDBRANCH   5   7
BRANCH   3  22
HETATM   22  C6  UNK     1      19.693  -1.526  34.384  1.00  0.00     0.297 C 
HETATM   23  O3  UNK     1      20.874  -1.885  34.494  1.00  0.00    -0.259 OA
BRANCH  22  24
HETATM   24  O1  UNK     1      19.098  -1.319  33.157  1.00  0.00    -0.313 OA
BRANCH  24  25
HETATM   25  C10 UNK     1      19.973  -1.129  32.039  1.00  0.00     0.124 C 
HETATM   26  C18 UNK     1      20.037  -2.415  31.229  1.00  0.00     0.040 C 
HETATM   27  C19 UNK     1      19.472   0.042  31.206  1.00  0.00     0.040 C 
ENDBRANCH  24  25
ENDBRANCH  22  24
ENDBRANCH   3  22
BRANCH   2  28
HETATM   28  C4  UNK     1      18.363   1.211  35.135  1.00  0.00    -0.024 A 
HETATM   29  C7  UNK     1      17.719   1.397  33.915  1.00  0.00     0.013 A 
HETATM   30  C12 UNK     1      17.861   2.607  33.234  1.00  0.00     0.007 A 
HETATM   31  C11 UNK     1      18.646   3.624  33.776  1.00  0.00    -0.062 A 
HETATM   32  C13 UNK     1      19.290   3.433  34.998  1.00  0.00     0.007 A 
HETATM   33  C21 UNK     1      18.797   4.917  33.048  1.00  0.00     0.048 C 
HETATM   34  C8  UNK     1      19.148   2.224  35.679  1.00  0.00     0.013 A 
ENDBRANCH   2  28
TORSDOF 6
ENDMDL
MODEL 2
REMARK VINA RESULT:      -8.7     17.486     22.156
REMARK  6 active torsions:
REMARK  status: ('A' for Active; 'I' for Inactive)
REMARK    1  A    between atoms: C10_17  and  O1_2 
REMARK    2  A    between atoms: C6_13  and  O1_2 
REMARK       I    between atoms: C14_21  and  N1_7 
REMARK    3  A    between atoms: C5_12  and  N1_7 
REMARK    4  A    between atoms: C1_8  and  C4_11 
REMARK    5  A    between atoms: C2_9  and  C6_13 
REMARK    6  A    between atoms: C14_21  and  C15_22 
ROOT
HETATM    1  S1  UNK     1      19.040  -1.779  12.163  1.00  0.00    -0.075 SA
HETATM    2  C1  UNK     1      19.998  -4.161  12.239  1.00  0.00     0.006 A 
HETATM    3  C2  UNK     1      20.170  -3.624  13.548  1.00  0.00     0.085 A 
HETATM    4  C3  UNK     1      19.397  -3.263  11.387  1.00  0.00    -0.007 A 
HETATM    5  C5  UNK     1      19.693  -2.355  13.622  1.00  0.00     0.094 A 
HETATM    6  C9  UNK     1      19.039  -3.417   9.956  1.00  0.00     0.057 C 
ENDROOT
BRANCH   5   7
HETATM    7  N1  UNK     1      19.656  -1.461  14.698  1.00  0.00    -0.316 N 
HETATM    8  C14 UNK     1      18.755  -1.488  15.752  1.00  0.00     0.262 C 
HETATM    9  O4  UNK     1      17.831  -2.275  15.952  1.00  0.00    -0.267 OA
HETATM   10  H3  UNK     1      20.386  -0.754  14.678  1.00  0.00     0.169 HD
BRANCH   8  11
HETATM   11  C15 UNK     1      19.000  -0.403  16.710  1.00  0.00     0.108 A 
HETATM   12  C17 UNK     1      18.982  -0.741  18.004  1.00  0.00     0.037 A 
HETATM   13  C16 UNK     1      19.214   0.267  19.028  1.00  0.00    -0.001 A 
HETATM   14  C20 UNK     1      19.454   1.580  18.638  1.00  0.00     0.089 A 
HETATM   15  C23 UNK     1      19.205  -0.041  20.391  1.00  0.00     0.014 A 
HETATM   16  O2  UNK     1      19.472   1.930  17.274  1.00  0.00    -0.274 OA
HETATM   17  C24 UNK     1      19.684   2.591  19.568  1.00  0.00     0.038 A 
HETATM   18  C22 UNK     1      19.254   0.989  16.271  1.00  0.00     0.304 A 
HETATM   19  O5  UNK     1      19.270   1.302  15.086  1.00  0.00    -0.259 OA
HETATM   20  C26 UNK     1      19.672   2.277  20.925  1.00  0.00     0.003 A 
HETATM   21  C25 UNK     1      19.434   0.963  21.336  1.00  0.00     0.001 A 
ENDBRANCH   8  11
ENDBRANCH   5   7
BRANCH   3  22
HETATM   22  C6  UNK     1      20.767  -4.312  14.667  1.00  0.00     0.297 C 
HETATM   23  O3  UNK     1      20.268  -5.307  15.212  1.00  0.00    -0.259 OA
BRANCH  22  24
HETATM   24  O1  UNK     1      21.958  -3.761  15.090  1.00  0.00    -0.313 OA
BRANCH  24  25
HETATM   25  C10 UNK     1      22.413  -4.131  16.397  1.00  0.00     0.124 C 
HETATM   26  C18 UNK     1      23.930  -4.041  16.443  1.00  0.00     0.040 C 
HETATM   27  C19 UNK     1      21.759  -3.224  17.429  1.00  0.00     0.040 C 
ENDBRANCH  24  25
ENDBRANCH  22  24
ENDBRANCH   3  22
BRANCH   2  28
HETATM   28  C4  UNK     1      20.381  -5.475  11.783  1.00  0.00    -0.024 A 
HETATM   29  C7  UNK     1      19.697  -6.595  12.247  1.00  0.00     0.013 A 
HETATM   30  C12 UNK     1      20.067  -7.865  11.805  1.00  0.00     0.007 A 
HETATM   31  C11 UNK     1      21.119  -8.009  10.900  1.00  0.00    -0.062 A 
HETATM   32  C13 UNK     1      21.802  -6.884  10.438  1.00  0.00     0.007 A 
HETATM   33  C21 UNK     1      21.514  -9.367  10.427  1.00  0.00     0.048 C 
HETATM   34  C8  UNK     1      21.432  -5.614  10.881  1.00  0.00     0.013 A 
ENDBRANCH   2  28
TORSDOF 6
ENDMDL
MODEL 3
REMARK VINA RESULT:      -8.7      9.233     12.054
REMARK  6 active torsions:
REMARK  status: ('A' for Active; 'I' for Inactive)
REMARK    1  A    between atoms: C10_17  and  O1_2 
REMARK    2  A    between atoms: C6_13  and  O1_2 
REMARK       I    between atoms: C14_21  and  N1_7 
REMARK    3  A    between atoms: C5_12  and  N1_7 
REMARK    4  A    between atoms: C1_8  and  C4_11 
REMARK    5  A    between atoms: C2_9  and  C6_13 
REMARK    6  A    between atoms: C14_21  and  C15_22 
ROOT
HETATM    1  S1  UNK     1      28.204  -9.544  36.185  1.00  0.00    -0.075 SA
HETATM    2  C1  UNK     1      30.272  -8.031  36.364  1.00  0.00     0.006 A 
HETATM    3  C2  UNK     1      29.199  -7.303  36.952  1.00  0.00     0.085 A 
HETATM    4  C3  UNK     1      29.870  -9.265  35.906  1.00  0.00    -0.007 A 
HETATM    5  C5  UNK     1      28.043  -8.016  36.912  1.00  0.00     0.094 A 
HETATM    6  C9  UNK     1      30.662 -10.325  35.237  1.00  0.00     0.057 C 
ENDROOT
BRANCH   5   7
HETATM    7  N1  UNK     1      26.761  -7.693  37.369  1.00  0.00    -0.316 N 
HETATM    8  C14 UNK     1      26.212  -8.061  38.588  1.00  0.00     0.262 C 
HETATM    9  O4  UNK     1      26.719  -8.726  39.490  1.00  0.00    -0.267 OA
HETATM   10  H3  UNK     1      26.222  -7.119  36.727  1.00  0.00     0.169 HD
BRANCH   8  11
HETATM   11  C15 UNK     1      24.843  -7.554  38.747  1.00  0.00     0.108 A 
HETATM   12  C17 UNK     1      23.880  -8.476  38.863  1.00  0.00     0.037 A 
HETATM   13  C16 UNK     1      22.493  -8.070  39.024  1.00  0.00    -0.001 A 
HETATM   14  C20 UNK     1      22.187  -6.714  39.056  1.00  0.00     0.089 A 
HETATM   15  C23 UNK     1      21.455  -8.998  39.149  1.00  0.00     0.014 A 
HETATM   16  O2  UNK     1      23.205  -5.748  38.934  1.00  0.00    -0.274 OA
HETATM   17  C24 UNK     1      20.879  -6.259  39.208  1.00  0.00     0.038 A 
HETATM   18  C22 UNK     1      24.542  -6.104  38.779  1.00  0.00     0.304 A 
HETATM   19  O5  UNK     1      25.421  -5.257  38.672  1.00  0.00    -0.259 OA
HETATM   20  C26 UNK     1      19.850  -7.190  39.331  1.00  0.00     0.003 A 
HETATM   21  C25 UNK     1      20.138  -8.557  39.303  1.00  0.00     0.001 A 
ENDBRANCH   8  11
ENDBRANCH   5   7
BRANCH   3  22
HETATM   22  C6  UNK     1      29.292  -5.981  37.525  1.00  0.00     0.297 C 
HETATM   23  O3  UNK     1      28.757  -5.652  38.593  1.00  0.00    -0.259 OA
BRANCH  22  24
HETATM   24  O1  UNK     1      30.038  -5.099  36.773  1.00  0.00    -0.313 OA
BRANCH  24  25
HETATM   25  C10 UNK     1      30.848  -4.162  37.492  1.00  0.00     0.124 C 
HETATM   26  C18 UNK     1      31.654  -4.903  38.548  1.00  0.00     0.040 C 
HETATM   27  C19 UNK     1      31.744  -3.420  36.512  1.00  0.00     0.040 C 
ENDBRANCH  24  25
ENDBRANCH  22  24
ENDBRANCH   3  22
BRANCH   2  28
HETATM   28  C4  UNK     1      31.641  -7.599  36.226  1.00  0.00    -0.024 A 
HETATM   29  C7  UNK     1      32.033  -6.893  35.092  1.00  0.00     0.013 A 
HETATM   30  C12 UNK     1      33.358  -6.475  34.959  1.00  0.00     0.007 A 
HETATM   31  C11 UNK     1      34.284  -6.766  35.960  1.00  0.00    -0.062 A 
HETATM   32  C13 UNK     1      33.887  -7.475  37.094  1.00  0.00     0.007 A 
HETATM   33  C21 UNK     1      35.699  -6.319  35.818  1.00  0.00     0.048 C 
HETATM   34  C8  UNK     1      32.563  -7.892  37.227  1.00  0.00     0.013 A 
ENDBRANCH   2  28
TORSDOF 6
ENDMDL
MODEL 4
REMARK VINA RESULT:      -8.7      9.917     14.992
REMARK  6 active torsions:
REMARK  status: ('A' for Active; 'I' for Inactive)
REMARK    1  A    between atoms: C10_17  and  O1_2 
REMARK    2  A    between atoms: C6_13  and  O1_2 
REMARK       I    between atoms: C14_21  and  N1_7 
REMARK    3  A    between atoms: C5_12  and  N1_7 
REMARK    4  A    between atoms: C1_8  and  C4_11 
REMARK    5  A    between atoms: C2_9  and  C6_13 
REMARK    6  A    between atoms: C14_21  and  C15_22 
ROOT
HETATM    1  S1  UNK     1      19.934   8.545  34.171  1.00  0.00    -0.075 SA
HETATM    2  C1  UNK     1      18.906   6.879  32.508  1.00  0.00     0.006 A 
HETATM    3  C2  UNK     1      17.919   7.883  32.722  1.00  0.00     0.085 A 
HETATM    4  C3  UNK     1      20.051   7.116  33.235  1.00  0.00    -0.007 A 
HETATM    5  C5  UNK     1      18.361   8.826  33.594  1.00  0.00     0.094 A 
HETATM    6  C9  UNK     1      21.304   6.327  33.302  1.00  0.00     0.057 C 
ENDROOT
BRANCH   5   7
HETATM    7  N1  UNK     1      17.731   9.976  34.083  1.00  0.00    -0.316 N 
HETATM    8  C14 UNK     1      18.130  11.285  33.856  1.00  0.00     0.262 C 
HETATM    9  O4  UNK     1      19.087  11.694  33.202  1.00  0.00    -0.267 OA
HETATM   10  H3  UNK     1      16.898   9.792  34.635  1.00  0.00     0.169 HD
BRANCH   8  11
HETATM   11  C15 UNK     1      17.243  12.249  34.519  1.00  0.00     0.108 A 
HETATM   12  C17 UNK     1      16.116  11.754  35.044  1.00  0.00     0.037 A 
HETATM   13  C16 UNK     1      15.175  12.632  35.721  1.00  0.00    -0.001 A 
HETATM   14  C20 UNK     1      15.466  13.989  35.812  1.00  0.00     0.089 A 
HETATM   15  C23 UNK     1      13.987  12.158  36.283  1.00  0.00     0.014 A 
HETATM   16  O2  UNK     1      16.654  14.505  35.258  1.00  0.00    -0.274 OA
HETATM   17  C24 UNK     1      14.607  14.883  36.447  1.00  0.00     0.038 A 
HETATM   18  C22 UNK     1      17.575  13.690  34.604  1.00  0.00     0.304 A 
HETATM   19  O5  UNK     1      18.605  14.148  34.124  1.00  0.00    -0.259 OA
HETATM   20  C26 UNK     1      13.424  14.403  37.004  1.00  0.00     0.003 A 
HETATM   21  C25 UNK     1      13.115  13.043  36.923  1.00  0.00     0.001 A 
ENDBRANCH   8  11
ENDBRANCH   5   7
BRANCH   3  22
HETATM   22  C6  UNK     1      16.613   7.923  32.109  1.00  0.00     0.297 C 
HETATM   23  O3  UNK     1      16.409   8.292  30.943  1.00  0.00    -0.259 OA
BRANCH  22  24
HETATM   24  O1  UNK     1      15.593   7.512  32.940  1.00  0.00    -0.313 OA
BRANCH  24  25
HETATM   25  C10 UNK     1      14.381   8.274  32.901  1.00  0.00     0.124 C 
HETATM   26  C18 UNK     1      13.212   7.343  32.617  1.00  0.00     0.040 C 
HETATM   27  C19 UNK     1      14.211   9.011  34.221  1.00  0.00     0.040 C 
ENDBRANCH  24  25
ENDBRANCH  22  24
ENDBRANCH   3  22
BRANCH   2  28
HETATM   28  C4  UNK     1      18.798   5.723  31.652  1.00  0.00    -0.024 A 
HETATM   29  C7  UNK     1      19.208   5.805  30.325  1.00  0.00     0.013 A 
HETATM   30  C12 UNK     1      19.103   4.686  29.497  1.00  0.00     0.007 A 
HETATM   31  C11 UNK     1      18.589   3.492  30.001  1.00  0.00    -0.062 A 
HETATM   32  C13 UNK     1      18.178   3.415  31.332  1.00  0.00     0.007 A 
HETATM   33  C21 UNK     1      18.477   2.297  29.116  1.00  0.00     0.048 C 
HETATM   34  C8  UNK     1      18.283   4.533  32.159  1.00  0.00     0.013 A 
ENDBRANCH   2  28
TORSDOF 6
ENDMDL
MODEL 5
REMARK VINA RESULT:      -8.6      1.658      2.184
REMARK  6 active torsions:
REMARK  status: ('A' for Active; 'I' for Inactive)
REMARK    1  A    between atoms: C10_17  and  O1_2 
REMARK    2  A    between atoms: C6_13  and  O1_2 
REMARK       I    between atoms: C14_21  and  N1_7 
REMARK    3  A    between atoms: C5_12  and  N1_7 
REMARK    4  A    between atoms: C1_8  and  C4_11 
REMARK    5  A    between atoms: C2_9  and  C6_13 
REMARK    6  A    between atoms: C14_21  and  C15_22 
ROOT
HETATM    1  S1  UNK     1      18.383  -2.516  37.676  1.00  0.00    -0.075 SA
HETATM    2  C1  UNK     1      18.787  -0.756  35.850  1.00  0.00     0.006 A 
HETATM    3  C2  UNK     1      19.674  -1.834  35.562  1.00  0.00     0.085 A 
HETATM    4  C3  UNK     1      18.028  -0.996  36.973  1.00  0.00    -0.007 A 
HETATM    5  C5  UNK     1      19.543  -2.831  36.475  1.00  0.00     0.094 A 
HETATM    6  C9  UNK     1      16.996  -0.145  37.611  1.00  0.00     0.057 C 
ENDROOT
BRANCH   5   7
HETATM    7  N1  UNK     1      20.205  -4.059  36.577  1.00  0.00    -0.316 N 
HETATM    8  C14 UNK     1      19.611  -5.312  36.551  1.00  0.00     0.262 C 
HETATM    9  O4  UNK     1      18.420  -5.596  36.437  1.00  0.00    -0.267 OA
HETATM   10  H3  UNK     1      21.216  -3.983  36.658  1.00  0.00     0.169 HD
BRANCH   8  11
HETATM   11  C15 UNK     1      20.600  -6.390  36.683  1.00  0.00     0.108 A 
HETATM   12  C17 UNK     1      20.476  -7.414  35.832  1.00  0.00     0.037 A 
HETATM   13  C16 UNK     1      21.409  -8.529  35.886  1.00  0.00    -0.001 A 
HETATM   14  C20 UNK     1      22.427  -8.510  36.833  1.00  0.00     0.089 A 
HETATM   15  C23 UNK     1      21.318  -9.619  35.017  1.00  0.00     0.014 A 
HETATM   16  O2  UNK     1      22.553  -7.429  37.727  1.00  0.00    -0.274 OA
HETATM   17  C24 UNK     1      23.353  -9.546  36.937  1.00  0.00     0.038 A 
HETATM   18  C22 UNK     1      21.676  -6.347  37.700  1.00  0.00     0.304 A 
HETATM   19  O5  UNK     1      21.792  -5.411  38.482  1.00  0.00    -0.259 OA
HETATM   20  C26 UNK     1      23.254 -10.630  36.068  1.00  0.00     0.003 A 
HETATM   21  C25 UNK     1      22.239 -10.666  35.109  1.00  0.00     0.001 A 
ENDBRANCH   8  11
ENDBRANCH   5   7
BRANCH   3  22
HETATM   22  C6  UNK     1      20.599  -1.890  34.456  1.00  0.00     0.297 C 
HETATM   23  O3  UNK     1      21.831  -1.887  34.587  1.00  0.00    -0.259 OA
BRANCH  22  24
HETATM   24  O1  UNK     1      19.990  -1.948  33.221  1.00  0.00    -0.313 OA
BRANCH  24  25
HETATM   25  C10 UNK     1      20.844  -1.857  32.075  1.00  0.00     0.124 C 
HETATM   26  C18 UNK     1      20.913  -3.216  31.393  1.00  0.00     0.040 C 
HETATM   27  C19 UNK     1      20.314  -0.780  31.140  1.00  0.00     0.040 C 
ENDBRANCH  24  25
ENDBRANCH  22  24
ENDBRANCH   3  22
BRANCH   2  28
HETATM   28  C4  UNK     1      18.642   0.471  35.106  1.00  0.00    -0.024 A 
HETATM   29  C7  UNK     1      18.121   0.441  33.816  1.00  0.00     0.013 A 
HETATM   30  C12 UNK     1      17.981   1.628  33.097  1.00  0.00     0.007 A 
HETATM   31  C11 UNK     1      18.363   2.840  33.671  1.00  0.00    -0.062 A 
HETATM   32  C13 UNK     1      18.886   2.866  34.964  1.00  0.00     0.007 A 
HETATM   33  C21 UNK     1      18.212   4.109  32.902  1.00  0.00     0.048 C 
HETATM   34  C8  UNK     1      19.026   1.679  35.683  1.00  0.00     0.013 A 
ENDBRANCH   2  28
TORSDOF 6
ENDMDL
MODEL 6
REMARK VINA RESULT:      -8.6      7.768     11.290
REMARK  6 active torsions:
REMARK  status: ('A' for Active; 'I' for Inactive)
REMARK    1  A    between atoms: C10_17  and  O1_2 
REMARK    2  A    between atoms: C6_13  and  O1_2 
REMARK       I    between atoms: C14_21  and  N1_7 
REMARK    3  A    between atoms: C5_12  and  N1_7 
REMARK    4  A    between atoms: C1_8  and  C4_11 
REMARK    5  A    between atoms: C2_9  and  C6_13 
REMARK    6  A    between atoms: C14_21  and  C15_22 
ROOT
HETATM    1  S1  UNK     1      26.684 -10.020  39.748  1.00  0.00    -0.075 SA
HETATM    2  C1  UNK     1      28.607  -8.766  38.595  1.00  0.00     0.006 A 
HETATM    3  C2  UNK     1      27.405  -8.156  38.133  1.00  0.00     0.085 A 
HETATM    4  C3  UNK     1      28.360  -9.793  39.478  1.00  0.00    -0.007 A 
HETATM    5  C5  UNK     1      26.313  -8.747  38.685  1.00  0.00     0.094 A 
HETATM    6  C9  UNK     1      29.317 -10.677  40.185  1.00  0.00     0.057 C 
ENDROOT
BRANCH   5   7
HETATM    7  N1  UNK     1      24.952  -8.474  38.516  1.00  0.00    -0.316 N 
HETATM    8  C14 UNK     1      24.130  -8.998  37.529  1.00  0.00     0.262 C 
HETATM    9  O4  UNK     1      24.416  -9.783  36.627  1.00  0.00    -0.267 OA
HETATM   10  H3  UNK     1      24.563  -7.845  39.213  1.00  0.00     0.169 HD
BRANCH   8  11
HETATM   11  C15 UNK     1      22.753  -8.501  37.643  1.00  0.00     0.108 A 
HETATM   12  C17 UNK     1      22.100  -8.298  36.493  1.00  0.00     0.037 A 
HETATM   13  C16 UNK     1      20.731  -7.806  36.504  1.00  0.00    -0.001 A 
HETATM   14  C20 UNK     1      20.117  -7.553  37.725  1.00  0.00     0.089 A 
HETATM   15  C23 UNK     1      20.011  -7.581  35.327  1.00  0.00     0.014 A 
HETATM   16  O2  UNK     1      20.808  -7.768  38.933  1.00  0.00    -0.274 OA
HETATM   17  C24 UNK     1      18.808  -7.081  37.805  1.00  0.00     0.038 A 
HETATM   18  C22 UNK     1      22.119  -8.238  38.955  1.00  0.00     0.304 A 
HETATM   19  O5  UNK     1      22.714  -8.422  40.011  1.00  0.00    -0.259 OA
HETATM   20  C26 UNK     1      18.098  -6.858  36.628  1.00  0.00     0.003 A 
HETATM   21  C25 UNK     1      18.698  -7.108  35.391  1.00  0.00     0.001 A 
ENDBRANCH   8  11
ENDBRANCH   5   7
BRANCH   3  22
HETATM   22  C6  UNK     1      27.323  -7.056  37.203  1.00  0.00     0.297 C 
HETATM   23  O3  UNK     1      27.370  -5.864  37.538  1.00  0.00    -0.259 OA
BRANCH  22  24
HETATM   24  O1  UNK     1      27.185  -7.445  35.888  1.00  0.00    -0.313 OA
BRANCH  24  25
HETATM   25  C10 UNK     1      28.382  -7.511  35.104  1.00  0.00     0.124 C 
HETATM   26  C18 UNK     1      28.565  -8.929  34.586  1.00  0.00     0.040 C 
HETATM   27  C19 UNK     1      28.294  -6.500  33.971  1.00  0.00     0.040 C 
ENDBRANCH  24  25
ENDBRANCH  22  24
ENDBRANCH   3  22
BRANCH   2  28
HETATM   28  C4  UNK     1      29.956  -8.410  38.230  1.00  0.00    -0.024 A 
HETATM   29  C7  UNK     1      30.735  -9.305  37.502  1.00  0.00     0.013 A 
HETATM   30  C12 UNK     1      32.040  -8.961  37.150  1.00  0.00     0.007 A 
HETATM   31  C11 UNK     1      32.560  -7.723  37.527  1.00  0.00    -0.062 A 
HETATM   32  C13 UNK     1      31.777  -6.830  38.257  1.00  0.00     0.007 A 
HETATM   33  C21 UNK     1      33.955  -7.355  37.150  1.00  0.00     0.048 C 
HETATM   34  C8  UNK     1      30.472  -7.174  38.610  1.00  0.00     0.013 A 
ENDBRANCH   2  28
TORSDOF 6
ENDMDL
MODEL 7
REMARK VINA RESULT:      -8.3     18.595     23.080
REMARK  6 active torsions:
REMARK  status: ('A' for Active; 'I' for Inactive)
REMARK    1  A    between atoms: C10_17  and  O1_2 
REMARK    2  A    between atoms: C6_13  and  O1_2 
REMARK       I    between atoms: C14_21  and  N1_7 
REMARK    3  A    between atoms: C5_12  and  N1_7 
REMARK    4  A    between atoms: C1_8  and  C4_11 
REMARK    5  A    between atoms: C2_9  and  C6_13 
REMARK    6  A    between atoms: C14_21  and  C15_22 
ROOT
HETATM    1  S1  UNK     1      20.639  -5.068  15.010  1.00  0.00    -0.075 SA
HETATM    2  C1  UNK     1      20.123  -5.230  12.499  1.00  0.00     0.006 A 
HETATM    3  C2  UNK     1      19.809  -3.894  12.881  1.00  0.00     0.085 A 
HETATM    4  C3  UNK     1      20.584  -5.976  13.559  1.00  0.00    -0.007 A 
HETATM    5  C5  UNK     1      20.047  -3.694  14.204  1.00  0.00     0.094 A 
HETATM    6  C9  UNK     1      21.017  -7.394  13.596  1.00  0.00     0.057 C 
ENDROOT
BRANCH   5   7
HETATM    7  N1  UNK     1      19.882  -2.551  14.992  1.00  0.00    -0.316 N 
HETATM    8  C14 UNK     1      18.738  -2.200  15.693  1.00  0.00     0.262 C 
HETATM    9  O4  UNK     1      17.666  -2.798  15.763  1.00  0.00    -0.267 OA
HETATM   10  H3  UNK     1      20.707  -1.959  15.047  1.00  0.00     0.169 HD
BRANCH   8  11
HETATM   11  C15 UNK     1      18.907  -0.934  16.418  1.00  0.00     0.108 A 
HETATM   12  C17 UNK     1      18.717  -0.982  17.742  1.00  0.00     0.037 A 
HETATM   13  C16 UNK     1      18.863   0.222  18.547  1.00  0.00    -0.001 A 
HETATM   14  C20 UNK     1      19.201   1.415  17.918  1.00  0.00     0.089 A 
HETATM   15  C23 UNK     1      18.675   0.219  19.931  1.00  0.00     0.014 A 
HETATM   16  O2  UNK     1      19.400   1.459  16.524  1.00  0.00    -0.274 OA
HETATM   17  C24 UNK     1      19.356   2.602  18.631  1.00  0.00     0.038 A 
HETATM   18  C22 UNK     1      19.268   0.325  15.727  1.00  0.00     0.304 A 
HETATM   19  O5  UNK     1      19.442   0.372  14.515  1.00  0.00    -0.259 OA
HETATM   20  C26 UNK     1      19.165   2.591  20.010  1.00  0.00     0.003 A 
HETATM   21  C25 UNK     1      18.827   1.402  20.660  1.00  0.00     0.001 A 
ENDBRANCH   8  11
ENDBRANCH   5   7
BRANCH   3  22
HETATM   22  C6  UNK     1      19.304  -2.865  12.005  1.00  0.00     0.297 C 
HETATM   23  O3  UNK     1      18.435  -2.044  12.332  1.00  0.00    -0.259 OA
BRANCH  22  24
HETATM   24  O1  UNK     1      19.877  -2.868  10.751  1.00  0.00    -0.313 OA
BRANCH  24  25
HETATM   25  C10 UNK     1      21.218  -2.375  10.652  1.00  0.00     0.124 C 
HETATM   26  C18 UNK     1      21.697  -2.511   9.214  1.00  0.00     0.040 C 
HETATM   27  C19 UNK     1      21.257  -0.931  11.128  1.00  0.00     0.040 C 
ENDBRANCH  24  25
ENDBRANCH  22  24
ENDBRANCH   3  22
BRANCH   2  28
HETATM   28  C4  UNK     1      20.000  -5.808  11.183  1.00  0.00    -0.024 A 
HETATM   29  C7  UNK     1      18.746  -6.173  10.703  1.00  0.00     0.013 A 
HETATM   30  C12 UNK     1      18.627  -6.733   9.430  1.00  0.00     0.007 A 
HETATM   31  C11 UNK     1      19.763  -6.924   8.644  1.00  0.00    -0.062 A 
HETATM   32  C13 UNK     1      21.019  -6.558   9.130  1.00  0.00     0.007 A 
HETATM   33  C21 UNK     1      19.637  -7.522   7.284  1.00  0.00     0.048 C 
HETATM   34  C8  UNK     1      21.137  -5.998  10.403  1.00  0.00     0.013 A 
ENDBRANCH   2  28
TORSDOF 6
ENDMDL
MODEL 8
REMARK VINA RESULT:      -8.3      8.097     11.465
REMARK  6 active torsions:
REMARK  status: ('A' for Active; 'I' for Inactive)
REMARK    1  A    between atoms: C10_17  and  O1_2 
REMARK    2  A    between atoms: C6_13  and  O1_2 
REMARK       I    between atoms: C14_21  and  N1_7 
REMARK    3  A    between atoms: C5_12  and  N1_7 
REMARK    4  A    between atoms: C1_8  and  C4_11 
REMARK    5  A    between atoms: C2_9  and  C6_13 
REMARK    6  A    between atoms: C14_21  and  C15_22 
ROOT
HETATM    1  S1  UNK     1      27.185 -10.332  39.204  1.00  0.00    -0.075 SA
HETATM    2  C1  UNK     1      29.050  -8.884  38.192  1.00  0.00     0.006 A 
HETATM    3  C2  UNK     1      27.837  -8.439  37.593  1.00  0.00     0.085 A 
HETATM    4  C3  UNK     1      28.840  -9.909  39.087  1.00  0.00    -0.007 A 
HETATM    5  C5  UNK     1      26.773  -9.144  38.060  1.00  0.00     0.094 A 
HETATM    6  C9  UNK     1      29.820 -10.649  39.918  1.00  0.00     0.057 C 
ENDROOT
BRANCH   5   7
HETATM    7  N1  UNK     1      25.413  -9.045  37.751  1.00  0.00    -0.316 N 
HETATM    8  C14 UNK     1      24.719  -9.844  36.854  1.00  0.00     0.262 C 
HETATM    9  O4  UNK     1      25.140 -10.773  36.167  1.00  0.00    -0.267 OA
HETATM   10  H3  UNK     1      24.919  -8.321  38.266  1.00  0.00     0.169 HD
BRANCH   8  11
HETATM   11  C15 UNK     1      23.302  -9.468  36.769  1.00  0.00     0.108 A 
HETATM   12  C17 UNK     1      22.894  -8.506  37.605  1.00  0.00     0.037 A 
HETATM   13  C16 UNK     1      21.507  -8.066  37.595  1.00  0.00    -0.001 A 
HETATM   14  C20 UNK     1      20.619  -8.659  36.705  1.00  0.00     0.089 A 
HETATM   15  C23 UNK     1      21.038  -7.065  38.449  1.00  0.00     0.014 A 
HETATM   16  O2  UNK     1      21.054  -9.671  35.827  1.00  0.00    -0.274 OA
HETATM   17  C24 UNK     1      19.279  -8.283  36.645  1.00  0.00     0.038 A 
HETATM   18  C22 UNK     1      22.375 -10.114  35.812  1.00  0.00     0.304 A 
HETATM   19  O5  UNK     1      22.744 -10.996  35.046  1.00  0.00    -0.259 OA
HETATM   20  C26 UNK     1      18.818  -7.286  37.500  1.00  0.00     0.003 A 
HETATM   21  C25 UNK     1      19.696  -6.677  38.400  1.00  0.00     0.001 A 
ENDBRANCH   8  11
ENDBRANCH   5   7
BRANCH   3  22
HETATM   22  C6  UNK     1      27.718  -7.384  36.617  1.00  0.00     0.297 C 
HETATM   23  O3  UNK     1      27.171  -6.294  36.841  1.00  0.00    -0.259 OA
BRANCH  22  24
HETATM   24  O1  UNK     1      28.271  -7.690  35.392  1.00  0.00    -0.313 OA
BRANCH  24  25
HETATM   25  C10 UNK     1      28.737  -6.592  34.600  1.00  0.00     0.124 C 
HETATM   26  C18 UNK     1      30.258  -6.580  34.605  1.00  0.00     0.040 C 
HETATM   27  C19 UNK     1      28.175  -6.717  33.192  1.00  0.00     0.040 C 
ENDBRANCH  24  25
ENDBRANCH  22  24
ENDBRANCH   3  22
BRANCH   2  28
HETATM   28  C4  UNK     1      30.377  -8.376  37.946  1.00  0.00    -0.024 A 
HETATM   29  C7  UNK     1      30.775  -7.173  38.522  1.00  0.00     0.013 A 
HETATM   30  C12 UNK     1      32.059  -6.682  38.283  1.00  0.00     0.007 A 
HETATM   31  C11 UNK     1      32.938  -7.395  37.470  1.00  0.00    -0.062 A 
HETATM   32  C13 UNK     1      32.535  -8.600  36.894  1.00  0.00     0.007 A 
HETATM   33  C21 UNK     1      34.311  -6.871  37.215  1.00  0.00     0.048 C 
HETATM   34  C8  UNK     1      31.251  -9.091  37.132  1.00  0.00     0.013 A 
ENDBRANCH   2  28
TORSDOF 6
ENDMDL
MODEL 9
REMARK VINA RESULT:      -8.3      9.578     12.076
REMARK  6 active torsions:
REMARK  status: ('A' for Active; 'I' for Inactive)
REMARK    1  A    between atoms: C10_17  and  O1_2 
REMARK    2  A    between atoms: C6_13  and  O1_2 
REMARK       I    between atoms: C14_21  and  N1_7 
REMARK    3  A    between atoms: C5_12  and  N1_7 
REMARK    4  A    between atoms: C1_8  and  C4_11 
REMARK    5  A    between atoms: C2_9  and  C6_13 
REMARK    6  A    between atoms: C14_21  and  C15_22 
ROOT
HETATM    1  S1  UNK     1      29.476  -6.087  38.304  1.00  0.00    -0.075 SA
HETATM    2  C1  UNK     1      31.193  -6.696  36.494  1.00  0.00     0.006 A 
HETATM    3  C2  UNK     1      29.980  -7.342  36.120  1.00  0.00     0.085 A 
HETATM    4  C3  UNK     1      31.059  -5.980  37.662  1.00  0.00    -0.007 A 
HETATM    5  C5  UNK     1      28.993  -7.086  37.017  1.00  0.00     0.094 A 
HETATM    6  C9  UNK     1      32.066  -5.171  38.391  1.00  0.00     0.057 C 
ENDROOT
BRANCH   5   7
HETATM    7  N1  UNK     1      27.660  -7.510  37.045  1.00  0.00    -0.316 N 
HETATM    8  C14 UNK     1      27.197  -8.715  37.553  1.00  0.00     0.262 C 
HETATM    9  O4  UNK     1      27.839  -9.630  38.066  1.00  0.00    -0.267 OA
HETATM   10  H3  UNK     1      27.000  -6.837  36.666  1.00  0.00     0.169 HD
BRANCH   8  11
HETATM   11  C15 UNK     1      25.740  -8.839  37.423  1.00  0.00     0.108 A 
HETATM   12  C17 UNK     1      25.297  -9.857  36.675  1.00  0.00     0.037 A 
HETATM   13  C16 UNK     1      23.869 -10.061  36.487  1.00  0.00    -0.001 A 
HETATM   14  C20 UNK     1      22.977  -9.186  37.097  1.00  0.00     0.089 A 
HETATM   15  C23 UNK     1      23.362 -11.110  35.715  1.00  0.00     0.014 A 
HETATM   16  O2  UNK     1      23.449  -8.117  37.884  1.00  0.00    -0.274 OA
HETATM   17  C24 UNK     1      21.598  -9.327  36.957  1.00  0.00     0.038 A 
HETATM   18  C22 UNK     1      24.809  -7.894  38.082  1.00  0.00     0.304 A 
HETATM   19  O5  UNK     1      25.211  -6.961  38.768  1.00  0.00    -0.259 OA
HETATM   20  C26 UNK     1      21.101 -10.373  36.185  1.00  0.00     0.003 A 
HETATM   21  C25 UNK     1      21.981 -11.264  35.566  1.00  0.00     0.001 A 
ENDBRANCH   8  11
ENDBRANCH   5   7
BRANCH   3  22
HETATM   22  C6  UNK     1      29.792  -8.166  34.951  1.00  0.00     0.297 C 
HETATM   23  O3  UNK     1      30.420  -9.212  34.734  1.00  0.00    -0.259 OA
BRANCH  22  24
HETATM   24  O1  UNK     1      28.839  -7.687  34.078  1.00  0.00    -0.313 OA
BRANCH  24  25
HETATM   25  C10 UNK     1      29.151  -6.474  33.382  1.00  0.00     0.124 C 
HETATM   26  C18 UNK     1      30.231  -6.753  32.348  1.00  0.00     0.040 C 
HETATM   27  C19 UNK     1      27.885  -5.923  32.745  1.00  0.00     0.040 C 
ENDBRANCH  24  25
ENDBRANCH  22  24
ENDBRANCH   3  22
BRANCH   2  28
HETATM   28  C4  UNK     1      32.452  -6.737  35.790  1.00  0.00    -0.024 A 
HETATM   29  C7  UNK     1      32.754  -5.749  34.856  1.00  0.00     0.013 A 
HETATM   30  C12 UNK     1      33.972  -5.789  34.176  1.00  0.00     0.007 A 
HETATM   31  C11 UNK     1      34.880  -6.816  34.431  1.00  0.00    -0.062 A 
HETATM   32  C13 UNK     1      34.572  -7.804  35.367  1.00  0.00     0.007 A 
HETATM   33  C21 UNK     1      36.181  -6.858  33.704  1.00  0.00     0.048 C 
HETATM   34  C8  UNK     1      33.355  -7.764  36.048  1.00  0.00     0.013 A 
ENDBRANCH   2  28
TORSDOF 6
ENDMDL
MODEL 10
REMARK VINA RESULT:      -8.2     10.806     13.885
REMARK  6 active torsions:
REMARK  status: ('A' for Active; 'I' for Inactive)
REMARK    1  A    between atoms: C10_17  and  O1_2 
REMARK    2  A    between atoms: C6_13  and  O1_2 
REMARK       I    between atoms: C14_21  and  N1_7 
REMARK    3  A    between atoms: C5_12  and  N1_7 
REMARK    4  A    between atoms: C1_8  and  C4_11 
REMARK    5  A    between atoms: C2_9  and  C6_13 
REMARK    6  A    between atoms: C14_21  and  C15_22 
ROOT
HETATM    1  S1  UNK     1      29.370  -9.363  38.901  1.00  0.00    -0.075 SA
HETATM    2  C1  UNK     1      27.373  -9.720  37.326  1.00  0.00     0.006 A 
HETATM    3  C2  UNK     1      28.441  -9.248  36.509  1.00  0.00     0.085 A 
HETATM    4  C3  UNK     1      27.742  -9.828  38.647  1.00  0.00    -0.007 A 
HETATM    5  C5  UNK     1      29.559  -9.023  37.247  1.00  0.00     0.094 A 
HETATM    6  C9  UNK     1      26.944 -10.275  39.814  1.00  0.00     0.057 C 
ENDROOT
BRANCH   5   7
HETATM    7  N1  UNK     1      30.823  -8.564  36.861  1.00  0.00    -0.316 N 
HETATM    8  C14 UNK     1      31.203  -7.236  36.728  1.00  0.00     0.262 C 
HETATM    9  O4  UNK     1      30.533  -6.223  36.913  1.00  0.00    -0.267 OA
HETATM   10  H3  UNK     1      31.501  -9.301  36.691  1.00  0.00     0.169 HD
BRANCH   8  11
HETATM   11  C15 UNK     1      32.604  -7.109  36.306  1.00  0.00     0.108 A 
HETATM   12  C17 UNK     1      32.975  -7.849  35.256  1.00  0.00     0.037 A 
HETATM   13  C16 UNK     1      34.343  -7.790  34.764  1.00  0.00    -0.001 A 
HETATM   14  C20 UNK     1      35.253  -6.954  35.403  1.00  0.00     0.089 A 
HETATM   15  C23 UNK     1      34.775  -8.545  33.670  1.00  0.00     0.014 A 
HETATM   16  O2  UNK     1      34.856  -6.176  36.508  1.00  0.00    -0.274 OA
HETATM   17  C24 UNK     1      36.577  -6.852  34.982  1.00  0.00     0.038 A 
HETATM   18  C22 UNK     1      33.554  -6.211  37.002  1.00  0.00     0.304 A 
HETATM   19  O5  UNK     1      33.218  -5.532  37.965  1.00  0.00    -0.259 OA
HETATM   20  C26 UNK     1      36.999  -7.608  33.892  1.00  0.00     0.003 A 
HETATM   21  C25 UNK     1      36.100  -8.453  33.236  1.00  0.00     0.001 A 
ENDBRANCH   8  11
ENDBRANCH   5   7
BRANCH   3  22
HETATM   22  C6  UNK     1      28.376  -9.027  35.084  1.00  0.00     0.297 C 
HETATM   23  O3  UNK     1      28.381  -9.938  34.244  1.00  0.00    -0.259 OA
BRANCH  22  24
HETATM   24  O1  UNK     1      28.307  -7.698  34.728  1.00  0.00    -0.313 OA
BRANCH  24  25
HETATM   25  C10 UNK     1      28.588  -7.379  33.360  1.00  0.00     0.124 C 
HETATM   26  C18 UNK     1      27.654  -6.270  32.902  1.00  0.00     0.040 C 
HETATM   27  C19 UNK     1      30.050  -6.980  33.230  1.00  0.00     0.040 C 
ENDBRANCH  24  25
ENDBRANCH  22  24
ENDBRANCH   3  22
BRANCH   2  28
HETATM   28  C4  UNK     1      26.039 -10.064  36.898  1.00  0.00    -0.024 A 
HETATM   29  C7  UNK     1      25.019  -9.121  36.990  1.00  0.00     0.013 A 
HETATM   30  C12 UNK     1      23.729  -9.455  36.576  1.00  0.00     0.007 A 
HETATM   31  C11 UNK     1      23.466 -10.728  36.072  1.00  0.00    -0.062 A 
HETATM   32  C13 UNK     1      24.491 -11.670  35.983  1.00  0.00     0.007 A 
HETATM   33  C21 UNK     1      22.087 -11.084  35.630  1.00  0.00     0.048 C 
HETATM   34  C8  UNK     1      25.781 -11.336  36.397  1.00  0.00     0.013 A 
ENDBRANCH   2  28
TORSDOF 6
ENDMDL
