MODEL 1
REMARK VINA RESULT:      -9.3      0.000      0.000
REMARK  5 active torsions:
REMARK  status: ('A' for Active; 'I' for Inactive)
REMARK    1  A    between atoms: C9_15  and  O2_3 
REMARK    2  A    between atoms: C2_8  and  N1_6 
REMARK       I    between atoms: C8_14  and  N1_6 
REMARK    3  A    between atoms: C1_7  and  C2_8 
REMARK    4  A    between atoms: C1_7  and  C3_9 
REMARK    5  A    between atoms: C5_11  and  C8_14 
ROOT
HETATM    1  O1  UNK     1      18.863   0.265  32.610  1.00  0.00    -0.271 OA
HETATM    2  O4  UNK     1      17.933   2.345  32.449  1.00  0.00    -0.259 OA
HETATM    3  C4  UNK     1      19.915  -0.734  30.660  1.00  0.00     0.002 A 
HETATM    4  C5  UNK     1      18.929   1.472  30.485  1.00  0.00     0.108 A 
HETATM    5  C6  UNK     1      19.548  -0.804  32.000  1.00  0.00     0.123 A 
HETATM    6  C7  UNK     1      19.579   0.460  29.899  1.00  0.00     0.037 A 
HETATM    7  C9  UNK     1      19.839  -1.918  32.783  1.00  0.00     0.102 A 
HETATM    8  C10 UNK     1      20.595  -1.813  30.090  1.00  0.00     0.014 A 
HETATM    9  C11 UNK     1      18.528   1.421  31.908  1.00  0.00     0.304 A 
HETATM   10  C14 UNK     1      20.516  -2.990  32.208  1.00  0.00     0.040 A 
HETATM   11  C15 UNK     1      20.894  -2.938  30.864  1.00  0.00     0.004 A 
ENDROOT
BRANCH   4  12
HETATM   12  C8  UNK     1      18.635   2.633  29.635  1.00  0.00     0.257 C 
HETATM   13  O3  UNK     1      18.029   2.500  28.573  1.00  0.00    -0.267 OA
HETATM   14  N1  UNK     1      19.108   3.820  30.163  1.00  0.00    -0.356 N 
HETATM   15  H5  UNK     1      19.572   3.828  31.066  1.00  0.00     0.162 HD
BRANCH  14  16
HETATM   16  C2  UNK     1      18.941   5.096  29.506  1.00  0.00     0.127 C 
BRANCH  16  17
HETATM   17  C1  UNK     1      19.660   6.229  30.237  1.00  0.00     0.058 C 
BRANCH  17  18
HETATM   18  C3  UNK     1      18.990   6.611  31.533  1.00  0.00    -0.057 A 
HETATM   19  C12 UNK     1      19.733   6.628  32.703  1.00  0.00     0.009 A 
HETATM   20  C16 UNK     1      19.114   6.981  33.902  1.00  0.00     0.024 A 
HETATM   21  C18 UNK     1      17.758   7.312  33.916  1.00  0.00     0.034 A 
HETATM   22  C17 UNK     1      17.023   7.291  32.731  1.00  0.00     0.024 A 
HETATM   23 Cl1  UNK     1      16.995   7.747  35.396  1.00  0.00    -0.084 Cl
HETATM   24  C13 UNK     1      17.642   6.938  31.533  1.00  0.00     0.009 A 
ENDBRANCH  17  18
ENDBRANCH  16  17
ENDBRANCH  14  16
ENDBRANCH   4  12
BRANCH   7  25
HETATM   25  O2  UNK     1      19.474  -1.973  34.092  1.00  0.00    -0.353 OA
HETATM   26  C19 UNK     1      20.422  -2.513  35.011  1.00  0.00     0.210 C 
ENDBRANCH   7  25
TORSDOF 5
ENDMDL
MODEL 2
REMARK VINA RESULT:      -9.1      5.174      9.406
REMARK  5 active torsions:
REMARK  status: ('A' for Active; 'I' for Inactive)
REMARK    1  A    between atoms: C9_15  and  O2_3 
REMARK    2  A    between atoms: C2_8  and  N1_6 
REMARK       I    between atoms: C8_14  and  N1_6 
REMARK    3  A    between atoms: C1_7  and  C2_8 
REMARK    4  A    between atoms: C1_7  and  C3_9 
REMARK    5  A    between atoms: C5_11  and  C8_14 
ROOT
HETATM    1  O1  UNK     1      18.642   0.957  32.150  1.00  0.00    -0.271 OA
HETATM    2  O4  UNK     1      17.783   1.321  34.236  1.00  0.00    -0.259 OA
HETATM    3  C4  UNK     1      19.624  -1.201  31.615  1.00  0.00     0.002 A 
HETATM    4  C5  UNK     1      18.716  -0.819  33.828  1.00  0.00     0.108 A 
HETATM    5  C6  UNK     1      19.277   0.092  31.238  1.00  0.00     0.123 A 
HETATM    6  C7  UNK     1      19.321  -1.645  32.967  1.00  0.00     0.037 A 
HETATM    7  C9  UNK     1      19.539   0.579  29.959  1.00  0.00     0.102 A 
HETATM    8  C10 UNK     1      20.252  -2.030  30.682  1.00  0.00     0.014 A 
HETATM    9  C11 UNK     1      18.337   0.560  33.450  1.00  0.00     0.304 A 
HETATM   10  C14 UNK     1      20.167  -0.253  29.035  1.00  0.00     0.040 A 
HETATM   11  C15 UNK     1      20.522  -1.556  29.396  1.00  0.00     0.004 A 
ENDROOT
BRANCH   4  12
HETATM   12  C8  UNK     1      18.452  -1.358  35.168  1.00  0.00     0.257 C 
HETATM   13  O3  UNK     1      17.440  -1.038  35.789  1.00  0.00    -0.267 OA
HETATM   14  N1  UNK     1      19.442  -2.219  35.607  1.00  0.00    -0.356 N 
HETATM   15  H5  UNK     1      20.227  -2.443  35.005  1.00  0.00     0.162 HD
BRANCH  14  16
HETATM   16  C2  UNK     1      19.403  -2.871  36.896  1.00  0.00     0.127 C 
BRANCH  16  17
HETATM   17  C1  UNK     1      20.575  -3.829  37.102  1.00  0.00     0.058 C 
BRANCH  17  18
HETATM   18  C3  UNK     1      20.135  -5.242  37.397  1.00  0.00    -0.057 A 
HETATM   19  C12 UNK     1      19.354  -5.917  36.473  1.00  0.00     0.009 A 
HETATM   20  C16 UNK     1      18.945  -7.223  36.746  1.00  0.00     0.024 A 
HETATM   21  C18 UNK     1      19.324  -7.837  37.940  1.00  0.00     0.034 A 
HETATM   22  C17 UNK     1      20.111  -7.145  38.861  1.00  0.00     0.024 A 
HETATM   23 Cl1  UNK     1      18.821  -9.448  38.276  1.00  0.00    -0.084 Cl
HETATM   24  C13 UNK     1      20.519  -5.840  38.588  1.00  0.00     0.009 A 
ENDBRANCH  17  18
ENDBRANCH  16  17
ENDBRANCH  14  16
ENDBRANCH   4  12
BRANCH   7  25
HETATM   25  O2  UNK     1      19.196   1.845  29.604  1.00  0.00    -0.353 OA
HETATM   26  C19 UNK     1      17.968   2.013  28.895  1.00  0.00     0.210 C 
ENDBRANCH   7  25
TORSDOF 5
ENDMDL
MODEL 3
REMARK VINA RESULT:      -8.9      6.541     11.828
REMARK  5 active torsions:
REMARK  status: ('A' for Active; 'I' for Inactive)
REMARK    1  A    between atoms: C9_15  and  O2_3 
REMARK    2  A    between atoms: C2_8  and  N1_6 
REMARK       I    between atoms: C8_14  and  N1_6 
REMARK    3  A    between atoms: C1_7  and  C2_8 
REMARK    4  A    between atoms: C1_7  and  C3_9 
REMARK    5  A    between atoms: C5_11  and  C8_14 
ROOT
HETATM    1  O1  UNK     1      19.493  -1.282  34.774  1.00  0.00    -0.271 OA
HETATM    2  O4  UNK     1      20.590  -3.225  34.285  1.00  0.00    -0.259 OA
HETATM    3  C4  UNK     1      18.461  -1.002  36.956  1.00  0.00     0.002 A 
HETATM    4  C5  UNK     1      19.622  -3.065  36.442  1.00  0.00     0.108 A 
HETATM    5  C6  UNK     1      18.757  -0.506  35.691  1.00  0.00     0.123 A 
HETATM    6  C7  UNK     1      18.923  -2.334  37.317  1.00  0.00     0.037 A 
HETATM    7  C9  UNK     1      18.345   0.760  35.283  1.00  0.00     0.102 A 
HETATM    8  C10 UNK     1      17.730  -0.203  37.839  1.00  0.00     0.014 A 
HETATM    9  C11 UNK     1      19.949  -2.559  35.090  1.00  0.00     0.304 A 
HETATM   10  C14 UNK     1      17.615   1.550  36.169  1.00  0.00     0.040 A 
HETATM   11  C15 UNK     1      17.309   1.070  37.445  1.00  0.00     0.004 A 
ENDROOT
BRANCH   4  12
HETATM   12  C8  UNK     1      20.043  -4.395  36.898  1.00  0.00     0.257 C 
HETATM   13  O3  UNK     1      21.235  -4.666  37.038  1.00  0.00    -0.267 OA
HETATM   14  N1  UNK     1      18.979  -5.247  37.130  1.00  0.00    -0.356 N 
HETATM   15  H5  UNK     1      18.027  -4.918  37.012  1.00  0.00     0.162 HD
BRANCH  14  16
HETATM   16  C2  UNK     1      19.145  -6.610  37.582  1.00  0.00     0.127 C 
BRANCH  16  17
HETATM   17  C1  UNK     1      18.807  -7.631  36.498  1.00  0.00     0.058 C 
BRANCH  17  18
HETATM   18  C3  UNK     1      19.896  -8.655  36.294  1.00  0.00    -0.057 A 
HETATM   19  C12 UNK     1      19.947  -9.767  37.119  1.00  0.00     0.009 A 
HETATM   20  C16 UNK     1      20.954 -10.713  36.932  1.00  0.00     0.024 A 
HETATM   21  C18 UNK     1      21.899 -10.535  35.921  1.00  0.00     0.034 A 
HETATM   22  C17 UNK     1      21.836  -9.411  35.097  1.00  0.00     0.024 A 
HETATM   23 Cl1  UNK     1      23.142 -11.703  35.690  1.00  0.00    -0.084 Cl
HETATM   24  C13 UNK     1      20.829  -8.465  35.285  1.00  0.00     0.009 A 
ENDBRANCH  17  18
ENDBRANCH  16  17
ENDBRANCH  14  16
ENDBRANCH   4  12
BRANCH   7  25
HETATM   25  O2  UNK     1      18.640   1.231  34.043  1.00  0.00    -0.353 OA
HETATM   26  C19 UNK     1      18.190   2.547  33.721  1.00  0.00     0.210 C 
ENDBRANCH   7  25
TORSDOF 5
ENDMDL
MODEL 4
REMARK VINA RESULT:      -8.9      1.862      3.017
REMARK  5 active torsions:
REMARK  status: ('A' for Active; 'I' for Inactive)
REMARK    1  A    between atoms: C9_15  and  O2_3 
REMARK    2  A    between atoms: C2_8  and  N1_6 
REMARK       I    between atoms: C8_14  and  N1_6 
REMARK    3  A    between atoms: C1_7  and  C2_8 
REMARK    4  A    between atoms: C1_7  and  C3_9 
REMARK    5  A    between atoms: C5_11  and  C8_14 
ROOT
HETATM    1  O1  UNK     1      19.159  -0.401  33.125  1.00  0.00    -0.271 OA
HETATM    2  O4  UNK     1      19.379   0.113  30.911  1.00  0.00    -0.259 OA
HETATM    3  C4  UNK     1      18.139   1.206  34.636  1.00  0.00     0.002 A 
HETATM    4  C5  UNK     1      18.372   1.757  32.288  1.00  0.00     0.108 A 
HETATM    5  C6  UNK     1      18.733  -0.032  34.416  1.00  0.00     0.123 A 
HETATM    6  C7  UNK     1      17.966   2.114  33.512  1.00  0.00     0.037 A 
HETATM    7  C9  UNK     1      18.927  -0.946  35.449  1.00  0.00     0.102 A 
HETATM    8  C10 UNK     1      17.729   1.537  35.930  1.00  0.00     0.014 A 
HETATM    9  C11 UNK     1      19.006   0.445  32.030  1.00  0.00     0.304 A 
HETATM   10  C14 UNK     1      18.517  -0.609  36.736  1.00  0.00     0.040 A 
HETATM   11  C15 UNK     1      17.917   0.630  36.976  1.00  0.00     0.004 A 
ENDROOT
BRANCH   4  12
HETATM   12  C8  UNK     1      18.155   2.739  31.220  1.00  0.00     0.257 C 
HETATM   13  O3  UNK     1      17.063   2.833  30.661  1.00  0.00    -0.267 OA
HETATM   14  N1  UNK     1      19.280   3.495  30.945  1.00  0.00    -0.356 N 
HETATM   15  H5  UNK     1      20.129   3.361  31.485  1.00  0.00     0.162 HD
BRANCH  14  16
HETATM   16  C2  UNK     1      19.310   4.524  29.931  1.00  0.00     0.127 C 
BRANCH  16  17
HETATM   17  C1  UNK     1      19.869   5.845  30.455  1.00  0.00     0.058 C 
BRANCH  17  18
HETATM   18  C3  UNK     1      19.155   6.337  31.689  1.00  0.00    -0.057 A 
HETATM   19  C12 UNK     1      19.876   6.539  32.856  1.00  0.00     0.009 A 
HETATM   20  C16 UNK     1      19.218   6.992  33.998  1.00  0.00     0.024 A 
HETATM   21  C18 UNK     1      17.845   7.239  33.960  1.00  0.00     0.034 A 
HETATM   22  C17 UNK     1      17.132   7.033  32.779  1.00  0.00     0.024 A 
HETATM   23 Cl1  UNK     1      17.032   7.800  35.370  1.00  0.00    -0.084 Cl
HETATM   24  C13 UNK     1      17.791   6.579  31.637  1.00  0.00     0.009 A 
ENDBRANCH  17  18
ENDBRANCH  16  17
ENDBRANCH  14  16
ENDBRANCH   4  12
BRANCH   7  25
HETATM   25  O2  UNK     1      19.510  -2.153  35.220  1.00  0.00    -0.353 OA
HETATM   26  C19 UNK     1      20.566  -2.544  36.098  1.00  0.00     0.210 C 
ENDBRANCH   7  25
TORSDOF 5
ENDMDL
MODEL 5
REMARK VINA RESULT:      -8.8      6.065     11.298
REMARK  5 active torsions:
REMARK  status: ('A' for Active; 'I' for Inactive)
REMARK    1  A    between atoms: C9_15  and  O2_3 
REMARK    2  A    between atoms: C2_8  and  N1_6 
REMARK       I    between atoms: C8_14  and  N1_6 
REMARK    3  A    between atoms: C1_7  and  C2_8 
REMARK    4  A    between atoms: C1_7  and  C3_9 
REMARK    5  A    between atoms: C5_11  and  C8_14 
ROOT
HETATM    1  O1  UNK     1      19.614  -0.958  34.948  1.00  0.00    -0.271 OA
HETATM    2  O4  UNK     1      20.594  -2.849  34.122  1.00  0.00    -0.259 OA
HETATM    3  C4  UNK     1      18.486  -1.033  37.099  1.00  0.00     0.002 A 
HETATM    4  C5  UNK     1      19.523  -3.040  36.226  1.00  0.00     0.108 A 
HETATM    5  C6  UNK     1      18.885  -0.322  35.973  1.00  0.00     0.123 A 
HETATM    6  C7  UNK     1      18.830  -2.443  37.203  1.00  0.00     0.037 A 
HETATM    7  C9  UNK     1      18.588   1.029  35.813  1.00  0.00     0.102 A 
HETATM    8  C10 UNK     1      17.766  -0.367  38.095  1.00  0.00     0.014 A 
HETATM    9  C11 UNK     1      19.960  -2.305  35.019  1.00  0.00     0.304 A 
HETATM   10  C14 UNK     1      17.869   1.685  36.809  1.00  0.00     0.040 A 
HETATM   11  C15 UNK     1      17.459   0.988  37.949  1.00  0.00     0.004 A 
ENDROOT
BRANCH   4  12
HETATM   12  C8  UNK     1      19.822  -4.464  36.421  1.00  0.00     0.257 C 
HETATM   13  O3  UNK     1      20.985  -4.862  36.479  1.00  0.00    -0.267 OA
HETATM   14  N1  UNK     1      18.685  -5.245  36.521  1.00  0.00    -0.356 N 
HETATM   15  H5  UNK     1      17.767  -4.815  36.490  1.00  0.00     0.162 HD
BRANCH  14  16
HETATM   16  C2  UNK     1      18.728  -6.677  36.713  1.00  0.00     0.127 C 
BRANCH  16  17
HETATM   17  C1  UNK     1      19.065  -7.065  38.151  1.00  0.00     0.058 C 
BRANCH  17  18
HETATM   18  C3  UNK     1      20.531  -7.356  38.354  1.00  0.00    -0.057 A 
HETATM   19  C12 UNK     1      21.182  -6.829  39.458  1.00  0.00     0.009 A 
HETATM   20  C16 UNK     1      22.538  -7.096  39.645  1.00  0.00     0.024 A 
HETATM   21  C18 UNK     1      23.227  -7.888  38.725  1.00  0.00     0.034 A 
HETATM   22  C17 UNK     1      22.558  -8.412  37.619  1.00  0.00     0.024 A 
HETATM   23 Cl1  UNK     1      24.899  -8.219  38.957  1.00  0.00    -0.084 Cl
HETATM   24  C13 UNK     1      21.203  -8.144  37.432  1.00  0.00     0.009 A 
ENDBRANCH  17  18
ENDBRANCH  16  17
ENDBRANCH  14  16
ENDBRANCH   4  12
BRANCH   7  25
HETATM   25  O2  UNK     1      18.984   1.711  34.706  1.00  0.00    -0.353 OA
HETATM   26  C19 UNK     1      18.003   1.939  33.695  1.00  0.00     0.210 C 
ENDBRANCH   7  25
TORSDOF 5
ENDMDL
MODEL 6
REMARK VINA RESULT:      -8.8      3.864      8.976
REMARK  5 active torsions:
REMARK  status: ('A' for Active; 'I' for Inactive)
REMARK    1  A    between atoms: C9_15  and  O2_3 
REMARK    2  A    between atoms: C2_8  and  N1_6 
REMARK       I    between atoms: C8_14  and  N1_6 
REMARK    3  A    between atoms: C1_7  and  C2_8 
REMARK    4  A    between atoms: C1_7  and  C3_9 
REMARK    5  A    between atoms: C5_11  and  C8_14 
ROOT
HETATM    1  O1  UNK     1      16.961   8.093  33.034  1.00  0.00    -0.271 OA
HETATM    2  O4  UNK     1      15.834   6.231  32.341  1.00  0.00    -0.259 OA
HETATM    3  C4  UNK     1      19.241   7.883  33.849  1.00  0.00     0.002 A 
HETATM    4  C5  UNK     1      18.049   5.905  33.116  1.00  0.00     0.108 A 
HETATM    5  C6  UNK     1      18.135   8.672  33.554  1.00  0.00     0.123 A 
HETATM    6  C7  UNK     1      19.167   6.449  33.612  1.00  0.00     0.037 A 
HETATM    7  C9  UNK     1      18.141  10.050  33.758  1.00  0.00     0.102 A 
HETATM    8  C10 UNK     1      20.388   8.494  34.362  1.00  0.00     0.014 A 
HETATM    9  C11 UNK     1      16.859   6.725  32.795  1.00  0.00     0.304 A 
HETATM   10  C14 UNK     1      19.288  10.651  34.272  1.00  0.00     0.040 A 
HETATM   11  C15 UNK     1      20.410   9.875  34.573  1.00  0.00     0.004 A 
ENDROOT
BRANCH   4  12
HETATM   12  C8  UNK     1      18.070   4.451  32.912  1.00  0.00     0.257 C 
HETATM   13  O3  UNK     1      18.280   3.685  33.851  1.00  0.00    -0.267 OA
HETATM   14  N1  UNK     1      17.839   4.089  31.598  1.00  0.00    -0.356 N 
HETATM   15  H5  UNK     1      17.646   4.799  30.899  1.00  0.00     0.162 HD
BRANCH  14  16
HETATM   16  C2  UNK     1      17.814   2.714  31.152  1.00  0.00     0.127 C 
BRANCH  16  17
HETATM   17  C1  UNK     1      18.859   2.429  30.076  1.00  0.00     0.058 C 
BRANCH  17  18
HETATM   18  C3  UNK     1      19.376   1.013  30.118  1.00  0.00    -0.057 A 
HETATM   19  C12 UNK     1      19.403   0.335  31.327  1.00  0.00     0.009 A 
HETATM   20  C16 UNK     1      19.882  -0.974  31.367  1.00  0.00     0.024 A 
HETATM   21  C18 UNK     1      20.328  -1.590  30.197  1.00  0.00     0.034 A 
HETATM   22  C17 UNK     1      20.295  -0.896  28.987  1.00  0.00     0.024 A 
HETATM   23 Cl1  UNK     1      20.918  -3.206  30.246  1.00  0.00    -0.084 Cl
HETATM   24  C13 UNK     1      19.817   0.413  28.948  1.00  0.00     0.009 A 
ENDBRANCH  17  18
ENDBRANCH  16  17
ENDBRANCH  14  16
ENDBRANCH   4  12
BRANCH   7  25
HETATM   25  O2  UNK     1      17.052  10.810  33.467  1.00  0.00    -0.353 OA
HETATM   26  C19 UNK     1      16.203  11.176  34.554  1.00  0.00     0.210 C 
ENDBRANCH   7  25
TORSDOF 5
ENDMDL
MODEL 7
REMARK VINA RESULT:      -8.5      4.685      9.575
REMARK  5 active torsions:
REMARK  status: ('A' for Active; 'I' for Inactive)
REMARK    1  A    between atoms: C9_15  and  O2_3 
REMARK    2  A    between atoms: C2_8  and  N1_6 
REMARK       I    between atoms: C8_14  and  N1_6 
REMARK    3  A    between atoms: C1_7  and  C2_8 
REMARK    4  A    between atoms: C1_7  and  C3_9 
REMARK    5  A    between atoms: C5_11  and  C8_14 
ROOT
HETATM    1  O1  UNK     1      18.732   0.465  31.664  1.00  0.00    -0.271 OA
HETATM    2  O4  UNK     1      18.730  -1.641  32.548  1.00  0.00    -0.259 OA
HETATM    3  C4  UNK     1      18.279   2.372  33.101  1.00  0.00     0.002 A 
HETATM    4  C5  UNK     1      18.275   0.140  34.043  1.00  0.00     0.108 A 
HETATM    5  C6  UNK     1      18.578   1.853  31.845  1.00  0.00     0.123 A 
HETATM    6  C7  UNK     1      18.127   1.458  34.223  1.00  0.00     0.037 A 
HETATM    7  C9  UNK     1      18.736   2.674  30.731  1.00  0.00     0.102 A 
HETATM    8  C10 UNK     1      18.135   3.754  33.242  1.00  0.00     0.014 A 
HETATM    9  C11 UNK     1      18.593  -0.435  32.717  1.00  0.00     0.304 A 
HETATM   10  C14 UNK     1      18.590   4.051  30.880  1.00  0.00     0.040 A 
HETATM   11  C15 UNK     1      18.291   4.591  32.134  1.00  0.00     0.004 A 
ENDROOT
BRANCH   4  12
HETATM   12  C8  UNK     1      18.102  -0.701  35.234  1.00  0.00     0.257 C 
HETATM   13  O3  UNK     1      17.158  -0.521  36.002  1.00  0.00    -0.267 OA
HETATM   14  N1  UNK     1      19.090  -1.660  35.364  1.00  0.00    -0.356 N 
HETATM   15  H5  UNK     1      19.813  -1.746  34.658  1.00  0.00     0.162 HD
BRANCH  14  16
HETATM   16  C2  UNK     1      19.133  -2.603  36.459  1.00  0.00     0.127 C 
BRANCH  16  17
HETATM   17  C1  UNK     1      20.409  -3.442  36.457  1.00  0.00     0.058 C 
BRANCH  17  18
HETATM   18  C3  UNK     1      20.233  -4.782  37.128  1.00  0.00    -0.057 A 
HETATM   19  C12 UNK     1      19.134  -5.563  36.808  1.00  0.00     0.009 A 
HETATM   20  C16 UNK     1      18.969  -6.801  37.428  1.00  0.00     0.024 A 
HETATM   21  C18 UNK     1      19.907  -7.243  38.363  1.00  0.00     0.034 A 
HETATM   22  C17 UNK     1      21.008  -6.446  38.676  1.00  0.00     0.024 A 
HETATM   23 Cl1  UNK     1      19.704  -8.771  39.128  1.00  0.00    -0.084 Cl
HETATM   24  C13 UNK     1      21.172  -5.208  38.055  1.00  0.00     0.009 A 
ENDBRANCH  17  18
ENDBRANCH  16  17
ENDBRANCH  14  16
ENDBRANCH   4  12
BRANCH   7  25
HETATM   25  O2  UNK     1      19.028   2.153  29.510  1.00  0.00    -0.353 OA
HETATM   26  C19 UNK     1      17.933   1.915  28.625  1.00  0.00     0.210 C 
ENDBRANCH   7  25
TORSDOF 5
ENDMDL
MODEL 8
REMARK VINA RESULT:      -8.3      3.986      9.234
REMARK  5 active torsions:
REMARK  status: ('A' for Active; 'I' for Inactive)
REMARK    1  A    between atoms: C9_15  and  O2_3 
REMARK    2  A    between atoms: C2_8  and  N1_6 
REMARK       I    between atoms: C8_14  and  N1_6 
REMARK    3  A    between atoms: C1_7  and  C2_8 
REMARK    4  A    between atoms: C1_7  and  C3_9 
REMARK    5  A    between atoms: C5_11  and  C8_14 
ROOT
HETATM    1  O1  UNK     1      18.857   8.322  33.137  1.00  0.00    -0.271 OA
HETATM    2  O4  UNK     1      20.129   6.545  32.471  1.00  0.00    -0.259 OA
HETATM    3  C4  UNK     1      16.591   7.947  33.931  1.00  0.00     0.002 A 
HETATM    4  C5  UNK     1      17.935   6.060  33.224  1.00  0.00     0.108 A 
HETATM    5  C6  UNK     1      17.638   8.815  33.642  1.00  0.00     0.123 A 
HETATM    6  C7  UNK     1      16.775   6.522  33.703  1.00  0.00     0.037 A 
HETATM    7  C9  UNK     1      17.527  10.190  33.838  1.00  0.00     0.102 A 
HETATM    8  C10 UNK     1      15.398   8.473  34.431  1.00  0.00     0.014 A 
HETATM    9  C11 UNK     1      19.064   6.964  32.910  1.00  0.00     0.304 A 
HETATM   10  C14 UNK     1      16.334  10.707  34.335  1.00  0.00     0.040 A 
HETATM   11  C15 UNK     1      15.271   9.850  34.633  1.00  0.00     0.004 A 
ENDROOT
BRANCH   4  12
HETATM   12  C8  UNK     1      18.024   4.607  33.028  1.00  0.00     0.257 C 
HETATM   13  O3  UNK     1      18.335   3.863  33.957  1.00  0.00    -0.267 OA
HETATM   14  N1  UNK     1      17.732   4.220  31.733  1.00  0.00    -0.356 N 
HETATM   15  H5  UNK     1      17.457   4.912  31.043  1.00  0.00     0.162 HD
BRANCH  14  16
HETATM   16  C2  UNK     1      17.756   2.842  31.299  1.00  0.00     0.127 C 
BRANCH  16  17
HETATM   17  C1  UNK     1      18.788   2.592  30.201  1.00  0.00     0.058 C 
BRANCH  17  18
HETATM   18  C3  UNK     1      19.320   1.181  30.204  1.00  0.00    -0.057 A 
HETATM   19  C12 UNK     1      19.339   0.464  31.390  1.00  0.00     0.009 A 
HETATM   20  C16 UNK     1      19.833  -0.840  31.394  1.00  0.00     0.024 A 
HETATM   21  C18 UNK     1      20.302  -1.412  30.210  1.00  0.00     0.034 A 
HETATM   22  C17 UNK     1      20.276  -0.679  29.024  1.00  0.00     0.024 A 
HETATM   23 Cl1  UNK     1      20.910  -3.022  30.215  1.00  0.00    -0.084 Cl
HETATM   24  C13 UNK     1      19.783   0.625  29.021  1.00  0.00     0.009 A 
ENDBRANCH  17  18
ENDBRANCH  16  17
ENDBRANCH  14  16
ENDBRANCH   4  12
BRANCH   7  25
HETATM   25  O2  UNK     1      18.559  11.027  33.550  1.00  0.00    -0.353 OA
HETATM   26  C19 UNK     1      18.459  12.371  34.022  1.00  0.00     0.210 C 
ENDBRANCH   7  25
TORSDOF 5
ENDMDL
MODEL 9
REMARK VINA RESULT:      -8.3      5.383      9.138
REMARK  5 active torsions:
REMARK  status: ('A' for Active; 'I' for Inactive)
REMARK    1  A    between atoms: C9_15  and  O2_3 
REMARK    2  A    between atoms: C2_8  and  N1_6 
REMARK       I    between atoms: C8_14  and  N1_6 
REMARK    3  A    between atoms: C1_7  and  C2_8 
REMARK    4  A    between atoms: C1_7  and  C3_9 
REMARK    5  A    between atoms: C5_11  and  C8_14 
ROOT
HETATM    1  O1  UNK     1      19.097  -7.151  37.702  1.00  0.00    -0.271 OA
HETATM    2  O4  UNK     1      17.805  -5.745  36.448  1.00  0.00    -0.259 OA
HETATM    3  C4  UNK     1      21.299  -6.427  38.434  1.00  0.00     0.002 A 
HETATM    4  C5  UNK     1      19.933  -4.933  37.103  1.00  0.00     0.108 A 
HETATM    5  C6  UNK     1      20.301  -7.395  38.391  1.00  0.00     0.123 A 
HETATM    6  C7  UNK     1      21.079  -5.158  37.755  1.00  0.00     0.037 A 
HETATM    7  C9  UNK     1      20.449  -8.629  39.019  1.00  0.00     0.102 A 
HETATM    8  C10 UNK     1      22.479  -6.705  39.128  1.00  0.00     0.014 A 
HETATM    9  C11 UNK     1      18.857  -5.947  37.044  1.00  0.00     0.304 A 
HETATM   10  C14 UNK     1      21.629  -8.900  39.708  1.00  0.00     0.040 A 
HETATM   11  C15 UNK     1      22.642  -7.939  39.763  1.00  0.00     0.004 A 
ENDROOT
BRANCH   4  12
HETATM   12  C8  UNK     1      19.804  -3.624  36.450  1.00  0.00     0.257 C 
HETATM   13  O3  UNK     1      19.391  -2.646  37.072  1.00  0.00    -0.267 OA
HETATM   14  N1  UNK     1      20.186  -3.646  35.121  1.00  0.00    -0.356 N 
HETATM   15  H5  UNK     1      20.542  -4.500  34.706  1.00  0.00     0.162 HD
BRANCH  14  16
HETATM   16  C2  UNK     1      20.144  -2.478  34.271  1.00  0.00     0.127 C 
BRANCH  16  17
HETATM   17  C1  UNK     1      20.575  -2.782  32.837  1.00  0.00     0.058 C 
BRANCH  17  18
HETATM   18  C3  UNK     1      20.173  -1.705  31.861  1.00  0.00    -0.057 A 
HETATM   19  C12 UNK     1      20.571  -1.805  30.537  1.00  0.00     0.009 A 
HETATM   20  C16 UNK     1      20.202  -0.808  29.634  1.00  0.00     0.024 A 
HETATM   21  C18 UNK     1      19.438   0.277  30.066  1.00  0.00     0.034 A 
HETATM   22  C17 UNK     1      19.044   0.364  31.401  1.00  0.00     0.024 A 
HETATM   23 Cl1  UNK     1      18.981   1.505  28.951  1.00  0.00    -0.084 Cl
HETATM   24  C13 UNK     1      19.414  -0.632  32.304  1.00  0.00     0.009 A 
ENDBRANCH  17  18
ENDBRANCH  16  17
ENDBRANCH  14  16
ENDBRANCH   4  12
BRANCH   7  25
HETATM   25  O2  UNK     1      19.466  -9.567  38.968  1.00  0.00    -0.353 OA
HETATM   26  C19 UNK     1      19.636 -10.639  38.041  1.00  0.00     0.210 C 
ENDBRANCH   7  25
TORSDOF 5
ENDMDL
MODEL 10
REMARK VINA RESULT:      -8.2      2.522      4.059
REMARK  5 active torsions:
REMARK  status: ('A' for Active; 'I' for Inactive)
REMARK    1  A    between atoms: C9_15  and  O2_3 
REMARK    2  A    between atoms: C2_8  and  N1_6 
REMARK       I    between atoms: C8_14  and  N1_6 
REMARK    3  A    between atoms: C1_7  and  C2_8 
REMARK    4  A    between atoms: C1_7  and  C3_9 
REMARK    5  A    between atoms: C5_11  and  C8_14 
ROOT
HETATM    1  O1  UNK     1      18.786  -1.559  34.297  1.00  0.00    -0.271 OA
HETATM    2  O4  UNK     1      19.688  -2.097  32.268  1.00  0.00    -0.259 OA
HETATM    3  C4  UNK     1      18.115   0.734  34.742  1.00  0.00     0.002 A 
HETATM    4  C5  UNK     1      19.073   0.168  32.591  1.00  0.00     0.108 A 
HETATM    5  C6  UNK     1      18.240  -0.587  35.158  1.00  0.00     0.123 A 
HETATM    6  C7  UNK     1      18.557   1.097  33.404  1.00  0.00     0.037 A 
HETATM    7  C9  UNK     1      17.837  -0.998  36.426  1.00  0.00     0.102 A 
HETATM    8  C10 UNK     1      17.569   1.670  35.624  1.00  0.00     0.014 A 
HETATM    9  C11 UNK     1      19.216  -1.243  33.010  1.00  0.00     0.304 A 
HETATM   10  C14 UNK     1      17.294  -0.059  37.300  1.00  0.00     0.040 A 
HETATM   11  C15 UNK     1      17.159   1.272  36.900  1.00  0.00     0.004 A 
ENDROOT
BRANCH   4  12
HETATM   12  C8  UNK     1      19.491   0.630  31.261  1.00  0.00     0.257 C 
HETATM   13  O3  UNK     1      20.599   0.342  30.812  1.00  0.00    -0.267 OA
HETATM   14  N1  UNK     1      18.524   1.389  30.626  1.00  0.00    -0.356 N 
HETATM   15  H5  UNK     1      17.625   1.546  31.071  1.00  0.00     0.162 HD
BRANCH  14  16
HETATM   16  C2  UNK     1      18.706   1.956  29.309  1.00  0.00     0.127 C 
BRANCH  16  17
HETATM   17  C1  UNK     1      18.125   3.363  29.193  1.00  0.00     0.058 C 
BRANCH  17  18
HETATM   18  C3  UNK     1      18.643   4.303  30.253  1.00  0.00    -0.057 A 
HETATM   19  C12 UNK     1      18.128   4.230  31.537  1.00  0.00     0.009 A 
HETATM   20  C16 UNK     1      18.605   5.100  32.517  1.00  0.00     0.024 A 
HETATM   21  C18 UNK     1      19.593   6.033  32.200  1.00  0.00     0.034 A 
HETATM   22  C17 UNK     1      20.103   6.095  30.904  1.00  0.00     0.024 A 
HETATM   23 Cl1  UNK     1      20.183   7.105  33.410  1.00  0.00    -0.084 Cl
HETATM   24  C13 UNK     1      19.625   5.225  29.924  1.00  0.00     0.009 A 
ENDBRANCH  17  18
ENDBRANCH  16  17
ENDBRANCH  14  16
ENDBRANCH   4  12
BRANCH   7  25
HETATM   25  O2  UNK     1      17.966  -2.293  36.820  1.00  0.00    -0.353 OA
HETATM   26  C19 UNK     1      19.224  -2.685  37.367  1.00  0.00     0.210 C 
ENDBRANCH   7  25
TORSDOF 5
ENDMDL
