MODEL 1
REMARK VINA RESULT:      -9.0      0.000      0.000
REMARK  2 active torsions:
REMARK  status: ('A' for Active; 'I' for Inactive)
REMARK    1  A    between atoms: C15_20  and  O4_4 
REMARK    2  A    between atoms: C1_6  and  C3_8 
ROOT
HETATM    1  O2  UNK     1      18.287   1.446  33.014  1.00  0.00    -0.275 OA
HETATM    2  O5  UNK     1      18.075   1.449  35.289  1.00  0.00    -0.260 OA
HETATM    3  C1  UNK     1      18.268   4.294  33.115  1.00  0.00    -0.001 A 
HETATM    4  C2  UNK     1      18.403   3.580  31.829  1.00  0.00     0.009 A 
HETATM    5  C4  UNK     1      18.406   2.185  31.821  1.00  0.00     0.093 A 
HETATM    6  C8  UNK     1      18.163   3.550  34.229  1.00  0.00     0.096 A 
HETATM    7  C9  UNK     1      18.537   4.231  30.593  1.00  0.00     0.018 A 
HETATM    8  C11 UNK     1      18.530   1.442  30.645  1.00  0.00     0.074 A 
HETATM    9  C13 UNK     1      18.662   3.501  29.406  1.00  0.00     0.037 A 
HETATM   10  C14 UNK     1      18.171   2.077  34.240  1.00  0.00     0.289 A 
HETATM   11  C15 UNK     1      18.658   2.107  29.431  1.00  0.00     0.068 A 
ENDROOT
BRANCH   3  12
HETATM   12  C3  UNK     1      18.235   5.736  33.257  1.00  0.00     0.052 A 
HETATM   13  C10 UNK     1      17.008   6.474  32.849  1.00  0.00     0.299 A 
HETATM   14  O1  UNK     1      17.023   7.859  33.003  1.00  0.00    -0.274 OA
HETATM   15  O3  UNK     1      16.019   5.904  32.398  1.00  0.00    -0.259 OA
HETATM   16  C7  UNK     1      18.140   8.543  33.518  1.00  0.00     0.089 A 
HETATM   17  C16 UNK     1      18.057   9.929  33.633  1.00  0.00     0.038 A 
HETATM   18  C5  UNK     1      19.279   7.843  33.895  1.00  0.00    -0.001 A 
HETATM   19  C18 UNK     1      19.149  10.630  34.140  1.00  0.00     0.003 A 
HETATM   20  C17 UNK     1      20.302   9.944  34.526  1.00  0.00     0.001 A 
HETATM   21  C12 UNK     1      20.369   8.554  34.404  1.00  0.00     0.014 A 
HETATM   22  C6  UNK     1      19.294   6.397  33.747  1.00  0.00     0.032 A 
ENDBRANCH   3  12
BRANCH  11  23
HETATM   23  O4  UNK     1      18.780   1.403  28.274  1.00  0.00    -0.361 OA
HETATM   24  H10 UNK     1      19.600   1.674  27.825  1.00  0.00     0.217 HD
ENDBRANCH  11  23
TORSDOF 2
ENDMDL
MODEL 2
REMARK VINA RESULT:      -8.8      0.941      3.151
REMARK  2 active torsions:
REMARK  status: ('A' for Active; 'I' for Inactive)
REMARK    1  A    between atoms: C15_20  and  O4_4 
REMARK    2  A    between atoms: C1_6  and  C3_8 
ROOT
HETATM    1  O2  UNK     1      18.359   1.583  31.389  1.00  0.00    -0.275 OA
HETATM    2  O5  UNK     1      18.314   2.425  29.266  1.00  0.00    -0.260 OA
HETATM    3  C1  UNK     1      18.291   4.268  32.342  1.00  0.00    -0.001 A 
HETATM    4  C2  UNK     1      18.321   3.128  33.282  1.00  0.00     0.009 A 
HETATM    5  C4  UNK     1      18.356   1.829  32.775  1.00  0.00     0.093 A 
HETATM    6  C8  UNK     1      18.290   3.988  31.028  1.00  0.00     0.096 A 
HETATM    7  C9  UNK     1      18.310   3.275  34.677  1.00  0.00     0.018 A 
HETATM    8  C11 UNK     1      18.386   0.703  33.601  1.00  0.00     0.074 A 
HETATM    9  C13 UNK     1      18.339   2.157  35.518  1.00  0.00     0.037 A 
HETATM   10  C14 UNK     1      18.319   2.622  30.476  1.00  0.00     0.289 A 
HETATM   11  C15 UNK     1      18.378   0.871  34.982  1.00  0.00     0.068 A 
ENDROOT
BRANCH   3  12
HETATM   12  C3  UNK     1      18.270   5.661  32.739  1.00  0.00     0.052 A 
HETATM   13  C10 UNK     1      16.994   6.422  32.638  1.00  0.00     0.299 A 
HETATM   14  O1  UNK     1      17.022   7.759  33.030  1.00  0.00    -0.274 OA
HETATM   15  O3  UNK     1      15.955   5.909  32.232  1.00  0.00    -0.259 OA
HETATM   16  C7  UNK     1      18.195   8.376  33.501  1.00  0.00     0.089 A 
HETATM   17  C16 UNK     1      18.121   9.717  33.869  1.00  0.00     0.038 A 
HETATM   18  C5  UNK     1      19.380   7.656  33.591  1.00  0.00    -0.001 A 
HETATM   19  C18 UNK     1      19.269  10.352  34.339  1.00  0.00     0.003 A 
HETATM   20  C17 UNK     1      20.469   9.645  34.437  1.00  0.00     0.001 A 
HETATM   21  C12 UNK     1      20.526   8.300  34.064  1.00  0.00     0.014 A 
HETATM   22  C6  UNK     1      19.383   6.259  33.190  1.00  0.00     0.032 A 
ENDBRANCH   3  12
BRANCH  11  23
HETATM   23  O4  UNK     1      18.406  -0.211  35.804  1.00  0.00    -0.361 OA
HETATM   24  H10 UNK     1      18.936  -0.912  35.385  1.00  0.00     0.217 HD
ENDBRANCH  11  23
TORSDOF 2
ENDMDL
MODEL 3
REMARK VINA RESULT:      -8.7      2.197      6.765
REMARK  2 active torsions:
REMARK  status: ('A' for Active; 'I' for Inactive)
REMARK    1  A    between atoms: C15_20  and  O4_4 
REMARK    2  A    between atoms: C1_6  and  C3_8 
ROOT
HETATM    1  O2  UNK     1      18.031   9.236  34.058  1.00  0.00    -0.275 OA
HETATM    2  O5  UNK     1      20.243   9.061  34.601  1.00  0.00    -0.260 OA
HETATM    3  C1  UNK     1      18.265   6.721  32.738  1.00  0.00    -0.001 A 
HETATM    4  C2  UNK     1      16.976   7.442  32.778  1.00  0.00     0.009 A 
HETATM    5  C4  UNK     1      16.903   8.672  33.432  1.00  0.00     0.093 A 
HETATM    6  C8  UNK     1      19.314   7.293  33.353  1.00  0.00     0.096 A 
HETATM    7  C9  UNK     1      15.798   6.954  32.192  1.00  0.00     0.018 A 
HETATM    8  C11 UNK     1      15.720   9.411  33.510  1.00  0.00     0.074 A 
HETATM    9  C13 UNK     1      14.605   7.682  32.262  1.00  0.00     0.037 A 
HETATM   10  C14 UNK     1      19.253   8.587  34.054  1.00  0.00     0.289 A 
HETATM   11  C15 UNK     1      14.565   8.910  32.919  1.00  0.00     0.068 A 
ENDROOT
BRANCH   3  12
HETATM   12  C3  UNK     1      18.476   5.448  32.080  1.00  0.00     0.052 A 
HETATM   13  C10 UNK     1      18.840   5.432  30.636  1.00  0.00     0.299 A 
HETATM   14  O1  UNK     1      19.032   4.184  30.047  1.00  0.00    -0.274 OA
HETATM   15  O3  UNK     1      18.970   6.462  29.982  1.00  0.00    -0.259 OA
HETATM   16  C7  UNK     1      18.891   2.985  30.769  1.00  0.00     0.089 A 
HETATM   17  C16 UNK     1      19.104   1.788  30.089  1.00  0.00     0.038 A 
HETATM   18  C5  UNK     1      18.551   3.012  32.115  1.00  0.00    -0.001 A 
HETATM   19  C18 UNK     1      18.971   0.586  30.781  1.00  0.00     0.003 A 
HETATM   20  C17 UNK     1      18.631   0.593  32.136  1.00  0.00     0.001 A 
HETATM   21  C12 UNK     1      18.421   1.803  32.803  1.00  0.00     0.014 A 
HETATM   22  C6  UNK     1      18.344   4.298  32.760  1.00  0.00     0.032 A 
ENDBRANCH   3  12
BRANCH  11  23
HETATM   23  O4  UNK     1      13.403   9.613  32.984  1.00  0.00    -0.361 OA
HETATM   24  H10 UNK     1      13.575  10.467  33.418  1.00  0.00     0.217 HD
ENDBRANCH  11  23
TORSDOF 2
ENDMDL
MODEL 4
REMARK VINA RESULT:      -8.7     22.756     25.280
REMARK  2 active torsions:
REMARK  status: ('A' for Active; 'I' for Inactive)
REMARK    1  A    between atoms: C15_20  and  O4_4 
REMARK    2  A    between atoms: C1_6  and  C3_8 
ROOT
HETATM    1  O2  UNK     1      17.756   8.985   9.842  1.00  0.00    -0.275 OA
HETATM    2  O5  UNK     1      17.950   6.923  10.806  1.00  0.00    -0.260 OA
HETATM    3  C1  UNK     1      15.048   8.333   9.242  1.00  0.00    -0.001 A 
HETATM    4  C2  UNK     1      15.614   9.645   8.868  1.00  0.00     0.009 A 
HETATM    5  C4  UNK     1      16.946   9.925   9.177  1.00  0.00     0.093 A 
HETATM    6  C8  UNK     1      15.855   7.468   9.879  1.00  0.00     0.096 A 
HETATM    7  C9  UNK     1      14.881  10.647   8.214  1.00  0.00     0.018 A 
HETATM    8  C11 UNK     1      17.550  11.142   8.855  1.00  0.00     0.074 A 
HETATM    9  C13 UNK     1      15.472  11.872   7.884  1.00  0.00     0.037 A 
HETATM   10  C14 UNK     1      17.260   7.750  10.220  1.00  0.00     0.289 A 
HETATM   11  C15 UNK     1      16.806  12.120   8.204  1.00  0.00     0.068 A 
ENDROOT
BRANCH   3  12
HETATM   12  C3  UNK     1      13.689   7.914   8.964  1.00  0.00     0.052 A 
HETATM   13  C10 UNK     1      12.668   8.008  10.044  1.00  0.00     0.299 A 
HETATM   14  O1  UNK     1      11.376   7.593   9.729  1.00  0.00    -0.274 OA
HETATM   15  O3  UNK     1      12.937   8.430  11.164  1.00  0.00    -0.259 OA
HETATM   16  C7  UNK     1      11.035   7.104   8.455  1.00  0.00     0.089 A 
HETATM   17  C16 UNK     1       9.715   6.714   8.240  1.00  0.00     0.038 A 
HETATM   18  C5  UNK     1      11.995   7.022   7.455  1.00  0.00    -0.001 A 
HETATM   19  C18 UNK     1       9.352   6.227   6.986  1.00  0.00     0.003 A 
HETATM   20  C17 UNK     1      10.303   6.138   5.968  1.00  0.00     0.001 A 
HETATM   21  C12 UNK     1      11.623   6.533   6.200  1.00  0.00     0.014 A 
HETATM   22  C6  UNK     1      13.354   7.447   7.751  1.00  0.00     0.032 A 
ENDBRANCH   3  12
BRANCH  11  23
HETATM   23  O4  UNK     1      17.374  13.312   7.882  1.00  0.00    -0.361 OA
HETATM   24  H10 UNK     1      17.813  13.228   7.017  1.00  0.00     0.217 HD
ENDBRANCH  11  23
TORSDOF 2
ENDMDL
MODEL 5
REMARK VINA RESULT:      -8.6      7.508     11.982
REMARK  2 active torsions:
REMARK  status: ('A' for Active; 'I' for Inactive)
REMARK    1  A    between atoms: C15_20  and  O4_4 
REMARK    2  A    between atoms: C1_6  and  C3_8 
ROOT
HETATM    1  O2  UNK     1      19.478  -1.124  34.442  1.00  0.00    -0.275 OA
HETATM    2  O5  UNK     1      20.610  -2.252  32.809  1.00  0.00    -0.260 OA
HETATM    3  C1  UNK     1      19.855  -3.393  36.124  1.00  0.00    -0.001 A 
HETATM    4  C2  UNK     1      19.144  -2.195  36.613  1.00  0.00     0.009 A 
HETATM    5  C4  UNK     1      18.977  -1.105  35.758  1.00  0.00     0.093 A 
HETATM    6  C8  UNK     1      20.321  -3.366  34.864  1.00  0.00     0.096 A 
HETATM    7  C9  UNK     1      18.620  -2.081  37.910  1.00  0.00     0.018 A 
HETATM    8  C11 UNK     1      18.316   0.061  36.149  1.00  0.00     0.074 A 
HETATM    9  C13 UNK     1      17.955  -0.919  38.317  1.00  0.00     0.037 A 
HETATM   10  C14 UNK     1      20.161  -2.223  33.950  1.00  0.00     0.289 A 
HETATM   11  C15 UNK     1      17.802   0.151  37.438  1.00  0.00     0.068 A 
ENDROOT
BRANCH   3  12
HETATM   12  C3  UNK     1      20.079  -4.593  36.904  1.00  0.00     0.052 A 
HETATM   13  C10 UNK     1      18.994  -5.609  36.997  1.00  0.00     0.299 A 
HETATM   14  O1  UNK     1      19.255  -6.745  37.760  1.00  0.00    -0.274 OA
HETATM   15  O3  UNK     1      17.913  -5.466  36.433  1.00  0.00    -0.259 OA
HETATM   16  C7  UNK     1      20.483  -6.939  38.418  1.00  0.00     0.089 A 
HETATM   17  C16 UNK     1      20.648  -8.109  39.156  1.00  0.00     0.038 A 
HETATM   18  C5  UNK     1      21.488  -5.985  38.324  1.00  0.00    -0.001 A 
HETATM   19  C18 UNK     1      21.855  -8.326  39.817  1.00  0.00     0.003 A 
HETATM   20  C17 UNK     1      22.877  -7.378  39.734  1.00  0.00     0.001 A 
HETATM   21  C12 UNK     1      22.696  -6.210  38.989  1.00  0.00     0.014 A 
HETATM   22  C6  UNK     1      21.247  -4.788  37.536  1.00  0.00     0.032 A 
ENDBRANCH   3  12
BRANCH  11  23
HETATM   23  O4  UNK     1      17.155   1.278  37.840  1.00  0.00    -0.361 OA
HETATM   24  H10 UNK     1      17.801   2.002  37.916  1.00  0.00     0.217 HD
ENDBRANCH  11  23
TORSDOF 2
ENDMDL
MODEL 6
REMARK VINA RESULT:      -8.6      1.572      3.731
REMARK  2 active torsions:
REMARK  status: ('A' for Active; 'I' for Inactive)
REMARK    1  A    between atoms: C15_20  and  O4_4 
REMARK    2  A    between atoms: C1_6  and  C3_8 
ROOT
HETATM    1  O2  UNK     1      18.430   1.600  31.324  1.00  0.00    -0.275 OA
HETATM    2  O5  UNK     1      18.362   2.452  29.205  1.00  0.00    -0.260 OA
HETATM    3  C1  UNK     1      18.248   4.274  32.292  1.00  0.00    -0.001 A 
HETATM    4  C2  UNK     1      18.318   3.131  33.225  1.00  0.00     0.009 A 
HETATM    5  C4  UNK     1      18.409   1.837  32.712  1.00  0.00     0.093 A 
HETATM    6  C8  UNK     1      18.265   4.002  30.976  1.00  0.00     0.096 A 
HETATM    7  C9  UNK     1      18.294   3.269  34.621  1.00  0.00     0.018 A 
HETATM    8  C11 UNK     1      18.480   0.709  33.532  1.00  0.00     0.074 A 
HETATM    9  C13 UNK     1      18.364   2.149  35.456  1.00  0.00     0.037 A 
HETATM   10  C14 UNK     1      18.353   2.642  30.417  1.00  0.00     0.289 A 
HETATM   11  C15 UNK     1      18.457   0.869  34.913  1.00  0.00     0.068 A 
ENDROOT
BRANCH   3  12
HETATM   12  C3  UNK     1      18.168   5.663  32.696  1.00  0.00     0.052 A 
HETATM   13  C10 UNK     1      19.425   6.447  32.845  1.00  0.00     0.299 A 
HETATM   14  O1  UNK     1      19.298   7.778  33.236  1.00  0.00    -0.274 OA
HETATM   15  O3  UNK     1      20.531   5.957  32.634  1.00  0.00    -0.259 OA
HETATM   16  C7  UNK     1      18.046   8.369  33.483  1.00  0.00     0.089 A 
HETATM   17  C16 UNK     1      18.023   9.707  33.870  1.00  0.00     0.038 A 
HETATM   18  C5  UNK     1      16.879   7.629  33.341  1.00  0.00    -0.001 A 
HETATM   19  C18 UNK     1      16.796  10.317  34.121  1.00  0.00     0.003 A 
HETATM   20  C17 UNK     1      15.613   9.589  33.983  1.00  0.00     0.001 A 
HETATM   21  C12 UNK     1      15.652   8.247  33.594  1.00  0.00     0.014 A 
HETATM   22  C6  UNK     1      16.978   6.236  32.934  1.00  0.00     0.032 A 
ENDBRANCH   3  12
BRANCH  11  23
HETATM   23  O4  UNK     1      18.524  -0.216  35.730  1.00  0.00    -0.361 OA
HETATM   24  H10 UNK     1      18.000  -0.937  35.339  1.00  0.00     0.217 HD
ENDBRANCH  11  23
TORSDOF 2
ENDMDL
MODEL 7
REMARK VINA RESULT:      -8.4      1.869      6.867
REMARK  2 active torsions:
REMARK  status: ('A' for Active; 'I' for Inactive)
REMARK    1  A    between atoms: C15_20  and  O4_4 
REMARK    2  A    between atoms: C1_6  and  C3_8 
ROOT
HETATM    1  O2  UNK     1      16.470   8.730  33.292  1.00  0.00    -0.275 OA
HETATM    2  O5  UNK     1      14.434   8.021  32.536  1.00  0.00    -0.260 OA
HETATM    3  C1  UNK     1      17.539   6.231  32.437  1.00  0.00    -0.001 A 
HETATM    4  C2  UNK     1      18.404   7.255  33.059  1.00  0.00     0.009 A 
HETATM    5  C4  UNK     1      17.842   8.465  33.466  1.00  0.00     0.093 A 
HETATM    6  C8  UNK     1      16.238   6.528  32.285  1.00  0.00     0.096 A 
HETATM    7  C9  UNK     1      19.782   7.084  33.263  1.00  0.00     0.018 A 
HETATM    8  C11 UNK     1      18.595   9.479  34.061  1.00  0.00     0.074 A 
HETATM    9  C13 UNK     1      20.551   8.091  33.858  1.00  0.00     0.037 A 
HETATM   10  C14 UNK     1      15.629   7.802  32.702  1.00  0.00     0.289 A 
HETATM   11  C15 UNK     1      19.959   9.288  34.257  1.00  0.00     0.068 A 
ENDROOT
BRANCH   3  12
HETATM   12  C3  UNK     1      17.996   4.932  31.987  1.00  0.00     0.052 A 
HETATM   13  C10 UNK     1      18.557   4.797  30.614  1.00  0.00     0.299 A 
HETATM   14  O1  UNK     1      18.982   3.528  30.226  1.00  0.00    -0.274 OA
HETATM   15  O3  UNK     1      18.649   5.751  29.848  1.00  0.00    -0.259 OA
HETATM   16  C7  UNK     1      18.891   2.415  31.081  1.00  0.00     0.089 A 
HETATM   17  C16 UNK     1      19.343   1.188  30.600  1.00  0.00     0.038 A 
HETATM   18  C5  UNK     1      18.366   2.552  32.359  1.00  0.00    -0.001 A 
HETATM   19  C18 UNK     1      19.264   0.069  31.427  1.00  0.00     0.003 A 
HETATM   20  C17 UNK     1      18.741   0.187  32.715  1.00  0.00     0.001 A 
HETATM   21  C12 UNK     1      18.292   1.425  33.183  1.00  0.00     0.014 A 
HETATM   22  C6  UNK     1      17.914   3.863  32.795  1.00  0.00     0.032 A 
ENDBRANCH   3  12
BRANCH  11  23
HETATM   23  O4  UNK     1      20.711  10.262  34.834  1.00  0.00    -0.361 OA
HETATM   24  H10 UNK     1      21.147   9.897  35.624  1.00  0.00     0.217 HD
ENDBRANCH  11  23
TORSDOF 2
ENDMDL
MODEL 8
REMARK VINA RESULT:      -8.4     12.937     18.126
REMARK  2 active torsions:
REMARK  status: ('A' for Active; 'I' for Inactive)
REMARK    1  A    between atoms: C15_20  and  O4_4 
REMARK    2  A    between atoms: C1_6  and  C3_8 
ROOT
HETATM    1  O2  UNK     1      19.301   2.578  17.538  1.00  0.00    -0.275 OA
HETATM    2  O5  UNK     1      19.275   3.001  15.293  1.00  0.00    -0.260 OA
HETATM    3  C1  UNK     1      19.048  -0.191  16.911  1.00  0.00    -0.001 A 
HETATM    4  C2  UNK     1      19.139   0.266  18.313  1.00  0.00     0.009 A 
HETATM    5  C4  UNK     1      19.259   1.631  18.578  1.00  0.00     0.093 A 
HETATM    6  C8  UNK     1      19.098   0.746  15.950  1.00  0.00     0.096 A 
HETATM    7  C9  UNK     1      19.116  -0.604  19.414  1.00  0.00     0.018 A 
HETATM    8  C11 UNK     1      19.349   2.137  19.877  1.00  0.00     0.074 A 
HETATM    9  C13 UNK     1      19.205  -0.113  20.721  1.00  0.00     0.037 A 
HETATM   10  C14 UNK     1      19.232   2.190  16.211  1.00  0.00     0.289 A 
HETATM   11  C15 UNK     1      19.321   1.257  20.954  1.00  0.00     0.068 A 
ENDROOT
BRANCH   3  12
HETATM   12  C3  UNK     1      18.905  -1.574  16.504  1.00  0.00     0.052 A 
HETATM   13  C10 UNK     1      17.563  -2.214  16.580  1.00  0.00     0.299 A 
HETATM   14  O1  UNK     1      17.474  -3.546  16.178  1.00  0.00    -0.274 OA
HETATM   15  O3  UNK     1      16.570  -1.611  16.975  1.00  0.00    -0.259 OA
HETATM   16  C7  UNK     1      18.593  -4.265  15.720  1.00  0.00     0.089 A 
HETATM   17  C16 UNK     1      18.401  -5.592  15.341  1.00  0.00     0.038 A 
HETATM   18  C5  UNK     1      19.840  -3.658  15.653  1.00  0.00    -0.001 A 
HETATM   19  C18 UNK     1      19.493  -6.328  14.884  1.00  0.00     0.003 A 
HETATM   20  C17 UNK     1      20.754  -5.733  14.808  1.00  0.00     0.001 A 
HETATM   21  C12 UNK     1      20.929  -4.401  15.192  1.00  0.00     0.014 A 
HETATM   22  C6  UNK     1      19.965  -2.269  16.065  1.00  0.00     0.032 A 
ENDBRANCH   3  12
BRANCH  11  23
HETATM   23  O4  UNK     1      19.408   1.728  22.226  1.00  0.00    -0.361 OA
HETATM   24  H10 UNK     1      19.117   1.031  22.840  1.00  0.00     0.217 HD
ENDBRANCH  11  23
TORSDOF 2
ENDMDL
MODEL 9
REMARK VINA RESULT:      -8.3     16.392     18.491
REMARK  2 active torsions:
REMARK  status: ('A' for Active; 'I' for Inactive)
REMARK    1  A    between atoms: C15_20  and  O4_4 
REMARK    2  A    between atoms: C1_6  and  C3_8 
ROOT
HETATM    1  O2  UNK     1      28.564  -5.550  39.695  1.00  0.00    -0.275 OA
HETATM    2  O5  UNK     1      29.411  -3.438  39.907  1.00  0.00    -0.260 OA
HETATM    3  C1  UNK     1      30.472  -5.993  37.626  1.00  0.00    -0.001 A 
HETATM    4  C2  UNK     1      29.533  -7.058  38.035  1.00  0.00     0.009 A 
HETATM    5  C4  UNK     1      28.612  -6.800  39.051  1.00  0.00     0.093 A 
HETATM    6  C8  UNK     1      30.395  -4.818  38.271  1.00  0.00     0.096 A 
HETATM    7  C9  UNK     1      29.513  -8.337  37.458  1.00  0.00     0.018 A 
HETATM    8  C11 UNK     1      27.693  -7.756  39.490  1.00  0.00     0.074 A 
HETATM    9  C13 UNK     1      28.599  -9.306  37.887  1.00  0.00     0.037 A 
HETATM   10  C14 UNK     1      29.434  -4.531  39.350  1.00  0.00     0.289 A 
HETATM   11  C15 UNK     1      27.689  -9.017  38.902  1.00  0.00     0.068 A 
ENDROOT
BRANCH   3  12
HETATM   12  C3  UNK     1      31.462  -6.128  36.577  1.00  0.00     0.052 A 
HETATM   13  C10 UNK     1      31.019  -6.099  35.156  1.00  0.00     0.299 A 
HETATM   14  O1  UNK     1      32.007  -6.233  34.182  1.00  0.00    -0.274 OA
HETATM   15  O3  UNK     1      29.841  -5.962  34.839  1.00  0.00    -0.259 OA
HETATM   16  C7  UNK     1      33.365  -6.390  34.512  1.00  0.00     0.089 A 
HETATM   17  C16 UNK     1      34.277  -6.516  33.466  1.00  0.00     0.038 A 
HETATM   18  C5  UNK     1      33.767  -6.416  35.841  1.00  0.00    -0.001 A 
HETATM   19  C18 UNK     1      35.629  -6.672  33.764  1.00  0.00     0.003 A 
HETATM   20  C17 UNK     1      36.052  -6.700  35.095  1.00  0.00     0.001 A 
HETATM   21  C12 UNK     1      35.125  -6.572  36.132  1.00  0.00     0.014 A 
HETATM   22  C6  UNK     1      32.760  -6.278  36.880  1.00  0.00     0.032 A 
ENDBRANCH   3  12
BRANCH  11  23
HETATM   23  O4  UNK     1      26.804  -9.962  39.315  1.00  0.00    -0.361 OA
HETATM   24  H10 UNK     1      25.970  -9.526  39.564  1.00  0.00     0.217 HD
ENDBRANCH  11  23
TORSDOF 2
ENDMDL
MODEL 10
REMARK VINA RESULT:      -8.2     22.900     25.265
REMARK  2 active torsions:
REMARK  status: ('A' for Active; 'I' for Inactive)
REMARK    1  A    between atoms: C15_20  and  O4_4 
REMARK    2  A    between atoms: C1_6  and  C3_8 
ROOT
HETATM    1  O2  UNK     1      16.454   5.981  10.055  1.00  0.00    -0.275 OA
HETATM    2  O5  UNK     1      16.098   3.731   9.886  1.00  0.00    -0.260 OA
HETATM    3  C1  UNK     1      13.881   6.368   8.894  1.00  0.00    -0.001 A 
HETATM    4  C2  UNK     1      14.717   7.520   9.290  1.00  0.00     0.009 A 
HETATM    5  C4  UNK     1      15.972   7.289   9.853  1.00  0.00     0.093 A 
HETATM    6  C8  UNK     1      14.377   5.139   9.110  1.00  0.00     0.096 A 
HETATM    7  C9  UNK     1      14.317   8.856   9.136  1.00  0.00     0.018 A 
HETATM    8  C11 UNK     1      16.818   8.326  10.250  1.00  0.00     0.074 A 
HETATM    9  C13 UNK     1      15.152   9.907   9.530  1.00  0.00     0.037 A 
HETATM   10  C14 UNK     1      15.697   4.876   9.709  1.00  0.00     0.289 A 
HETATM   11  C15 UNK     1      16.403   9.643  10.086  1.00  0.00     0.068 A 
ENDROOT
BRANCH   3  12
HETATM   12  C3  UNK     1      12.570   6.473   8.286  1.00  0.00     0.052 A 
HETATM   13  C10 UNK     1      12.467   6.595   6.806  1.00  0.00     0.299 A 
HETATM   14  O1  UNK     1      11.185   6.694   6.267  1.00  0.00    -0.274 OA
HETATM   15  O3  UNK     1      13.455   6.608   6.079  1.00  0.00    -0.259 OA
HETATM   16  C7  UNK     1      10.032   6.682   7.072  1.00  0.00     0.089 A 
HETATM   17  C16 UNK     1       8.796   6.786   6.439  1.00  0.00     0.038 A 
HETATM   18  C5  UNK     1      10.140   6.567   8.452  1.00  0.00    -0.001 A 
HETATM   19  C18 UNK     1       7.637   6.776   7.213  1.00  0.00     0.003 A 
HETATM   20  C17 UNK     1       7.726   6.661   8.602  1.00  0.00     0.001 A 
HETATM   21  C12 UNK     1       8.974   6.557   9.222  1.00  0.00     0.014 A 
HETATM   22  C6  UNK     1      11.463   6.462   9.045  1.00  0.00     0.032 A 
ENDBRANCH   3  12
BRANCH  11  23
HETATM   23  O4  UNK     1      17.211  10.669  10.467  1.00  0.00    -0.361 OA
HETATM   24  H10 UNK     1      17.511  11.145   9.673  1.00  0.00     0.217 HD
ENDBRANCH  11  23
TORSDOF 2
ENDMDL
