MODEL 1
REMARK VINA RESULT:      -8.6      0.000      0.000
REMARK  6 active torsions:
REMARK  status: ('A' for Active; 'I' for Inactive)
REMARK    1  A    between atoms: C2_9  and  O2_2 
REMARK    2  A    between atoms: C7_14  and  O4_4 
REMARK    3  A    between atoms: C12_19  and  O5_5 
REMARK    4  A    between atoms: C13_20  and  O6_6 
REMARK    5  A    between atoms: C15_22  and  O7_7 
REMARK    6  A    between atoms: C1_8  and  C3_10 
ROOT
HETATM    1  O1  UNK     1      19.193  -0.508  34.088  1.00  0.00    -0.337 OA
HETATM    2  O3  UNK     1      20.426  -3.952  35.951  1.00  0.00    -0.289 OA
HETATM    3  C1  UNK     1      19.345  -1.719  33.332  1.00  0.00     0.198 C 
HETATM    4  C2  UNK     1      20.412  -2.630  33.946  1.00  0.00     0.227 C 
HETATM    5  C4  UNK     1      20.050  -2.935  35.380  1.00  0.00     0.196 C 
HETATM    6  C5  UNK     1      19.269  -1.899  36.089  1.00  0.00     0.079 A 
HETATM    7  C6  UNK     1      18.902  -0.734  35.409  1.00  0.00     0.089 A 
HETATM    8  C7  UNK     1      18.940  -2.061  37.437  1.00  0.00     0.085 A 
HETATM    9  C10 UNK     1      18.232   0.285  36.087  1.00  0.00     0.074 A 
HETATM   10  C11 UNK     1      18.252  -1.047  38.105  1.00  0.00     0.074 A 
HETATM   11  C12 UNK     1      17.903   0.125  37.433  1.00  0.00     0.071 A 
ENDROOT
BRANCH   3  12
HETATM   12  C3  UNK     1      19.655  -1.386  31.885  1.00  0.00    -0.023 A 
HETATM   13  C8  UNK     1      19.480  -0.084  31.417  1.00  0.00     0.049 A 
HETATM   14  C13 UNK     1      19.763   0.221  30.086  1.00  0.00     0.099 A 
HETATM   15  C15 UNK     1      20.221  -0.775  29.224  1.00  0.00     0.098 A 
HETATM   16  C14 UNK     1      20.396  -2.077  29.693  1.00  0.00     0.040 A 
HETATM   17  C9  UNK     1      20.113  -2.383  31.024  1.00  0.00     0.013 A 
BRANCH  14  18
HETATM   18  O6  UNK     1      19.590   1.498  29.641  1.00  0.00    -0.358 OA
HETATM   19  H11 UNK     1      20.321   1.710  29.034  1.00  0.00     0.217 HD
ENDBRANCH  14  18
BRANCH  15  20
HETATM   20  O7  UNK     1      20.502  -0.489  27.922  1.00  0.00    -0.358 OA
HETATM   21  H12 UNK     1      20.159   0.397  27.712  1.00  0.00     0.217 HD
ENDBRANCH  15  20
ENDBRANCH   3  12
BRANCH   4  22
HETATM   22  O2  UNK     1      21.694  -2.022  33.974  1.00  0.00    -0.385 OA
HETATM   23  H6  UNK     1      21.791  -1.559  34.822  1.00  0.00     0.210 HD
ENDBRANCH   4  22
BRANCH  11  24
HETATM   24  O5  UNK     1      17.240   1.114  38.092  1.00  0.00    -0.361 OA
HETATM   25  H10 UNK     1      17.569   1.976  37.783  1.00  0.00     0.217 HD
ENDBRANCH  11  24
BRANCH   8  26
HETATM   26  O4  UNK     1      19.268  -3.176  38.146  1.00  0.00    -0.360 OA
HETATM   27  H9  UNK     1      18.517  -3.789  38.184  1.00  0.00     0.217 HD
ENDBRANCH   8  26
TORSDOF 6
ENDMDL
MODEL 2
REMARK VINA RESULT:      -8.5     13.765     18.826
REMARK  6 active torsions:
REMARK  status: ('A' for Active; 'I' for Inactive)
REMARK    1  A    between atoms: C2_9  and  O2_2 
REMARK    2  A    between atoms: C7_14  and  O4_4 
REMARK    3  A    between atoms: C12_19  and  O5_5 
REMARK    4  A    between atoms: C13_20  and  O6_6 
REMARK    5  A    between atoms: C15_22  and  O7_7 
REMARK    6  A    between atoms: C1_8  and  C3_10 
ROOT
HETATM    1  O1  UNK     1      19.057  -0.609  15.453  1.00  0.00    -0.337 OA
HETATM    2  O3  UNK     1      17.575  -4.426  15.740  1.00  0.00    -0.289 OA
HETATM    3  C1  UNK     1      19.098  -1.305  16.709  1.00  0.00     0.198 C 
HETATM    4  C2  UNK     1      17.957  -2.318  16.824  1.00  0.00     0.227 C 
HETATM    5  C4  UNK     1      18.028  -3.290  15.671  1.00  0.00     0.196 C 
HETATM    6  C5  UNK     1      18.616  -2.772  14.417  1.00  0.00     0.079 A 
HETATM    7  C6  UNK     1      19.080  -1.454  14.373  1.00  0.00     0.089 A 
HETATM    8  C7  UNK     1      18.669  -3.577  13.276  1.00  0.00     0.085 A 
HETATM    9  C10 UNK     1      19.565  -0.928  13.176  1.00  0.00     0.074 A 
HETATM   10  C11 UNK     1      19.176  -3.051  12.086  1.00  0.00     0.074 A 
HETATM   11  C12 UNK     1      19.618  -1.729  12.035  1.00  0.00     0.071 A 
ENDROOT
BRANCH   3  12
HETATM   12  C3  UNK     1      19.080  -0.305  17.850  1.00  0.00    -0.023 A 
HETATM   13  C8  UNK     1      19.192  -0.749  19.167  1.00  0.00     0.049 A 
HETATM   14  C13 UNK     1      19.174   0.170  20.216  1.00  0.00     0.099 A 
HETATM   15  C15 UNK     1      19.045   1.532  19.947  1.00  0.00     0.098 A 
HETATM   16  C14 UNK     1      18.934   1.976  18.629  1.00  0.00     0.040 A 
HETATM   17  C9  UNK     1      18.952   1.057  17.580  1.00  0.00     0.013 A 
BRANCH  14  18
HETATM   18  O6  UNK     1      19.286  -0.276  21.499  1.00  0.00    -0.358 OA
HETATM   19  H11 UNK     1      20.156  -0.701  21.599  1.00  0.00     0.217 HD
ENDBRANCH  14  18
BRANCH  15  20
HETATM   20  O7  UNK     1      19.027   2.440  20.963  1.00  0.00    -0.358 OA
HETATM   21  H12 UNK     1      18.352   2.177  21.611  1.00  0.00     0.217 HD
ENDBRANCH  15  20
ENDBRANCH   3  12
BRANCH   4  22
HETATM   22  O2  UNK     1      16.678  -1.706  16.757  1.00  0.00    -0.385 OA
HETATM   23  H6  UNK     1      16.448  -1.586  15.822  1.00  0.00     0.210 HD
ENDBRANCH   4  22
BRANCH  11  24
HETATM   24  O5  UNK     1      20.103  -1.220  10.870  1.00  0.00    -0.361 OA
HETATM   25  H10 UNK     1      20.710  -1.867  10.470  1.00  0.00     0.217 HD
ENDBRANCH  11  24
BRANCH   8  26
HETATM   26  O4  UNK     1      18.237  -4.867  13.265  1.00  0.00    -0.360 OA
HETATM   27  H9  UNK     1      17.272  -4.904  13.347  1.00  0.00     0.217 HD
ENDBRANCH   8  26
TORSDOF 6
ENDMDL
MODEL 3
REMARK VINA RESULT:      -8.2     25.512     27.469
REMARK  6 active torsions:
REMARK  status: ('A' for Active; 'I' for Inactive)
REMARK    1  A    between atoms: C2_9  and  O2_2 
REMARK    2  A    between atoms: C7_14  and  O4_4 
REMARK    3  A    between atoms: C12_19  and  O5_5 
REMARK    4  A    between atoms: C13_20  and  O6_6 
REMARK    5  A    between atoms: C15_22  and  O7_7 
REMARK    6  A    between atoms: C1_8  and  C3_10 
ROOT
HETATM    1  O1  UNK     1      11.842   5.502   9.543  1.00  0.00    -0.337 OA
HETATM    2  O3  UNK     1      10.121   7.373   6.319  1.00  0.00    -0.289 OA
HETATM    3  C1  UNK     1      12.392   6.733   9.047  1.00  0.00     0.198 C 
HETATM    4  C2  UNK     1      12.129   6.899   7.548  1.00  0.00     0.227 C 
HETATM    5  C4  UNK     1      10.643   6.832   7.286  1.00  0.00     0.196 C 
HETATM    6  C5  UNK     1       9.852   6.013   8.229  1.00  0.00     0.079 A 
HETATM    7  C6  UNK     1      10.499   5.378   9.293  1.00  0.00     0.089 A 
HETATM    8  C7  UNK     1       8.479   5.839   8.034  1.00  0.00     0.085 A 
HETATM    9  C10 UNK     1       9.779   4.540  10.144  1.00  0.00     0.074 A 
HETATM   10  C11 UNK     1       7.759   5.016   8.902  1.00  0.00     0.074 A 
HETATM   11  C12 UNK     1       8.408   4.364   9.951  1.00  0.00     0.071 A 
ENDROOT
BRANCH   3  12
HETATM   12  C3  UNK     1      13.872   6.800   9.370  1.00  0.00    -0.023 A 
HETATM   13  C8  UNK     1      14.650   5.645   9.317  1.00  0.00     0.049 A 
HETATM   14  C13 UNK     1      16.012   5.707   9.615  1.00  0.00     0.099 A 
HETATM   15  C15 UNK     1      16.594   6.924   9.966  1.00  0.00     0.098 A 
HETATM   16  C14 UNK     1      15.815   8.080  10.018  1.00  0.00     0.040 A 
HETATM   17  C9  UNK     1      14.454   8.018   9.720  1.00  0.00     0.013 A 
BRANCH  14  18
HETATM   18  O6  UNK     1      16.762   4.570   9.558  1.00  0.00    -0.358 OA
HETATM   19  H11 UNK     1      16.397   4.000   8.859  1.00  0.00     0.217 HD
ENDBRANCH  14  18
BRANCH  15  20
HETATM   20  O7  UNK     1      17.922   6.998  10.258  1.00  0.00    -0.358 OA
HETATM   21  H12 UNK     1      18.092   7.817  10.755  1.00  0.00     0.217 HD
ENDBRANCH  15  20
ENDBRANCH   3  12
BRANCH   4  22
HETATM   22  O2  UNK     1      12.721   5.867   6.776  1.00  0.00    -0.385 OA
HETATM   23  H6  UNK     1      12.053   5.529   6.157  1.00  0.00     0.210 HD
ENDBRANCH   4  22
BRANCH  11  24
HETATM   24  O5  UNK     1       7.702   3.556  10.788  1.00  0.00    -0.361 OA
HETATM   25  H10 UNK     1       8.197   3.452  11.619  1.00  0.00     0.217 HD
ENDBRANCH  11  24
BRANCH   8  26
HETATM   26  O4  UNK     1       7.799   6.438   7.019  1.00  0.00    -0.360 OA
HETATM   27  H9  UNK     1       8.051   6.052   6.166  1.00  0.00     0.217 HD
ENDBRANCH   8  26
TORSDOF 6
ENDMDL
MODEL 4
REMARK VINA RESULT:      -8.1     27.281     28.817
REMARK  6 active torsions:
REMARK  status: ('A' for Active; 'I' for Inactive)
REMARK    1  A    between atoms: C2_9  and  O2_2 
REMARK    2  A    between atoms: C7_14  and  O4_4 
REMARK    3  A    between atoms: C12_19  and  O5_5 
REMARK    4  A    between atoms: C13_20  and  O6_6 
REMARK    5  A    between atoms: C15_22  and  O7_7 
REMARK    6  A    between atoms: C1_8  and  C3_10 
ROOT
HETATM    1  O1  UNK     1       9.495   7.191   9.501  1.00  0.00    -0.337 OA
HETATM    2  O3  UNK     1       9.517   5.578   5.727  1.00  0.00    -0.289 OA
HETATM    3  C1  UNK     1       8.618   6.100   9.180  1.00  0.00     0.198 C 
HETATM    4  C2  UNK     1       8.246   6.102   7.695  1.00  0.00     0.227 C 
HETATM    5  C4  UNK     1       9.502   6.042   6.860  1.00  0.00     0.196 C 
HETATM    6  C5  UNK     1      10.713   6.644   7.460  1.00  0.00     0.079 A 
HETATM    7  C6  UNK     1      10.636   7.202   8.740  1.00  0.00     0.089 A 
HETATM    8  C7  UNK     1      11.909   6.693   6.740  1.00  0.00     0.085 A 
HETATM    9  C10 UNK     1      11.748   7.841   9.287  1.00  0.00     0.074 A 
HETATM   10  C11 UNK     1      13.025   7.316   7.301  1.00  0.00     0.074 A 
HETATM   11  C12 UNK     1      12.944   7.892   8.569  1.00  0.00     0.071 A 
ENDROOT
BRANCH   3  12
HETATM   12  C3  UNK     1       7.390   6.150  10.068  1.00  0.00    -0.023 A 
HETATM   13  C8  UNK     1       6.495   5.080  10.082  1.00  0.00     0.049 A 
HETATM   14  C13 UNK     1       5.365   5.128  10.898  1.00  0.00     0.099 A 
HETATM   15  C15 UNK     1       5.130   6.244  11.700  1.00  0.00     0.098 A 
HETATM   16  C14 UNK     1       6.026   7.313  11.686  1.00  0.00     0.040 A 
HETATM   17  C9  UNK     1       7.156   7.266  10.870  1.00  0.00     0.013 A 
BRANCH  14  18
HETATM   18  O6  UNK     1       4.499   4.075  10.903  1.00  0.00    -0.358 OA
HETATM   19  H11 UNK     1       4.992   3.274  10.652  1.00  0.00     0.217 HD
ENDBRANCH  14  18
BRANCH  15  20
HETATM   20  O7  UNK     1       4.030   6.302  12.502  1.00  0.00    -0.358 OA
HETATM   21  H12 UNK     1       3.248   6.041  11.985  1.00  0.00     0.217 HD
ENDBRANCH  15  20
ENDBRANCH   3  12
BRANCH   4  22
HETATM   22  O2  UNK     1       7.560   7.282   7.308  1.00  0.00    -0.385 OA
HETATM   23  H6  UNK     1       7.949   7.600   6.478  1.00  0.00     0.210 HD
ENDBRANCH   4  22
BRANCH  11  24
HETATM   24  O5  UNK     1      14.033   8.506   9.107  1.00  0.00    -0.361 OA
HETATM   25  H10 UNK     1      13.875   8.657  10.055  1.00  0.00     0.217 HD
ENDBRANCH  11  24
BRANCH   8  26
HETATM   26  O4  UNK     1      12.040   6.161   5.494  1.00  0.00    -0.360 OA
HETATM   27  H9  UNK     1      12.158   6.862   4.835  1.00  0.00     0.217 HD
ENDBRANCH   8  26
TORSDOF 6
ENDMDL
MODEL 5
REMARK VINA RESULT:      -8.0     13.774     18.388
REMARK  6 active torsions:
REMARK  status: ('A' for Active; 'I' for Inactive)
REMARK    1  A    between atoms: C2_9  and  O2_2 
REMARK    2  A    between atoms: C7_14  and  O4_4 
REMARK    3  A    between atoms: C12_19  and  O5_5 
REMARK    4  A    between atoms: C13_20  and  O6_6 
REMARK    5  A    between atoms: C15_22  and  O7_7 
REMARK    6  A    between atoms: C1_8  and  C3_10 
ROOT
HETATM    1  O1  UNK     1      20.275  -2.188  16.838  1.00  0.00    -0.337 OA
HETATM    2  O3  UNK     1      17.873  -1.973  13.516  1.00  0.00    -0.289 OA
HETATM    3  C1  UNK     1      19.040  -1.457  16.889  1.00  0.00     0.198 C 
HETATM    4  C2  UNK     1      18.664  -0.900  15.514  1.00  0.00     0.227 C 
HETATM    5  C4  UNK     1      18.574  -2.033  14.519  1.00  0.00     0.196 C 
HETATM    6  C5  UNK     1      19.439  -3.202  14.784  1.00  0.00     0.079 A 
HETATM    7  C6  UNK     1      20.256  -3.206  15.919  1.00  0.00     0.089 A 
HETATM    8  C7  UNK     1      19.473  -4.274  13.888  1.00  0.00     0.085 A 
HETATM    9  C10 UNK     1      21.134  -4.267  16.140  1.00  0.00     0.074 A 
HETATM   10  C11 UNK     1      20.339  -5.343  14.125  1.00  0.00     0.074 A 
HETATM   11  C12 UNK     1      21.170  -5.337  15.246  1.00  0.00     0.071 A 
ENDROOT
BRANCH   3  12
HETATM   12  C3  UNK     1      19.136  -0.360  17.933  1.00  0.00    -0.023 A 
HETATM   13  C8  UNK     1      19.418  -0.684  19.260  1.00  0.00     0.049 A 
HETATM   14  C13 UNK     1      19.505   0.325  20.219  1.00  0.00     0.099 A 
HETATM   15  C15 UNK     1      19.310   1.656  19.852  1.00  0.00     0.098 A 
HETATM   16  C14 UNK     1      19.029   1.979  18.524  1.00  0.00     0.040 A 
HETATM   17  C9  UNK     1      18.942   0.970  17.564  1.00  0.00     0.013 A 
BRANCH  14  18
HETATM   18  O6  UNK     1      19.782  -0.004  21.513  1.00  0.00    -0.358 OA
HETATM   19  H11 UNK     1      19.015  -0.480  21.877  1.00  0.00     0.217 HD
ENDBRANCH  14  18
BRANCH  15  20
HETATM   20  O7  UNK     1      19.393   2.650  20.780  1.00  0.00    -0.358 OA
HETATM   21  H12 UNK     1      19.139   3.492  20.365  1.00  0.00     0.217 HD
ENDBRANCH  15  20
ENDBRANCH   3  12
BRANCH   4  22
HETATM   22  O2  UNK     1      19.633   0.004  15.010  1.00  0.00    -0.385 OA
HETATM   23  H6  UNK     1      19.385   0.901  15.286  1.00  0.00     0.210 HD
ENDBRANCH   4  22
BRANCH  11  24
HETATM   24  O5  UNK     1      22.018  -6.379  15.467  1.00  0.00    -0.361 OA
HETATM   25  H10 UNK     1      21.886  -6.707  16.373  1.00  0.00     0.217 HD
ENDBRANCH  11  24
BRANCH   8  26
HETATM   26  O4  UNK     1      18.696  -4.324  12.771  1.00  0.00    -0.360 OA
HETATM   27  H9  UNK     1      17.891  -3.798  12.893  1.00  0.00     0.217 HD
ENDBRANCH   8  26
TORSDOF 6
ENDMDL
MODEL 6
REMARK VINA RESULT:      -7.9      5.703      7.574
REMARK  6 active torsions:
REMARK  status: ('A' for Active; 'I' for Inactive)
REMARK    1  A    between atoms: C2_9  and  O2_2 
REMARK    2  A    between atoms: C7_14  and  O4_4 
REMARK    3  A    between atoms: C12_19  and  O5_5 
REMARK    4  A    between atoms: C13_20  and  O6_6 
REMARK    5  A    between atoms: C15_22  and  O7_7 
REMARK    6  A    between atoms: C1_8  and  C3_10 
ROOT
HETATM    1  O1  UNK     1      17.362   5.108  31.797  1.00  0.00    -0.337 OA
HETATM    2  O3  UNK     1      20.812   6.968  33.017  1.00  0.00    -0.289 OA
HETATM    3  C1  UNK     1      18.592   4.370  31.864  1.00  0.00     0.198 C 
HETATM    4  C2  UNK     1      19.803   5.280  31.639  1.00  0.00     0.227 C 
HETATM    5  C4  UNK     1      19.791   6.395  32.657  1.00  0.00     0.196 C 
HETATM    6  C5  UNK     1      18.461   6.812  33.151  1.00  0.00     0.079 A 
HETATM    7  C6  UNK     1      17.320   6.158  32.678  1.00  0.00     0.089 A 
HETATM    8  C7  UNK     1      18.343   7.877  34.048  1.00  0.00     0.085 A 
HETATM    9  C10 UNK     1      16.055   6.592  33.076  1.00  0.00     0.074 A 
HETATM   10  C11 UNK     1      17.075   8.293  34.459  1.00  0.00     0.074 A 
HETATM   11  C12 UNK     1      15.935   7.656  33.970  1.00  0.00     0.071 A 
ENDROOT
BRANCH   3  12
HETATM   12  C3  UNK     1      18.558   3.223  30.871  1.00  0.00    -0.023 A 
HETATM   13  C8  UNK     1      18.987   1.954  31.257  1.00  0.00     0.049 A 
HETATM   14  C13 UNK     1      18.957   0.901  30.343  1.00  0.00     0.099 A 
HETATM   15  C15 UNK     1      18.497   1.117  29.045  1.00  0.00     0.098 A 
HETATM   16  C14 UNK     1      18.067   2.387  28.660  1.00  0.00     0.040 A 
HETATM   17  C9  UNK     1      18.098   3.441  29.573  1.00  0.00     0.013 A 
BRANCH  14  18
HETATM   18  O6  UNK     1      19.378  -0.336  30.733  1.00  0.00    -0.358 OA
HETATM   19  H11 UNK     1      19.827  -0.756  29.979  1.00  0.00     0.217 HD
ENDBRANCH  14  18
BRANCH  15  20
HETATM   20  O7  UNK     1      18.462   0.096  28.143  1.00  0.00    -0.358 OA
HETATM   21  H12 UNK     1      19.371  -0.193  27.958  1.00  0.00     0.217 HD
ENDBRANCH  15  20
ENDBRANCH   3  12
BRANCH   4  22
HETATM   22  O2  UNK     1      19.787   5.899  30.363  1.00  0.00    -0.385 OA
HETATM   23  H6  UNK     1      20.688   5.870  30.000  1.00  0.00     0.210 HD
ENDBRANCH   4  22
BRANCH  11  24
HETATM   24  O5  UNK     1      14.701   8.072  34.368  1.00  0.00    -0.361 OA
HETATM   25  H10 UNK     1      14.754   8.384  35.288  1.00  0.00     0.217 HD
ENDBRANCH  11  24
BRANCH   8  26
HETATM   26  O4  UNK     1      19.420   8.545  34.544  1.00  0.00    -0.360 OA
HETATM   27  H9  UNK     1      20.240   8.205  34.156  1.00  0.00     0.217 HD
ENDBRANCH   8  26
TORSDOF 6
ENDMDL
MODEL 7
REMARK VINA RESULT:      -7.9      5.315      7.489
REMARK  6 active torsions:
REMARK  status: ('A' for Active; 'I' for Inactive)
REMARK    1  A    between atoms: C2_9  and  O2_2 
REMARK    2  A    between atoms: C7_14  and  O4_4 
REMARK    3  A    between atoms: C12_19  and  O5_5 
REMARK    4  A    between atoms: C13_20  and  O6_6 
REMARK    5  A    between atoms: C15_22  and  O7_7 
REMARK    6  A    between atoms: C1_8  and  C3_10 
ROOT
HETATM    1  O1  UNK     1      18.150   3.665  33.335  1.00  0.00    -0.337 OA
HETATM    2  O3  UNK     1      18.953   2.182  29.592  1.00  0.00    -0.289 OA
HETATM    3  C1  UNK     1      17.667   4.351  32.170  1.00  0.00     0.198 C 
HETATM    4  C2  UNK     1      18.580   4.117  30.965  1.00  0.00     0.227 C 
HETATM    5  C4  UNK     1      18.698   2.635  30.702  1.00  0.00     0.196 C 
HETATM    6  C5  UNK     1      18.558   1.751  31.879  1.00  0.00     0.079 A 
HETATM    7  C6  UNK     1      18.311   2.318  33.133  1.00  0.00     0.089 A 
HETATM    8  C7  UNK     1      18.713   0.369  31.748  1.00  0.00     0.085 A 
HETATM    9  C10 UNK     1      18.254   1.503  34.264  1.00  0.00     0.074 A 
HETATM   10  C11 UNK     1      18.634  -0.443  32.880  1.00  0.00     0.074 A 
HETATM   11  C12 UNK     1      18.410   0.123  34.135  1.00  0.00     0.071 A 
ENDROOT
BRANCH   3  12
HETATM   12  C3  UNK     1      17.505   5.829  32.476  1.00  0.00    -0.023 A 
HETATM   13  C8  UNK     1      16.677   6.618  31.680  1.00  0.00     0.049 A 
HETATM   14  C13 UNK     1      16.530   7.977  31.960  1.00  0.00     0.099 A 
HETATM   15  C15 UNK     1      17.211   8.544  33.036  1.00  0.00     0.098 A 
HETATM   16  C14 UNK     1      18.039   7.754  33.832  1.00  0.00     0.040 A 
HETATM   17  C9  UNK     1      18.186   6.395  33.552  1.00  0.00     0.013 A 
BRANCH  14  18
HETATM   18  O6  UNK     1      15.716   8.738  31.175  1.00  0.00    -0.358 OA
HETATM   19  H11 UNK     1      15.099   9.219  31.754  1.00  0.00     0.217 HD
ENDBRANCH  14  18
BRANCH  15  20
HETATM   20  O7  UNK     1      17.075   9.870  33.320  1.00  0.00    -0.358 OA
HETATM   21  H12 UNK     1      16.128  10.090  33.355  1.00  0.00     0.217 HD
ENDBRANCH  15  20
ENDBRANCH   3  12
BRANCH   4  22
HETATM   22  O2  UNK     1      19.899   4.594  31.181  1.00  0.00    -0.385 OA
HETATM   23  H6  UNK     1      19.842   5.427  31.677  1.00  0.00     0.210 HD
ENDBRANCH   4  22
BRANCH  11  24
HETATM   24  O5  UNK     1      18.342  -0.674  35.237  1.00  0.00    -0.361 OA
HETATM   25  H10 UNK     1      18.808  -1.508  35.053  1.00  0.00     0.217 HD
ENDBRANCH  11  24
BRANCH   8  26
HETATM   26  O4  UNK     1      18.949  -0.235  30.551  1.00  0.00    -0.360 OA
HETATM   27  H9  UNK     1      19.714   0.166  30.112  1.00  0.00     0.217 HD
ENDBRANCH   8  26
TORSDOF 6
ENDMDL
MODEL 8
REMARK VINA RESULT:      -7.8     25.728     27.008
REMARK  6 active torsions:
REMARK  status: ('A' for Active; 'I' for Inactive)
REMARK    1  A    between atoms: C2_9  and  O2_2 
REMARK    2  A    between atoms: C7_14  and  O4_4 
REMARK    3  A    between atoms: C12_19  and  O5_5 
REMARK    4  A    between atoms: C13_20  and  O6_6 
REMARK    5  A    between atoms: C15_22  and  O7_7 
REMARK    6  A    between atoms: C1_8  and  C3_10 
ROOT
HETATM    1  O1  UNK     1      13.317   7.807   9.184  1.00  0.00    -0.337 OA
HETATM    2  O3  UNK     1      16.315   5.011   9.406  1.00  0.00    -0.289 OA
HETATM    3  C1  UNK     1      13.014   6.456   9.563  1.00  0.00     0.198 C 
HETATM    4  C2  UNK     1      14.003   5.466   8.942  1.00  0.00     0.227 C 
HETATM    5  C4  UNK     1      15.409   5.834   9.352  1.00  0.00     0.196 C 
HETATM    6  C5  UNK     1      15.655   7.267   9.620  1.00  0.00     0.079 A 
HETATM    7  C6  UNK     1      14.599   8.176   9.501  1.00  0.00     0.089 A 
HETATM    8  C7  UNK     1      16.938   7.715   9.945  1.00  0.00     0.085 A 
HETATM    9  C10 UNK     1      14.834   9.541   9.675  1.00  0.00     0.074 A 
HETATM   10  C11 UNK     1      17.163   9.079  10.138  1.00  0.00     0.074 A 
HETATM   11  C12 UNK     1      16.115   9.990   9.999  1.00  0.00     0.071 A 
ENDROOT
BRANCH   3  12
HETATM   12  C3  UNK     1      11.580   6.128   9.190  1.00  0.00    -0.023 A 
HETATM   13  C8  UNK     1      10.931   5.054   9.796  1.00  0.00     0.049 A 
HETATM   14  C13 UNK     1       9.613   4.751   9.452  1.00  0.00     0.099 A 
HETATM   15  C15 UNK     1       8.946   5.524   8.501  1.00  0.00     0.098 A 
HETATM   16  C14 UNK     1       9.597   6.599   7.895  1.00  0.00     0.040 A 
HETATM   17  C9  UNK     1      10.914   6.901   8.240  1.00  0.00     0.013 A 
BRANCH  14  18
HETATM   18  O6  UNK     1       8.989   3.700  10.053  1.00  0.00    -0.358 OA
HETATM   19  H11 UNK     1       9.490   3.465  10.854  1.00  0.00     0.217 HD
ENDBRANCH  14  18
BRANCH  15  20
HETATM   20  O7  UNK     1       7.659   5.240   8.157  1.00  0.00    -0.358 OA
HETATM   21  H12 UNK     1       7.651   4.828   7.276  1.00  0.00     0.217 HD
ENDBRANCH  15  20
ENDBRANCH   3  12
BRANCH   4  22
HETATM   22  O2  UNK     1      13.977   5.490   7.523  1.00  0.00    -0.385 OA
HETATM   23  H6  UNK     1      14.735   4.978   7.198  1.00  0.00     0.210 HD
ENDBRANCH   4  22
BRANCH  11  24
HETATM   24  O5  UNK     1      16.342  11.319  10.181  1.00  0.00    -0.361 OA
HETATM   25  H10 UNK     1      15.510  11.804  10.044  1.00  0.00     0.217 HD
ENDBRANCH  11  24
BRANCH   8  26
HETATM   26  O4  UNK     1      18.000   6.874  10.078  1.00  0.00    -0.360 OA
HETATM   27  H9  UNK     1      18.616   6.984   9.339  1.00  0.00     0.217 HD
ENDBRANCH   8  26
TORSDOF 6
ENDMDL
MODEL 9
REMARK VINA RESULT:      -7.7     26.919     27.848
REMARK  6 active torsions:
REMARK  status: ('A' for Active; 'I' for Inactive)
REMARK    1  A    between atoms: C2_9  and  O2_2 
REMARK    2  A    between atoms: C7_14  and  O4_4 
REMARK    3  A    between atoms: C12_19  and  O5_5 
REMARK    4  A    between atoms: C13_20  and  O6_6 
REMARK    5  A    between atoms: C15_22  and  O7_7 
REMARK    6  A    between atoms: C1_8  and  C3_10 
ROOT
HETATM    1  O1  UNK     1       7.910   6.609  10.122  1.00  0.00    -0.337 OA
HETATM    2  O3  UNK     1       5.494   3.294  10.286  1.00  0.00    -0.289 OA
HETATM    3  C1  UNK     1       7.729   5.792   8.955  1.00  0.00     0.198 C 
HETATM    4  C2  UNK     1       7.435   4.337   9.331  1.00  0.00     0.227 C 
HETATM    5  C4  UNK     1       6.213   4.283  10.217  1.00  0.00     0.196 C 
HETATM    6  C5  UNK     1       5.966   5.473  11.059  1.00  0.00     0.079 A 
HETATM    7  C6  UNK     1       6.840   6.562  10.978  1.00  0.00     0.089 A 
HETATM    8  C7  UNK     1       4.896   5.493  11.957  1.00  0.00     0.085 A 
HETATM    9  C10 UNK     1       6.664   7.658  11.823  1.00  0.00     0.074 A 
HETATM   10  C11 UNK     1       4.712   6.603  12.785  1.00  0.00     0.074 A 
HETATM   11  C12 UNK     1       5.596   7.680  12.721  1.00  0.00     0.071 A 
ENDROOT
BRANCH   3  12
HETATM   12  C3  UNK     1       8.946   5.905   8.055  1.00  0.00    -0.023 A 
HETATM   13  C8  UNK     1      10.225   5.900   8.610  1.00  0.00     0.049 A 
HETATM   14  C13 UNK     1      11.343   6.006   7.783  1.00  0.00     0.099 A 
HETATM   15  C15 UNK     1      11.182   6.116   6.402  1.00  0.00     0.098 A 
HETATM   16  C14 UNK     1       9.902   6.121   5.848  1.00  0.00     0.040 A 
HETATM   17  C9  UNK     1       8.783   6.015   6.675  1.00  0.00     0.013 A 
BRANCH  14  18
HETATM   18  O6  UNK     1      12.588   5.998   8.337  1.00  0.00    -0.358 OA
HETATM   19  H11 UNK     1      13.059   5.208   8.016  1.00  0.00     0.217 HD
ENDBRANCH  14  18
BRANCH  15  20
HETATM   20  O7  UNK     1      12.266   6.219   5.584  1.00  0.00    -0.358 OA
HETATM   21  H12 UNK     1      12.152   5.616   4.830  1.00  0.00     0.217 HD
ENDBRANCH  15  20
ENDBRANCH   3  12
BRANCH   4  22
HETATM   22  O2  UNK     1       8.492   3.742  10.066  1.00  0.00    -0.385 OA
HETATM   23  H6  UNK     1       9.134   4.435  10.290  1.00  0.00     0.210 HD
ENDBRANCH   4  22
BRANCH  11  24
HETATM   24  O5  UNK     1       5.417   8.755  13.536  1.00  0.00    -0.361 OA
HETATM   25  H10 UNK     1       5.698   9.559  13.066  1.00  0.00     0.217 HD
ENDBRANCH  11  24
BRANCH   8  26
HETATM   26  O4  UNK     1       4.012   4.464  12.073  1.00  0.00    -0.360 OA
HETATM   27  H9  UNK     1       3.326   4.676  12.724  1.00  0.00     0.217 HD
ENDBRANCH   8  26
TORSDOF 6
ENDMDL
MODEL 10
REMARK VINA RESULT:      -7.6      4.546      7.386
REMARK  6 active torsions:
REMARK  status: ('A' for Active; 'I' for Inactive)
REMARK    1  A    between atoms: C2_9  and  O2_2 
REMARK    2  A    between atoms: C7_14  and  O4_4 
REMARK    3  A    between atoms: C12_19  and  O5_5 
REMARK    4  A    between atoms: C13_20  and  O6_6 
REMARK    5  A    between atoms: C15_22  and  O7_7 
REMARK    6  A    between atoms: C1_8  and  C3_10 
ROOT
HETATM    1  O1  UNK     1      20.391  -6.442  35.717  1.00  0.00    -0.337 OA
HETATM    2  O3  UNK     1      19.583  -7.981  39.436  1.00  0.00    -0.289 OA
HETATM    3  C1  UNK     1      20.418  -5.587  36.871  1.00  0.00     0.198 C 
HETATM    4  C2  UNK     1      19.467  -6.089  37.961  1.00  0.00     0.227 C 
HETATM    5  C4  UNK     1      19.833  -7.506  38.335  1.00  0.00     0.196 C 
HETATM    6  C5  UNK     1      20.453  -8.322  37.269  1.00  0.00     0.079 A 
HETATM    7  C6  UNK     1      20.679  -7.749  36.014  1.00  0.00     0.089 A 
HETATM    8  C7  UNK     1      20.770  -9.663  37.500  1.00  0.00     0.085 A 
HETATM    9  C10 UNK     1      21.191  -8.529  34.977  1.00  0.00     0.074 A 
HETATM   10  C11 UNK     1      21.302 -10.433  36.464  1.00  0.00     0.074 A 
HETATM   11  C12 UNK     1      21.508  -9.869  35.205  1.00  0.00     0.071 A 
ENDROOT
BRANCH   3  12
HETATM   12  C3  UNK     1      20.101  -4.161  36.461  1.00  0.00    -0.023 A 
HETATM   13  C8  UNK     1      20.304  -3.754  35.144  1.00  0.00     0.049 A 
HETATM   14  C13 UNK     1      20.013  -2.442  34.767  1.00  0.00     0.099 A 
HETATM   15  C15 UNK     1      19.520  -1.540  35.709  1.00  0.00     0.098 A 
HETATM   16  C14 UNK     1      19.317  -1.949  37.027  1.00  0.00     0.040 A 
HETATM   17  C9  UNK     1      19.607  -3.260  37.403  1.00  0.00     0.013 A 
BRANCH  14  18
HETATM   18  O6  UNK     1      20.214  -2.057  33.476  1.00  0.00    -0.358 OA
HETATM   19  H11 UNK     1      19.376  -2.163  32.992  1.00  0.00     0.217 HD
ENDBRANCH  14  18
BRANCH  15  20
HETATM   20  O7  UNK     1      19.231  -0.257  35.354  1.00  0.00    -0.358 OA
HETATM   21  H12 UNK     1      19.681  -0.052  34.516  1.00  0.00     0.217 HD
ENDBRANCH  15  20
ENDBRANCH   3  12
BRANCH   4  22
HETATM   22  O2  UNK     1      18.116  -6.123  37.530  1.00  0.00    -0.385 OA
HETATM   23  H6  UNK     1      17.656  -6.819  38.027  1.00  0.00     0.210 HD
ENDBRANCH   4  22
BRANCH  11  24
HETATM   24  O5  UNK     1      22.019 -10.627  34.196  1.00  0.00    -0.361 OA
HETATM   25  H10 UNK     1      22.521 -11.366  34.580  1.00  0.00     0.217 HD
ENDBRANCH  11  24
BRANCH   8  26
HETATM   26  O4  UNK     1      20.577 -10.269  38.704  1.00  0.00    -0.360 OA
HETATM   27  H9  UNK     1      21.228 -10.974  38.839  1.00  0.00     0.217 HD
ENDBRANCH   8  26
TORSDOF 6
ENDMDL
