MODEL 1
REMARK VINA RESULT:      -9.2      0.000      0.000
REMARK  6 active torsions:
REMARK  status: ('A' for Active; 'I' for Inactive)
REMARK    1  A    between atoms: C2_9  and  O1_5 
REMARK    2  A    between atoms: C5_12  and  O1_5 
REMARK    3  A    between atoms: C3_10  and  O2_6 
REMARK    4  A    between atoms: C1_8  and  C9_16 
REMARK    5  A    between atoms: C5_12  and  C8_15 
REMARK    6  A    between atoms: C10_17  and  C11_18 
ROOT
HETATM    1  N1  UNK     1      22.075  -1.815  35.265  1.00  0.00    -0.191 NA
HETATM    2  C9  UNK     1      18.865  -2.561  36.283  1.00  0.00     0.036 C 
HETATM    3  C10 UNK     1      20.113  -3.086  36.400  1.00  0.00     0.057 C 
HETATM    4  C23 UNK     1      21.193  -2.377  35.769  1.00  0.00     0.100 C 
ENDROOT
BRANCH   3   5
HETATM    5  C11 UNK     1      20.409  -4.313  37.130  1.00  0.00     0.006 A 
HETATM    6  C14 UNK     1      19.498  -5.366  37.214  1.00  0.00     0.047 A 
HETATM    7 Cl1  UNK     1      17.944  -5.290  36.458  1.00  0.00    -0.083 Cl
HETATM    8  C19 UNK     1      19.829  -6.520  37.924  1.00  0.00     0.048 A 
HETATM    9  C21 UNK     1      21.071  -6.621  38.550  1.00  0.00     0.035 A 
HETATM   10  C20 UNK     1      21.983  -5.568  38.465  1.00  0.00     0.025 A 
HETATM   11 Cl2  UNK     1      21.481  -8.045  39.425  1.00  0.00    -0.084 Cl
HETATM   12  C15 UNK     1      21.652  -4.414  37.756  1.00  0.00     0.016 A 
ENDBRANCH   3   5
BRANCH   2  13
HETATM   13  C1  UNK     1      18.517  -1.326  35.565  1.00  0.00    -0.015 A 
HETATM   14  C4  UNK     1      18.702  -1.319  34.188  1.00  0.00     0.052 A 
HETATM   15  C3  UNK     1      18.388  -0.174  33.457  1.00  0.00     0.102 A 
HETATM   16  C2  UNK     1      17.893   0.955  34.109  1.00  0.00     0.103 A 
HETATM   17  C7  UNK     1      17.710   0.939  35.492  1.00  0.00     0.059 A 
HETATM   18  C6  UNK     1      18.024  -0.206  36.223  1.00  0.00     0.024 A 
HETATM   19 Br1  UNK     1      17.753  -0.162  38.103  1.00  0.00    -0.050 Br
BRANCH  15  20
HETATM   20  O2  UNK     1      18.569  -0.170  32.107  1.00  0.00    -0.353 OA
HETATM   21  C22 UNK     1      19.597  -1.012  31.588  1.00  0.00     0.210 C 
ENDBRANCH  15  20
BRANCH  16  22
HETATM   22  O1  UNK     1      17.582   2.080  33.405  1.00  0.00    -0.344 OA
BRANCH  22  23
HETATM   23  C5  UNK     1      18.141   3.307  33.866  1.00  0.00     0.214 C 
BRANCH  23  24
HETATM   24  C8  UNK     1      18.575   4.123  32.683  1.00  0.00    -0.034 A 
HETATM   25  C12 UNK     1      18.557   3.557  31.413  1.00  0.00     0.012 A 
HETATM   26  C16 UNK     1      18.959   4.316  30.314  1.00  0.00     0.043 A 
HETATM   27  C18 UNK     1      19.378   5.635  30.492  1.00  0.00     0.116 A 
HETATM   28  C17 UNK     1      19.394   6.195  31.769  1.00  0.00     0.043 A 
HETATM   29  F1  UNK     1      19.765   6.362  29.436  1.00  0.00    -0.206 F 
HETATM   30  C13 UNK     1      18.991   5.437  32.869  1.00  0.00     0.012 A 
ENDBRANCH  23  24
ENDBRANCH  22  23
ENDBRANCH  16  22
ENDBRANCH   2  13
TORSDOF 6
ENDMDL
MODEL 2
REMARK VINA RESULT:      -9.0      6.266     10.555
REMARK  6 active torsions:
REMARK  status: ('A' for Active; 'I' for Inactive)
REMARK    1  A    between atoms: C2_9  and  O1_5 
REMARK    2  A    between atoms: C5_12  and  O1_5 
REMARK    3  A    between atoms: C3_10  and  O2_6 
REMARK    4  A    between atoms: C1_8  and  C9_16 
REMARK    5  A    between atoms: C5_12  and  C8_15 
REMARK    6  A    between atoms: C10_17  and  C11_18 
ROOT
HETATM    1  N1  UNK     1      21.603   6.176  32.723  1.00  0.00    -0.191 NA
HETATM    2  C9  UNK     1      18.161   6.182  32.939  1.00  0.00     0.036 C 
HETATM    3  C10 UNK     1      19.192   7.040  33.156  1.00  0.00     0.057 C 
HETATM    4  C23 UNK     1      20.523   6.554  32.914  1.00  0.00     0.100 C 
ENDROOT
BRANCH   3   5
HETATM    5  C11 UNK     1      19.017   8.415  33.611  1.00  0.00     0.006 A 
HETATM    6  C14 UNK     1      17.818   9.107  33.441  1.00  0.00     0.047 A 
HETATM    7 Cl1  UNK     1      16.448   8.385  32.672  1.00  0.00    -0.083 Cl
HETATM    8  C19 UNK     1      17.701  10.422  33.895  1.00  0.00     0.048 A 
HETATM    9  C21 UNK     1      18.783  11.042  34.520  1.00  0.00     0.035 A 
HETATM   10  C20 UNK     1      19.982  10.349  34.690  1.00  0.00     0.025 A 
HETATM   11 Cl2  UNK     1      18.639  12.662  35.081  1.00  0.00    -0.084 Cl
HETATM   12  C15 UNK     1      20.099   9.036  34.236  1.00  0.00     0.016 A 
ENDBRANCH   3   5
BRANCH   2  13
HETATM   13  C1  UNK     1      18.284   4.793  32.474  1.00  0.00    -0.015 A 
HETATM   14  C4  UNK     1      18.101   3.790  33.419  1.00  0.00     0.052 A 
HETATM   15  C3  UNK     1      18.207   2.455  33.034  1.00  0.00     0.102 A 
HETATM   16  C2  UNK     1      18.496   2.132  31.708  1.00  0.00     0.103 A 
HETATM   17  C7  UNK     1      18.678   3.145  30.767  1.00  0.00     0.059 A 
HETATM   18  C6  UNK     1      18.572   4.481  31.152  1.00  0.00     0.024 A 
HETATM   19 Br1  UNK     1      18.832   5.812  29.821  1.00  0.00    -0.050 Br
BRANCH  15  20
HETATM   20  O2  UNK     1      18.026   1.473  33.962  1.00  0.00    -0.353 OA
HETATM   21  C22 UNK     1      18.438   1.759  35.296  1.00  0.00     0.210 C 
ENDBRANCH  15  20
BRANCH  16  22
HETATM   22  O1  UNK     1      18.600   0.829  31.320  1.00  0.00    -0.344 OA
BRANCH  22  23
HETATM   23  C5  UNK     1      19.683   0.497  30.454  1.00  0.00     0.214 C 
BRANCH  23  24
HETATM   24  C8  UNK     1      20.180  -0.877  30.796  1.00  0.00    -0.034 A 
HETATM   25  C12 UNK     1      20.322  -1.245  32.129  1.00  0.00     0.012 A 
HETATM   26  C16 UNK     1      20.784  -2.523  32.447  1.00  0.00     0.043 A 
HETATM   27  C18 UNK     1      21.100  -3.423  31.430  1.00  0.00     0.116 A 
HETATM   28  C17 UNK     1      20.955  -3.046  30.095  1.00  0.00     0.043 A 
HETATM   29  F1  UNK     1      21.544  -4.649  31.735  1.00  0.00    -0.206 F 
HETATM   30  C13 UNK     1      20.494  -1.769  29.777  1.00  0.00     0.012 A 
ENDBRANCH  23  24
ENDBRANCH  22  23
ENDBRANCH  16  22
ENDBRANCH   2  13
TORSDOF 6
ENDMDL
MODEL 3
REMARK VINA RESULT:      -8.8      9.386     13.119
REMARK  6 active torsions:
REMARK  status: ('A' for Active; 'I' for Inactive)
REMARK    1  A    between atoms: C2_9  and  O1_5 
REMARK    2  A    between atoms: C5_12  and  O1_5 
REMARK    3  A    between atoms: C3_10  and  O2_6 
REMARK    4  A    between atoms: C1_8  and  C9_16 
REMARK    5  A    between atoms: C5_12  and  C8_15 
REMARK    6  A    between atoms: C10_17  and  C11_18 
ROOT
HETATM    1  N1  UNK     1      29.194  -6.264  34.400  1.00  0.00    -0.191 NA
HETATM    2  C9  UNK     1      30.395  -7.153  37.509  1.00  0.00     0.036 C 
HETATM    3  C10 UNK     1      30.890  -6.841  36.283  1.00  0.00     0.057 C 
HETATM    4  C23 UNK     1      29.945  -6.523  35.247  1.00  0.00     0.100 C 
ENDROOT
BRANCH   3   5
HETATM    5  C11 UNK     1      32.314  -6.808  35.970  1.00  0.00     0.006 A 
HETATM    6  C14 UNK     1      33.097  -5.675  36.191  1.00  0.00     0.047 A 
HETATM    7 Cl1  UNK     1      32.433  -4.222  36.851  1.00  0.00    -0.083 Cl
HETATM    8  C19 UNK     1      34.456  -5.695  35.876  1.00  0.00     0.048 A 
HETATM    9  C21 UNK     1      35.031  -6.846  35.340  1.00  0.00     0.035 A 
HETATM   10  C20 UNK     1      34.248  -7.980  35.120  1.00  0.00     0.025 A 
HETATM   11 Cl2  UNK     1      36.707  -6.871  34.952  1.00  0.00    -0.084 Cl
HETATM   12  C15 UNK     1      32.889  -7.961  35.434  1.00  0.00     0.016 A 
ENDBRANCH   3   5
BRANCH   2  13
HETATM   13  C1  UNK     1      28.972  -7.193  37.876  1.00  0.00    -0.015 A 
HETATM   14  C4  UNK     1      28.302  -8.396  37.686  1.00  0.00     0.052 A 
HETATM   15  C3  UNK     1      26.951  -8.491  38.016  1.00  0.00     0.102 A 
HETATM   16  C2  UNK     1      26.280  -7.382  38.533  1.00  0.00     0.103 A 
HETATM   17  C7  UNK     1      26.960  -6.179  38.720  1.00  0.00     0.059 A 
HETATM   18  C6  UNK     1      28.312  -6.084  38.390  1.00  0.00     0.024 A 
HETATM   19 Br1  UNK     1      29.179  -4.417  38.669  1.00  0.00    -0.050 Br
BRANCH  15  20
HETATM   20  O2  UNK     1      26.296  -9.671  37.829  1.00  0.00    -0.353 OA
HETATM   21  C22 UNK     1      26.326 -10.229  36.517  1.00  0.00     0.210 C 
ENDBRANCH  15  20
BRANCH  16  22
HETATM   22  O1  UNK     1      24.959  -7.464  38.860  1.00  0.00    -0.344 OA
BRANCH  22  23
HETATM   23  C5  UNK     1      24.280  -6.238  39.120  1.00  0.00     0.214 C 
BRANCH  23  24
HETATM   24  C8  UNK     1      22.802  -6.459  38.985  1.00  0.00    -0.034 A 
HETATM   25  C12 UNK     1      22.213  -7.566  39.584  1.00  0.00     0.012 A 
HETATM   26  C16 UNK     1      20.839  -7.771  39.459  1.00  0.00     0.043 A 
HETATM   27  C18 UNK     1      20.063  -6.866  38.735  1.00  0.00     0.116 A 
HETATM   28  C17 UNK     1      20.660  -5.757  38.136  1.00  0.00     0.043 A 
HETATM   29  F1  UNK     1      18.743  -7.063  38.614  1.00  0.00    -0.206 F 
HETATM   30  C13 UNK     1      22.034  -5.552  38.261  1.00  0.00     0.012 A 
ENDBRANCH  23  24
ENDBRANCH  22  23
ENDBRANCH  16  22
ENDBRANCH   2  13
TORSDOF 6
ENDMDL
MODEL 4
REMARK VINA RESULT:      -8.7     11.722     13.850
REMARK  6 active torsions:
REMARK  status: ('A' for Active; 'I' for Inactive)
REMARK    1  A    between atoms: C2_9  and  O1_5 
REMARK    2  A    between atoms: C5_12  and  O1_5 
REMARK    3  A    between atoms: C3_10  and  O2_6 
REMARK    4  A    between atoms: C1_8  and  C9_16 
REMARK    5  A    between atoms: C5_12  and  C8_15 
REMARK    6  A    between atoms: C10_17  and  C11_18 
ROOT
HETATM    1  N1  UNK     1      27.268 -10.179  39.850  1.00  0.00    -0.191 NA
HETATM    2  C9  UNK     1      27.353  -8.513  36.832  1.00  0.00     0.036 C 
HETATM    3  C10 UNK     1      26.521  -9.351  37.504  1.00  0.00     0.057 C 
HETATM    4  C23 UNK     1      26.942  -9.804  38.802  1.00  0.00     0.100 C 
ENDROOT
BRANCH   3   5
HETATM    5  C11 UNK     1      25.235  -9.802  36.984  1.00  0.00     0.006 A 
HETATM    6  C14 UNK     1      24.048  -9.114  37.237  1.00  0.00     0.047 A 
HETATM    7 Cl1  UNK     1      24.015  -7.673  38.192  1.00  0.00    -0.083 Cl
HETATM    8  C19 UNK     1      22.843  -9.587  36.716  1.00  0.00     0.048 A 
HETATM    9  C21 UNK     1      22.826 -10.746  35.942  1.00  0.00     0.035 A 
HETATM   10  C20 UNK     1      24.013 -11.434  35.688  1.00  0.00     0.025 A 
HETATM   11 Cl2  UNK     1      21.341 -11.329  35.298  1.00  0.00    -0.084 Cl
HETATM   12  C15 UNK     1      25.217 -10.962  36.209  1.00  0.00     0.016 A 
ENDBRANCH   3   5
BRANCH   2  13
HETATM   13  C1  UNK     1      28.653  -8.025  37.314  1.00  0.00    -0.015 A 
HETATM   14  C4  UNK     1      29.777  -8.759  36.959  1.00  0.00     0.052 A 
HETATM   15  C3  UNK     1      31.036  -8.342  37.389  1.00  0.00     0.102 A 
HETATM   16  C2  UNK     1      31.160  -7.194  38.172  1.00  0.00     0.103 A 
HETATM   17  C7  UNK     1      30.026  -6.463  38.524  1.00  0.00     0.059 A 
HETATM   18  C6  UNK     1      28.767  -6.880  38.093  1.00  0.00     0.024 A 
HETATM   19 Br1  UNK     1      27.262  -5.840  38.608  1.00  0.00    -0.050 Br
BRANCH  15  20
HETATM   20  O2  UNK     1      32.138  -9.064  37.039  1.00  0.00    -0.353 OA
HETATM   21  C22 UNK     1      32.674  -8.837  35.737  1.00  0.00     0.210 C 
ENDBRANCH  15  20
BRANCH  16  22
HETATM   22  O1  UNK     1      32.386  -6.776  38.598  1.00  0.00    -0.344 OA
BRANCH  22  23
HETATM   23  C5  UNK     1      32.760  -5.438  38.279  1.00  0.00     0.214 C 
BRANCH  23  24
HETATM   24  C8  UNK     1      33.465  -5.429  36.954  1.00  0.00    -0.034 A 
HETATM   25  C12 UNK     1      34.752  -5.945  36.855  1.00  0.00     0.012 A 
HETATM   26  C16 UNK     1      35.406  -5.936  35.623  1.00  0.00     0.043 A 
HETATM   27  C18 UNK     1      34.769  -5.412  34.499  1.00  0.00     0.116 A 
HETATM   28  C17 UNK     1      33.478  -4.896  34.606  1.00  0.00     0.043 A 
HETATM   29  F1  UNK     1      35.398  -5.403  33.316  1.00  0.00    -0.206 F 
HETATM   30  C13 UNK     1      32.823  -4.904  35.837  1.00  0.00     0.012 A 
ENDBRANCH  23  24
ENDBRANCH  22  23
ENDBRANCH  16  22
ENDBRANCH   2  13
TORSDOF 6
ENDMDL
MODEL 5
REMARK VINA RESULT:      -8.7     27.085     28.813
REMARK  6 active torsions:
REMARK  status: ('A' for Active; 'I' for Inactive)
REMARK    1  A    between atoms: C2_9  and  O1_5 
REMARK    2  A    between atoms: C5_12  and  O1_5 
REMARK    3  A    between atoms: C3_10  and  O2_6 
REMARK    4  A    between atoms: C1_8  and  C9_16 
REMARK    5  A    between atoms: C5_12  and  C8_15 
REMARK    6  A    between atoms: C10_17  and  C11_18 
ROOT
HETATM    1  N1  UNK     1      15.298  11.079   7.579  1.00  0.00    -0.191 NA
HETATM    2  C9  UNK     1      16.697   9.860  10.487  1.00  0.00     0.036 C 
HETATM    3  C10 UNK     1      16.934  10.847   9.585  1.00  0.00     0.057 C 
HETATM    4  C23 UNK     1      16.024  10.969   8.478  1.00  0.00     0.100 C 
ENDROOT
BRANCH   3   5
HETATM    5  C11 UNK     1      18.049  11.783   9.685  1.00  0.00     0.006 A 
HETATM    6  C14 UNK     1      18.053  12.839  10.595  1.00  0.00     0.047 A 
HETATM    7 Cl1  UNK     1      16.730  13.121  11.672  1.00  0.00    -0.083 Cl
HETATM    8  C19 UNK     1      19.144  13.707  10.652  1.00  0.00     0.048 A 
HETATM    9  C21 UNK     1      20.231  13.517   9.799  1.00  0.00     0.035 A 
HETATM   10  C20 UNK     1      20.228  12.459   8.889  1.00  0.00     0.025 A 
HETATM   11 Cl2  UNK     1      21.578  14.585   9.870  1.00  0.00    -0.084 Cl
HETATM   12  C15 UNK     1      19.137  11.592   8.831  1.00  0.00     0.016 A 
ENDBRANCH   3   5
BRANCH   2  13
HETATM   13  C1  UNK     1      15.586   8.898  10.435  1.00  0.00    -0.015 A 
HETATM   14  C4  UNK     1      14.311   9.388  10.691  1.00  0.00     0.052 A 
HETATM   15  C3  UNK     1      13.220   8.520  10.656  1.00  0.00     0.102 A 
HETATM   16  C2  UNK     1      13.413   7.169  10.365  1.00  0.00     0.103 A 
HETATM   17  C7  UNK     1      14.697   6.687  10.109  1.00  0.00     0.059 A 
HETATM   18  C6  UNK     1      15.787   7.555  10.145  1.00  0.00     0.024 A 
HETATM   19 Br1  UNK     1      17.508   6.833   9.788  1.00  0.00    -0.050 Br
BRANCH  15  20
HETATM   20  O2  UNK     1      11.971   9.003  10.906  1.00  0.00    -0.353 OA
HETATM   21  C22 UNK     1      11.216   9.462   9.786  1.00  0.00     0.210 C 
ENDBRANCH  15  20
BRANCH  16  22
HETATM   22  O1  UNK     1      12.354   6.312  10.327  1.00  0.00    -0.344 OA
BRANCH  22  23
HETATM   23  C5  UNK     1      12.370   5.309   9.314  1.00  0.00     0.214 C 
BRANCH  23  24
HETATM   24  C8  UNK     1      11.444   5.716   8.206  1.00  0.00    -0.034 A 
HETATM   25  C12 UNK     1      10.092   5.900   8.472  1.00  0.00     0.012 A 
HETATM   26  C16 UNK     1       9.231   6.279   7.442  1.00  0.00     0.043 A 
HETATM   27  C18 UNK     1       9.728   6.472   6.153  1.00  0.00     0.116 A 
HETATM   28  C17 UNK     1      11.085   6.286   5.894  1.00  0.00     0.043 A 
HETATM   29  F1  UNK     1       8.900   6.836   5.164  1.00  0.00    -0.206 F 
HETATM   30  C13 UNK     1      11.946   5.907   6.924  1.00  0.00     0.012 A 
ENDBRANCH  23  24
ENDBRANCH  22  23
ENDBRANCH  16  22
ENDBRANCH   2  13
TORSDOF 6
ENDMDL
MODEL 6
REMARK VINA RESULT:      -8.5     26.579     28.529
REMARK  6 active torsions:
REMARK  status: ('A' for Active; 'I' for Inactive)
REMARK    1  A    between atoms: C2_9  and  O1_5 
REMARK    2  A    between atoms: C5_12  and  O1_5 
REMARK    3  A    between atoms: C3_10  and  O2_6 
REMARK    4  A    between atoms: C1_8  and  C9_16 
REMARK    5  A    between atoms: C5_12  and  C8_15 
REMARK    6  A    between atoms: C10_17  and  C11_18 
ROOT
HETATM    1  N1  UNK     1      15.446  10.876   7.719  1.00  0.00    -0.191 NA
HETATM    2  C9  UNK     1      16.213   9.547  10.807  1.00  0.00     0.036 C 
HETATM    3  C10 UNK     1      16.562  10.620  10.051  1.00  0.00     0.057 C 
HETATM    4  C23 UNK     1      15.940  10.754   8.762  1.00  0.00     0.100 C 
ENDROOT
BRANCH   3   5
HETATM    5  C11 UNK     1      17.519  11.634  10.480  1.00  0.00     0.006 A 
HETATM    6  C14 UNK     1      17.146  12.721  11.269  1.00  0.00     0.047 A 
HETATM    7 Cl1  UNK     1      15.516  12.950  11.796  1.00  0.00    -0.083 Cl
HETATM    8  C19 UNK     1      18.100  13.664  11.653  1.00  0.00     0.048 A 
HETATM    9  C21 UNK     1      19.427  13.518  11.248  1.00  0.00     0.035 A 
HETATM   10  C20 UNK     1      19.800  12.430  10.459  1.00  0.00     0.025 A 
HETATM   11 Cl2  UNK     1      20.604  14.679  11.722  1.00  0.00    -0.084 Cl
HETATM   12  C15 UNK     1      18.846  11.488  10.074  1.00  0.00     0.016 A 
ENDBRANCH   3   5
BRANCH   2  13
HETATM   13  C1  UNK     1      15.250   8.503  10.425  1.00  0.00    -0.015 A 
HETATM   14  C4  UNK     1      15.769   7.309   9.940  1.00  0.00     0.052 A 
HETATM   15  C3  UNK     1      14.902   6.285   9.562  1.00  0.00     0.102 A 
HETATM   16  C2  UNK     1      13.522   6.464   9.670  1.00  0.00     0.103 A 
HETATM   17  C7  UNK     1      13.011   7.666  10.158  1.00  0.00     0.059 A 
HETATM   18  C6  UNK     1      13.878   8.690  10.536  1.00  0.00     0.024 A 
HETATM   19 Br1  UNK     1      13.116  10.303  11.191  1.00  0.00    -0.050 Br
BRANCH  15  20
HETATM   20  O2  UNK     1      15.413   5.114   9.088  1.00  0.00    -0.353 OA
HETATM   21  C22 UNK     1      15.557   4.045  10.020  1.00  0.00     0.210 C 
ENDBRANCH  15  20
BRANCH  16  22
HETATM   22  O1  UNK     1      12.665   5.469   9.304  1.00  0.00    -0.344 OA
BRANCH  22  23
HETATM   23  C5  UNK     1      12.515   5.227   7.907  1.00  0.00     0.214 C 
BRANCH  23  24
HETATM   24  C8  UNK     1      11.174   5.733   7.464  1.00  0.00    -0.034 A 
HETATM   25  C12 UNK     1      10.976   6.086   6.134  1.00  0.00     0.012 A 
HETATM   26  C16 UNK     1       9.729   6.556   5.723  1.00  0.00     0.043 A 
HETATM   27  C18 UNK     1       8.688   6.671   6.644  1.00  0.00     0.116 A 
HETATM   28  C17 UNK     1       8.894   6.315   7.977  1.00  0.00     0.043 A 
HETATM   29  F1  UNK     1       7.491   7.123   6.249  1.00  0.00    -0.206 F 
HETATM   30  C13 UNK     1      10.141   5.845   8.389  1.00  0.00     0.012 A 
ENDBRANCH  23  24
ENDBRANCH  22  23
ENDBRANCH  16  22
ENDBRANCH   2  13
TORSDOF 6
ENDMDL
MODEL 7
REMARK VINA RESULT:      -8.5     26.778     28.989
REMARK  6 active torsions:
REMARK  status: ('A' for Active; 'I' for Inactive)
REMARK    1  A    between atoms: C2_9  and  O1_5 
REMARK    2  A    between atoms: C5_12  and  O1_5 
REMARK    3  A    between atoms: C3_10  and  O2_6 
REMARK    4  A    between atoms: C1_8  and  C9_16 
REMARK    5  A    between atoms: C5_12  and  C8_15 
REMARK    6  A    between atoms: C10_17  and  C11_18 
ROOT
HETATM    1  N1  UNK     1      16.312  12.407  11.463  1.00  0.00    -0.191 NA
HETATM    2  C9  UNK     1      17.850  10.212   9.291  1.00  0.00     0.036 C 
HETATM    3  C10 UNK     1      18.167  11.330   9.996  1.00  0.00     0.057 C 
HETATM    4  C23 UNK     1      17.135  11.919  10.805  1.00  0.00     0.100 C 
ENDROOT
BRANCH   3   5
HETATM    5  C11 UNK     1      19.487  11.950   9.978  1.00  0.00     0.006 A 
HETATM    6  C14 UNK     1      19.932  12.717   8.902  1.00  0.00     0.047 A 
HETATM    7 Cl1  UNK     1      18.950  12.988   7.505  1.00  0.00    -0.083 Cl
HETATM    8  C19 UNK     1      21.205  13.290   8.934  1.00  0.00     0.048 A 
HETATM    9  C21 UNK     1      22.030  13.095  10.041  1.00  0.00     0.035 A 
HETATM   10  C20 UNK     1      21.583  12.327  11.117  1.00  0.00     0.025 A 
HETATM   11 Cl2  UNK     1      23.598  13.802  10.081  1.00  0.00    -0.084 Cl
HETATM   12  C15 UNK     1      20.312  11.754  11.086  1.00  0.00     0.016 A 
ENDBRANCH   3   5
BRANCH   2  13
HETATM   13  C1  UNK     1      16.539   9.546   9.281  1.00  0.00    -0.015 A 
HETATM   14  C4  UNK     1      16.406   8.397  10.051  1.00  0.00     0.052 A 
HETATM   15  C3  UNK     1      15.185   7.725  10.078  1.00  0.00     0.102 A 
HETATM   16  C2  UNK     1      14.107   8.206   9.334  1.00  0.00     0.103 A 
HETATM   17  C7  UNK     1      14.250   9.360   8.565  1.00  0.00     0.059 A 
HETATM   18  C6  UNK     1      15.471  10.033   8.537  1.00  0.00     0.024 A 
HETATM   19 Br1  UNK     1      15.599  11.598   7.468  1.00  0.00    -0.050 Br
BRANCH  15  20
HETATM   20  O2  UNK     1      15.056   6.599  10.835  1.00  0.00    -0.353 OA
HETATM   21  C22 UNK     1      15.475   5.370  10.244  1.00  0.00     0.210 C 
ENDBRANCH  15  20
BRANCH  16  22
HETATM   22  O1  UNK     1      12.908   7.557   9.354  1.00  0.00    -0.344 OA
BRANCH  22  23
HETATM   23  C5  UNK     1      12.716   6.524   8.391  1.00  0.00     0.214 C 
BRANCH  23  24
HETATM   24  C8  UNK     1      11.324   6.621   7.840  1.00  0.00    -0.034 A 
HETATM   25  C12 UNK     1      11.108   6.436   6.479  1.00  0.00     0.012 A 
HETATM   26  C16 UNK     1       9.814   6.525   5.967  1.00  0.00     0.043 A 
HETATM   27  C18 UNK     1       8.744   6.799   6.820  1.00  0.00     0.116 A 
HETATM   28  C17 UNK     1       8.968   6.983   8.184  1.00  0.00     0.043 A 
HETATM   29  F1  UNK     1       7.501   6.885   6.328  1.00  0.00    -0.206 F 
HETATM   30  C13 UNK     1      10.263   6.893   8.696  1.00  0.00     0.012 A 
ENDBRANCH  23  24
ENDBRANCH  22  23
ENDBRANCH  16  22
ENDBRANCH   2  13
TORSDOF 6
ENDMDL
MODEL 8
REMARK VINA RESULT:      -8.4      4.881      9.938
REMARK  6 active torsions:
REMARK  status: ('A' for Active; 'I' for Inactive)
REMARK    1  A    between atoms: C2_9  and  O1_5 
REMARK    2  A    between atoms: C5_12  and  O1_5 
REMARK    3  A    between atoms: C3_10  and  O2_6 
REMARK    4  A    between atoms: C1_8  and  C9_16 
REMARK    5  A    between atoms: C5_12  and  C8_15 
REMARK    6  A    between atoms: C10_17  and  C11_18 
ROOT
HETATM    1  N1  UNK     1      20.107   2.632  36.418  1.00  0.00    -0.191 NA
HETATM    2  C9  UNK     1      17.995   1.237  34.076  1.00  0.00     0.036 C 
HETATM    3  C10 UNK     1      18.497   2.460  34.386  1.00  0.00     0.057 C 
HETATM    4  C23 UNK     1      19.387   2.547  35.512  1.00  0.00     0.100 C 
ENDROOT
BRANCH   3   5
HETATM    5  C11 UNK     1      18.186   3.675  33.641  1.00  0.00     0.006 A 
HETATM    6  C14 UNK     1      18.179   3.709  32.246  1.00  0.00     0.047 A 
HETATM    7 Cl1  UNK     1      18.542   2.310  31.297  1.00  0.00    -0.083 Cl
HETATM    8  C19 UNK     1      17.874   4.896  31.580  1.00  0.00     0.048 A 
HETATM    9  C21 UNK     1      17.577   6.048  32.307  1.00  0.00     0.035 A 
HETATM   10  C20 UNK     1      17.584   6.014  33.702  1.00  0.00     0.025 A 
HETATM   11 Cl2  UNK     1      17.200   7.512  31.486  1.00  0.00    -0.084 Cl
HETATM   12  C15 UNK     1      17.889   4.827  34.369  1.00  0.00     0.016 A 
ENDBRANCH   3   5
BRANCH   2  13
HETATM   13  C1  UNK     1      18.282  -0.015  34.790  1.00  0.00    -0.015 A 
HETATM   14  C4  UNK     1      19.225  -0.865  34.225  1.00  0.00     0.052 A 
HETATM   15  C3  UNK     1      19.536  -2.067  34.860  1.00  0.00     0.102 A 
HETATM   16  C2  UNK     1      18.901  -2.410  36.054  1.00  0.00     0.103 A 
HETATM   17  C7  UNK     1      17.955  -1.551  36.613  1.00  0.00     0.059 A 
HETATM   18  C6  UNK     1      17.644  -0.349  35.978  1.00  0.00     0.024 A 
HETATM   19 Br1  UNK     1      16.347   0.776  36.793  1.00  0.00    -0.050 Br
BRANCH  15  20
HETATM   20  O2  UNK     1      20.462  -2.899  34.305  1.00  0.00    -0.353 OA
HETATM   21  C22 UNK     1      20.843  -2.636  32.956  1.00  0.00     0.210 C 
ENDBRANCH  15  20
BRANCH  16  22
HETATM   22  O1  UNK     1      19.198  -3.582  36.683  1.00  0.00    -0.344 OA
BRANCH  22  23
HETATM   23  C5  UNK     1      20.443  -3.648  37.374  1.00  0.00     0.214 C 
BRANCH  23  24
HETATM   24  C8  UNK     1      20.688  -5.063  37.808  1.00  0.00    -0.034 A 
HETATM   25  C12 UNK     1      21.948  -5.435  38.263  1.00  0.00     0.012 A 
HETATM   26  C16 UNK     1      22.175  -6.750  38.667  1.00  0.00     0.043 A 
HETATM   27  C18 UNK     1      21.141  -7.685  38.615  1.00  0.00     0.116 A 
HETATM   28  C17 UNK     1      19.879  -7.304  38.157  1.00  0.00     0.043 A 
HETATM   29  F1  UNK     1      21.360  -8.948  39.002  1.00  0.00    -0.206 F 
HETATM   30  C13 UNK     1      19.652  -5.989  37.753  1.00  0.00     0.012 A 
ENDBRANCH  23  24
ENDBRANCH  22  23
ENDBRANCH  16  22
ENDBRANCH   2  13
TORSDOF 6
ENDMDL
MODEL 9
REMARK VINA RESULT:      -8.3     27.437     29.060
REMARK  6 active torsions:
REMARK  status: ('A' for Active; 'I' for Inactive)
REMARK    1  A    between atoms: C2_9  and  O1_5 
REMARK    2  A    between atoms: C5_12  and  O1_5 
REMARK    3  A    between atoms: C3_10  and  O2_6 
REMARK    4  A    between atoms: C1_8  and  C9_16 
REMARK    5  A    between atoms: C5_12  and  C8_15 
REMARK    6  A    between atoms: C10_17  and  C11_18 
ROOT
HETATM    1  N1  UNK     1      12.660   9.864  10.790  1.00  0.00    -0.191 NA
HETATM    2  C9  UNK     1      13.971   8.088   8.141  1.00  0.00     0.036 C 
HETATM    3  C10 UNK     1      14.274   9.195   8.868  1.00  0.00     0.057 C 
HETATM    4  C23 UNK     1      13.376   9.558   9.930  1.00  0.00     0.100 C 
ENDROOT
BRANCH   3   5
HETATM    5  C11 UNK     1      15.454  10.019   8.631  1.00  0.00     0.006 A 
HETATM    6  C14 UNK     1      16.669   9.779   9.273  1.00  0.00     0.047 A 
HETATM    7 Cl1  UNK     1      16.865   8.484  10.402  1.00  0.00    -0.083 Cl
HETATM    8  C19 UNK     1      17.769  10.597   9.012  1.00  0.00     0.048 A 
HETATM    9  C21 UNK     1      17.654  11.653   8.109  1.00  0.00     0.035 A 
HETATM   10  C20 UNK     1      16.438  11.893   7.467  1.00  0.00     0.025 A 
HETATM   11 Cl2  UNK     1      19.010  12.661   7.785  1.00  0.00    -0.084 Cl
HETATM   12  C15 UNK     1      15.339  11.076   7.728  1.00  0.00     0.016 A 
ENDBRANCH   3   5
BRANCH   2  13
HETATM   13  C1  UNK     1      12.801   7.221   8.344  1.00  0.00    -0.015 A 
HETATM   14  C4  UNK     1      11.644   7.544   7.645  1.00  0.00     0.052 A 
HETATM   15  C3  UNK     1      10.504   6.757   7.800  1.00  0.00     0.102 A 
HETATM   16  C2  UNK     1      10.529   5.654   8.652  1.00  0.00     0.103 A 
HETATM   17  C7  UNK     1      11.695   5.337   9.350  1.00  0.00     0.059 A 
HETATM   18  C6  UNK     1      12.835   6.124   9.195  1.00  0.00     0.024 A 
HETATM   19 Br1  UNK     1      14.389   5.639  10.175  1.00  0.00    -0.050 Br
BRANCH  15  20
HETATM   20  O2  UNK     1       9.371   7.076   7.112  1.00  0.00    -0.353 OA
HETATM   21  C22 UNK     1       9.237   6.538   5.798  1.00  0.00     0.210 C 
ENDBRANCH  15  20
BRANCH  16  22
HETATM   22  O1  UNK     1       9.420   4.877   8.811  1.00  0.00    -0.344 OA
BRANCH  22  23
HETATM   23  C5  UNK     1       9.042   4.554  10.147  1.00  0.00     0.214 C 
BRANCH  23  24
HETATM   24  C8  UNK     1       7.830   5.356  10.520  1.00  0.00    -0.034 A 
HETATM   25  C12 UNK     1       6.957   4.874  11.488  1.00  0.00     0.012 A 
HETATM   26  C16 UNK     1       5.830   5.620  11.835  1.00  0.00     0.043 A 
HETATM   27  C18 UNK     1       5.585   6.843  11.211  1.00  0.00     0.116 A 
HETATM   28  C17 UNK     1       6.465   7.320  10.240  1.00  0.00     0.043 A 
HETATM   29  F1  UNK     1       4.502   7.559  11.543  1.00  0.00    -0.206 F 
HETATM   30  C13 UNK     1       7.592   6.574   9.893  1.00  0.00     0.012 A 
ENDBRANCH  23  24
ENDBRANCH  22  23
ENDBRANCH  16  22
ENDBRANCH   2  13
TORSDOF 6
ENDMDL
MODEL 10
REMARK VINA RESULT:      -8.3     11.131     13.834
REMARK  6 active torsions:
REMARK  status: ('A' for Active; 'I' for Inactive)
REMARK    1  A    between atoms: C2_9  and  O1_5 
REMARK    2  A    between atoms: C5_12  and  O1_5 
REMARK    3  A    between atoms: C3_10  and  O2_6 
REMARK    4  A    between atoms: C1_8  and  C9_16 
REMARK    5  A    between atoms: C5_12  and  C8_15 
REMARK    6  A    between atoms: C10_17  and  C11_18 
ROOT
HETATM    1  N1  UNK     1      29.156  -6.513  34.650  1.00  0.00    -0.191 NA
HETATM    2  C9  UNK     1      30.581  -7.895  37.471  1.00  0.00     0.036 C 
HETATM    3  C10 UNK     1      30.984  -7.387  36.277  1.00  0.00     0.057 C 
HETATM    4  C23 UNK     1      29.967  -6.906  35.383  1.00  0.00     0.100 C 
ENDROOT
BRANCH   3   5
HETATM    5  C11 UNK     1      32.381  -7.302  35.865  1.00  0.00     0.006 A 
HETATM    6  C14 UNK     1      32.999  -8.307  35.122  1.00  0.00     0.047 A 
HETATM    7 Cl1  UNK     1      32.152  -9.734  34.635  1.00  0.00    -0.083 Cl
HETATM    8  C19 UNK     1      34.338  -8.177  34.752  1.00  0.00     0.048 A 
HETATM    9  C21 UNK     1      35.058  -7.043  35.125  1.00  0.00     0.035 A 
HETATM   10  C20 UNK     1      34.439  -6.037  35.868  1.00  0.00     0.025 A 
HETATM   11 Cl2  UNK     1      36.708  -6.881  34.668  1.00  0.00    -0.084 Cl
HETATM   12  C15 UNK     1      33.101  -6.166  36.239  1.00  0.00     0.016 A 
ENDBRANCH   3   5
BRANCH   2  13
HETATM   13  C1  UNK     1      29.190  -7.997  37.935  1.00  0.00    -0.015 A 
HETATM   14  C4  UNK     1      28.534  -9.201  37.713  1.00  0.00     0.052 A 
HETATM   15  C3  UNK     1      27.213  -9.353  38.132  1.00  0.00     0.102 A 
HETATM   16  C2  UNK     1      26.557  -8.299  38.769  1.00  0.00     0.103 A 
HETATM   17  C7  UNK     1      27.224  -7.093  38.988  1.00  0.00     0.059 A 
HETATM   18  C6  UNK     1      28.545  -6.942  38.569  1.00  0.00     0.024 A 
HETATM   19 Br1  UNK     1      29.395  -5.274  38.897  1.00  0.00    -0.050 Br
BRANCH  15  20
HETATM   20  O2  UNK     1      26.571 -10.535  37.913  1.00  0.00    -0.353 OA
HETATM   21  C22 UNK     1      26.020 -10.744  36.615  1.00  0.00     0.210 C 
ENDBRANCH  15  20
BRANCH  16  22
HETATM   22  O1  UNK     1      25.266  -8.436  39.183  1.00  0.00    -0.344 OA
BRANCH  22  23
HETATM   23  C5  UNK     1      24.362  -7.389  38.840  1.00  0.00     0.214 C 
BRANCH  23  24
HETATM   24  C8  UNK     1      22.993  -7.971  38.638  1.00  0.00    -0.034 A 
HETATM   25  C12 UNK     1      22.069  -7.935  39.676  1.00  0.00     0.012 A 
HETATM   26  C16 UNK     1      20.797  -8.475  39.487  1.00  0.00     0.043 A 
HETATM   27  C18 UNK     1      20.458  -9.049  38.262  1.00  0.00     0.116 A 
HETATM   28  C17 UNK     1      21.390  -9.082  37.225  1.00  0.00     0.043 A 
HETATM   29  F1  UNK     1      19.237  -9.569  38.081  1.00  0.00    -0.206 F 
HETATM   30  C13 UNK     1      22.662  -8.542  37.413  1.00  0.00     0.012 A 
ENDBRANCH  23  24
ENDBRANCH  22  23
ENDBRANCH  16  22
ENDBRANCH   2  13
TORSDOF 6
ENDMDL
