MODEL 1
REMARK VINA RESULT:      -8.7      0.000      0.000
REMARK  4 active torsions:
REMARK  status: ('A' for Active; 'I' for Inactive)
REMARK    1  A    between atoms: C14_20  and  O3_3 
REMARK    2  A    between atoms: C20_26  and  O3_3 
REMARK    3  A    between atoms: C12_18  and  C6_12 
REMARK    4  A    between atoms: C10_16  and  C14_20 
ROOT
HETATM    1  O1  UNK     1      32.441  -8.721  34.465  1.00  0.00    -0.293 OA
HETATM    2  N1  UNK     1      30.894  -5.896  37.935  1.00  0.00    -0.362 N 
HETATM    3  C1  UNK     1      34.145  -5.881  36.004  1.00  0.00    -0.036 C 
HETATM    4  C2  UNK     1      33.250  -5.761  37.256  1.00  0.00     0.067 C 
HETATM    5  C3  UNK     1      34.089  -7.323  35.481  1.00  0.00     0.092 C 
HETATM    6  C4  UNK     1      31.875  -6.350  37.074  1.00  0.00     0.021 C 
HETATM    7  C5  UNK     1      31.583  -7.276  36.138  1.00  0.00     0.024 C 
HETATM    8  C6  UNK     1      30.163  -7.806  35.968  1.00  0.00     0.104 C 
HETATM    9  C7  UNK     1      32.675  -7.828  35.279  1.00  0.00     0.159 C 
HETATM   10  C8  UNK     1      35.596  -5.535  36.385  1.00  0.00     0.015 C 
HETATM   11  C9  UNK     1      33.690  -4.892  34.909  1.00  0.00     0.015 C 
HETATM   12  C10 UNK     1      29.219  -7.329  37.072  1.00  0.00     0.052 C 
HETATM   13  C11 UNK     1      29.602  -6.397  37.975  1.00  0.00     0.018 C 
HETATM   14  C13 UNK     1      28.732  -5.829  39.063  1.00  0.00     0.069 C 
HETATM   15  H12 UNK     1      31.153  -5.204  38.628  1.00  0.00     0.165 HD
ENDROOT
BRANCH   8  16
HETATM   16  C12 UNK     1      29.619  -7.421  34.618  1.00  0.00     0.029 A 
HETATM   17  C15 UNK     1      29.306  -8.499  33.645  1.00  0.00     0.194 A 
HETATM   18  O5  UNK     1      29.476  -9.682  33.909  1.00  0.00    -0.287 OA
HETATM   19  C17 UNK     1      28.777  -8.065  32.339  1.00  0.00     0.049 A 
HETATM   20  C18 UNK     1      28.604  -6.703  32.094  1.00  0.00     0.089 A 
HETATM   21  C19 UNK     1      28.451  -9.003  31.356  1.00  0.00     0.025 A 
HETATM   22  O2  UNK     1      28.907  -5.739  33.023  1.00  0.00    -0.321 OA
HETATM   23  C21 UNK     1      28.105  -6.270  30.866  1.00  0.00     0.039 A 
HETATM   24  C16 UNK     1      29.399  -6.156  34.235  1.00  0.00     0.154 A 
HETATM   25  C23 UNK     1      27.779  -7.205  29.882  1.00  0.00     0.009 A 
HETATM   26  C22 UNK     1      27.951  -8.568  30.127  1.00  0.00    -0.061 A 
HETATM   27  C26 UNK     1      27.601  -9.562  29.072  1.00  0.00     0.048 C 
ENDBRANCH   8  16
BRANCH  12  28
HETATM   28  C14 UNK     1      27.897  -7.974  37.137  1.00  0.00     0.292 C 
HETATM   29  O4  UNK     1      26.859  -7.399  36.867  1.00  0.00    -0.259 OA
BRANCH  28  30
HETATM   30  O3  UNK     1      28.068  -9.258  37.534  1.00  0.00    -0.313 OA
BRANCH  30  31
HETATM   31  C20 UNK     1      28.303  -9.433  38.935  1.00  0.00     0.124 C 
HETATM   32  C24 UNK     1      27.181 -10.271  39.531  1.00  0.00     0.040 C 
HETATM   33  C25 UNK     1      29.663 -10.081  39.138  1.00  0.00     0.040 C 
ENDBRANCH  30  31
ENDBRANCH  28  30
ENDBRANCH  12  28
TORSDOF 4
ENDMDL
MODEL 2
REMARK VINA RESULT:      -8.4      2.229      6.470
REMARK  4 active torsions:
REMARK  status: ('A' for Active; 'I' for Inactive)
REMARK    1  A    between atoms: C14_20  and  O3_3 
REMARK    2  A    between atoms: C20_26  and  O3_3 
REMARK    3  A    between atoms: C12_18  and  C6_12 
REMARK    4  A    between atoms: C10_16  and  C14_20 
ROOT
HETATM    1  O1  UNK     1      31.008  -9.958  36.443  1.00  0.00    -0.293 OA
HETATM    2  N1  UNK     1      28.496  -6.382  34.622  1.00  0.00    -0.362 N 
HETATM    3  C1  UNK     1      28.982  -7.484  38.207  1.00  0.00    -0.036 C 
HETATM    4  C2  UNK     1      28.189  -6.965  36.989  1.00  0.00     0.067 C 
HETATM    5  C3  UNK     1      29.453  -8.918  37.927  1.00  0.00     0.092 C 
HETATM    6  C4  UNK     1      28.888  -7.191  35.672  1.00  0.00     0.021 C 
HETATM    7  C5  UNK     1      29.843  -8.125  35.491  1.00  0.00     0.024 C 
HETATM    8  C6  UNK     1      30.550  -8.282  34.148  1.00  0.00     0.104 C 
HETATM    9  C7  UNK     1      30.187  -9.056  36.609  1.00  0.00     0.159 C 
HETATM   10  C8  UNK     1      28.065  -7.484  39.443  1.00  0.00     0.015 C 
HETATM   11  C9  UNK     1      30.188  -6.569  38.506  1.00  0.00     0.015 C 
HETATM   12  C10 UNK     1      29.921  -7.427  33.047  1.00  0.00     0.052 C 
HETATM   13  C11 UNK     1      28.961  -6.515  33.323  1.00  0.00     0.018 C 
HETATM   14  C13 UNK     1      28.318  -5.596  32.320  1.00  0.00     0.069 C 
HETATM   15  H12 UNK     1      27.772  -5.695  34.797  1.00  0.00     0.165 HD
ENDROOT
BRANCH   8  16
HETATM   16  C12 UNK     1      32.013  -7.954  34.286  1.00  0.00     0.029 A 
HETATM   17  C15 UNK     1      33.008  -8.887  33.699  1.00  0.00     0.194 A 
HETATM   18  O5  UNK     1      32.674  -9.907  33.111  1.00  0.00    -0.287 OA
HETATM   19  C17 UNK     1      34.426  -8.518  33.865  1.00  0.00     0.049 A 
HETATM   20  C18 UNK     1      34.747  -7.344  34.545  1.00  0.00     0.089 A 
HETATM   21  C19 UNK     1      35.438  -9.331  33.347  1.00  0.00     0.025 A 
HETATM   22  O2  UNK     1      33.794  -6.509  35.073  1.00  0.00    -0.321 OA
HETATM   23  C21 UNK     1      36.082  -6.975  34.713  1.00  0.00     0.039 A 
HETATM   24  C16 UNK     1      32.478  -6.864  34.912  1.00  0.00     0.154 A 
HETATM   25  C23 UNK     1      37.095  -7.785  34.197  1.00  0.00     0.009 A 
HETATM   26  C22 UNK     1      36.774  -8.960  33.516  1.00  0.00    -0.061 A 
HETATM   27  C26 UNK     1      37.860  -9.821  32.967  1.00  0.00     0.048 C 
ENDBRANCH   8  16
BRANCH  12  28
HETATM   28  C14 UNK     1      30.371  -7.688  31.670  1.00  0.00     0.292 C 
HETATM   29  O4  UNK     1      31.232  -7.032  31.114  1.00  0.00    -0.259 OA
BRANCH  28  30
HETATM   30  O3  UNK     1      29.670  -8.740  31.183  1.00  0.00    -0.313 OA
BRANCH  30  31
HETATM   31  C20 UNK     1      28.926  -8.474  29.991  1.00  0.00     0.124 C 
HETATM   32  C24 UNK     1      29.341  -9.460  28.909  1.00  0.00     0.040 C 
HETATM   33  C25 UNK     1      27.439  -8.562  30.297  1.00  0.00     0.040 C 
ENDBRANCH  30  31
ENDBRANCH  28  30
ENDBRANCH  12  28
TORSDOF 4
ENDMDL
MODEL 3
REMARK VINA RESULT:      -8.4      1.688      2.246
REMARK  4 active torsions:
REMARK  status: ('A' for Active; 'I' for Inactive)
REMARK    1  A    between atoms: C14_20  and  O3_3 
REMARK    2  A    between atoms: C20_26  and  O3_3 
REMARK    3  A    between atoms: C12_18  and  C6_12 
REMARK    4  A    between atoms: C10_16  and  C14_20 
ROOT
HETATM    1  O1  UNK     1      33.154  -9.220  33.600  1.00  0.00    -0.293 OA
HETATM    2  N1  UNK     1      33.734  -5.897  36.921  1.00  0.00    -0.362 N 
HETATM    3  C1  UNK     1      36.076  -7.119  34.216  1.00  0.00    -0.036 C 
HETATM    4  C2  UNK     1      35.687  -6.639  35.630  1.00  0.00     0.067 C 
HETATM    5  C3  UNK     1      35.394  -8.465  33.935  1.00  0.00     0.092 C 
HETATM    6  C4  UNK     1      34.207  -6.704  35.904  1.00  0.00     0.021 C 
HETATM    7  C5  UNK     1      33.361  -7.500  35.219  1.00  0.00     0.024 C 
HETATM    8  C6  UNK     1      31.863  -7.494  35.507  1.00  0.00     0.104 C 
HETATM    9  C7  UNK     1      33.901  -8.439  34.188  1.00  0.00     0.159 C 
HETATM   10  C8  UNK     1      37.604  -7.300  34.147  1.00  0.00     0.015 C 
HETATM   11  C9  UNK     1      35.670  -6.077  33.153  1.00  0.00     0.015 C 
HETATM   12  C10 UNK     1      31.503  -6.669  36.743  1.00  0.00     0.052 C 
HETATM   13  C11 UNK     1      32.423  -5.900  37.371  1.00  0.00     0.018 C 
HETATM   14  C13 UNK     1      32.155  -5.017  38.559  1.00  0.00     0.069 C 
HETATM   15  H12 UNK     1      34.401  -5.316  37.415  1.00  0.00     0.165 HD
ENDROOT
BRANCH   8  16
HETATM   16  C12 UNK     1      31.101  -6.993  34.309  1.00  0.00     0.029 A 
HETATM   17  C15 UNK     1      30.124  -7.902  33.658  1.00  0.00     0.194 A 
HETATM   18  O5  UNK     1      29.921  -9.038  34.065  1.00  0.00    -0.287 OA
HETATM   19  C17 UNK     1      29.407  -7.360  32.488  1.00  0.00     0.049 A 
HETATM   20  C18 UNK     1      29.680  -6.059  32.068  1.00  0.00     0.089 A 
HETATM   21  C19 UNK     1      28.467  -8.137  31.807  1.00  0.00     0.025 A 
HETATM   22  O2  UNK     1      30.592  -5.252  32.700  1.00  0.00    -0.321 OA
HETATM   23  C21 UNK     1      29.013  -5.526  30.965  1.00  0.00     0.039 A 
HETATM   24  C16 UNK     1      31.252  -5.768  33.787  1.00  0.00     0.154 A 
HETATM   25  C23 UNK     1      28.073  -6.299  30.282  1.00  0.00     0.009 A 
HETATM   26  C22 UNK     1      27.801  -7.602  30.703  1.00  0.00    -0.061 A 
HETATM   27  C26 UNK     1      26.795  -8.424  29.970  1.00  0.00     0.048 C 
ENDBRANCH   8  16
BRANCH  12  28
HETATM   28  C14 UNK     1      30.125  -6.796  37.245  1.00  0.00     0.292 C 
HETATM   29  O4  UNK     1      29.184  -6.181  36.778  1.00  0.00    -0.259 OA
BRANCH  28  30
HETATM   30  O3  UNK     1      30.124  -7.683  38.269  1.00  0.00    -0.313 OA
BRANCH  30  31
HETATM   31  C20 UNK     1      29.770  -9.023  37.911  1.00  0.00     0.124 C 
HETATM   32  C24 UNK     1      30.931  -9.951  38.235  1.00  0.00     0.040 C 
HETATM   33  C25 UNK     1      28.503  -9.421  38.651  1.00  0.00     0.040 C 
ENDBRANCH  30  31
ENDBRANCH  28  30
ENDBRANCH  12  28
TORSDOF 4
ENDMDL
MODEL 4
REMARK VINA RESULT:      -8.4      2.692      6.880
REMARK  4 active torsions:
REMARK  status: ('A' for Active; 'I' for Inactive)
REMARK    1  A    between atoms: C14_20  and  O3_3 
REMARK    2  A    between atoms: C20_26  and  O3_3 
REMARK    3  A    between atoms: C12_18  and  C6_12 
REMARK    4  A    between atoms: C10_16  and  C14_20 
ROOT
HETATM    1  O1  UNK     1      32.736  -8.367  34.301  1.00  0.00    -0.293 OA
HETATM    2  N1  UNK     1      29.438 -10.034  31.342  1.00  0.00    -0.362 N 
HETATM    3  C1  UNK     1      32.236 -11.803  33.170  1.00  0.00    -0.036 C 
HETATM    4  C2  UNK     1      31.312 -11.491  31.974  1.00  0.00     0.067 C 
HETATM    5  C3  UNK     1      33.106 -10.574  33.469  1.00  0.00     0.092 C 
HETATM    6  C4  UNK     1      30.586 -10.176  32.099  1.00  0.00     0.021 C 
HETATM    7  C5  UNK     1      31.008  -9.169  32.890  1.00  0.00     0.024 C 
HETATM    8  C6  UNK     1      30.210  -7.874  33.013  1.00  0.00     0.104 C 
HETATM    9  C7  UNK     1      32.302  -9.300  33.627  1.00  0.00     0.159 C 
HETATM   10  C8  UNK     1      33.144 -12.993  32.809  1.00  0.00     0.015 C 
HETATM   11  C9  UNK     1      31.409 -12.193  34.413  1.00  0.00     0.015 C 
HETATM   12  C10 UNK     1      29.051  -7.798  32.019  1.00  0.00     0.052 C 
HETATM   13  C11 UNK     1      28.702  -8.863  31.259  1.00  0.00     0.018 C 
HETATM   14  C13 UNK     1      27.549  -8.901  30.292  1.00  0.00     0.069 C 
HETATM   15  H12 UNK     1      29.156 -10.811  30.756  1.00  0.00     0.165 HD
ENDROOT
BRANCH   8  16
HETATM   16  C12 UNK     1      29.699  -7.707  34.419  1.00  0.00     0.029 A 
HETATM   17  C15 UNK     1      30.055  -6.471  35.161  1.00  0.00     0.194 A 
HETATM   18  O5  UNK     1      30.747  -5.591  34.666  1.00  0.00    -0.287 OA
HETATM   19  C17 UNK     1      29.529  -6.359  36.534  1.00  0.00     0.049 A 
HETATM   20  C18 UNK     1      28.747  -7.393  37.048  1.00  0.00     0.089 A 
HETATM   21  C19 UNK     1      29.808  -5.234  37.315  1.00  0.00     0.025 A 
HETATM   22  O2  UNK     1      28.441  -8.520  36.326  1.00  0.00    -0.321 OA
HETATM   23  C21 UNK     1      28.238  -7.308  38.344  1.00  0.00     0.039 A 
HETATM   24  C16 UNK     1      28.938  -8.611  35.050  1.00  0.00     0.154 A 
HETATM   25  C23 UNK     1      28.515  -6.186  39.126  1.00  0.00     0.009 A 
HETATM   26  C22 UNK     1      29.298  -5.151  38.612  1.00  0.00    -0.061 A 
HETATM   27  C26 UNK     1      29.591  -3.954  39.451  1.00  0.00     0.048 C 
ENDBRANCH   8  16
BRANCH  12  28
HETATM   28  C14 UNK     1      28.374  -6.498  31.890  1.00  0.00     0.292 C 
HETATM   29  O4  UNK     1      27.583  -6.072  32.712  1.00  0.00    -0.259 OA
BRANCH  28  30
HETATM   30  O3  UNK     1      28.787  -5.913  30.741  1.00  0.00    -0.313 OA
BRANCH  30  31
HETATM   31  C20 UNK     1      30.096  -5.335  30.791  1.00  0.00     0.124 C 
HETATM   32  C24 UNK     1      30.964  -5.965  29.712  1.00  0.00     0.040 C 
HETATM   33  C25 UNK     1      29.985  -3.828  30.621  1.00  0.00     0.040 C 
ENDBRANCH  30  31
ENDBRANCH  28  30
ENDBRANCH  12  28
TORSDOF 4
ENDMDL
MODEL 5
REMARK VINA RESULT:      -8.3      1.950      5.902
REMARK  4 active torsions:
REMARK  status: ('A' for Active; 'I' for Inactive)
REMARK    1  A    between atoms: C14_20  and  O3_3 
REMARK    2  A    between atoms: C20_26  and  O3_3 
REMARK    3  A    between atoms: C12_18  and  C6_12 
REMARK    4  A    between atoms: C10_16  and  C14_20 
ROOT
HETATM    1  O1  UNK     1      30.728  -5.273  36.136  1.00  0.00    -0.293 OA
HETATM    2  N1  UNK     1      32.880  -8.696  33.673  1.00  0.00    -0.362 N 
HETATM    3  C1  UNK     1      34.248  -6.240  36.201  1.00  0.00    -0.036 C 
HETATM    4  C2  UNK     1      34.254  -7.074  34.903  1.00  0.00     0.067 C 
HETATM    5  C3  UNK     1      33.114  -5.207  36.131  1.00  0.00     0.092 C 
HETATM    6  C4  UNK     1      32.896  -7.603  34.519  1.00  0.00     0.021 C 
HETATM    7  C5  UNK     1      31.740  -7.060  34.952  1.00  0.00     0.024 C 
HETATM    8  C6  UNK     1      30.392  -7.663  34.568  1.00  0.00     0.104 C 
HETATM    9  C7  UNK     1      31.772  -5.820  35.786  1.00  0.00     0.159 C 
HETATM   10  C8  UNK     1      35.595  -5.506  36.335  1.00  0.00     0.015 C 
HETATM   11  C9  UNK     1      34.075  -7.149  37.436  1.00  0.00     0.015 C 
HETATM   12  C10 UNK     1      30.518  -8.771  33.521  1.00  0.00     0.052 C 
HETATM   13  C11 UNK     1      31.725  -9.251  33.143  1.00  0.00     0.018 C 
HETATM   14  C13 UNK     1      31.949 -10.369  32.161  1.00  0.00     0.069 C 
HETATM   15  H12 UNK     1      33.769  -9.072  33.366  1.00  0.00     0.165 HD
ENDROOT
BRANCH   8  16
HETATM   16  C12 UNK     1      29.685  -8.183  35.791  1.00  0.00     0.029 A 
HETATM   17  C15 UNK     1      28.299  -7.721  36.058  1.00  0.00     0.194 A 
HETATM   18  O5  UNK     1      27.721  -6.936  35.319  1.00  0.00    -0.287 OA
HETATM   19  C17 UNK     1      27.654  -8.261  37.269  1.00  0.00     0.049 A 
HETATM   20  C18 UNK     1      28.361  -9.152  38.076  1.00  0.00     0.089 A 
HETATM   21  C19 UNK     1      26.350  -7.888  37.608  1.00  0.00     0.025 A 
HETATM   22  O2  UNK     1      29.642  -9.553  37.791  1.00  0.00    -0.321 OA
HETATM   23  C21 UNK     1      27.770  -9.675  39.226  1.00  0.00     0.039 A 
HETATM   24  C16 UNK     1      30.231  -9.043  36.661  1.00  0.00     0.154 A 
HETATM   25  C23 UNK     1      26.469  -9.305  39.567  1.00  0.00     0.009 A 
HETATM   26  C22 UNK     1      25.761  -8.413  38.760  1.00  0.00    -0.061 A 
HETATM   27  C26 UNK     1      24.370  -8.020  39.129  1.00  0.00     0.048 C 
ENDBRANCH   8  16
BRANCH  12  28
HETATM   28  C14 UNK     1      29.267  -9.247  32.908  1.00  0.00     0.292 C 
HETATM   29  O4  UNK     1      28.776 -10.334  33.149  1.00  0.00    -0.259 OA
BRANCH  28  30
HETATM   30  O3  UNK     1      28.808  -8.284  32.073  1.00  0.00    -0.313 OA
BRANCH  30  31
HETATM   31  C20 UNK     1      28.965  -8.565  30.679  1.00  0.00     0.124 C 
HETATM   32  C24 UNK     1      27.593  -8.702  30.036  1.00  0.00     0.040 C 
HETATM   33  C25 UNK     1      29.784  -7.458  30.034  1.00  0.00     0.040 C 
ENDBRANCH  30  31
ENDBRANCH  28  30
ENDBRANCH  12  28
TORSDOF 4
ENDMDL
MODEL 6
REMARK VINA RESULT:      -8.2      3.267      6.668
REMARK  4 active torsions:
REMARK  status: ('A' for Active; 'I' for Inactive)
REMARK    1  A    between atoms: C14_20  and  O3_3 
REMARK    2  A    between atoms: C20_26  and  O3_3 
REMARK    3  A    between atoms: C12_18  and  C6_12 
REMARK    4  A    between atoms: C10_16  and  C14_20 
ROOT
HETATM    1  O1  UNK     1      34.736  -6.361  33.577  1.00  0.00    -0.293 OA
HETATM    2  N1  UNK     1      32.875  -8.857  30.011  1.00  0.00    -0.362 N 
HETATM    3  C1  UNK     1      35.995  -9.438  32.066  1.00  0.00    -0.036 C 
HETATM    4  C2  UNK     1      35.145  -9.395  30.779  1.00  0.00     0.067 C 
HETATM    5  C3  UNK     1      36.163  -8.011  32.607  1.00  0.00     0.092 C 
HETATM    6  C4  UNK     1      33.883  -8.582  30.915  1.00  0.00     0.021 C 
HETATM    7  C5  UNK     1      33.714  -7.627  31.852  1.00  0.00     0.024 C 
HETATM    8  C6  UNK     1      32.398  -6.865  31.975  1.00  0.00     0.104 C 
HETATM    9  C7  UNK     1      34.848  -7.274  32.760  1.00  0.00     0.159 C 
HETATM   10  C8  UNK     1      37.381 -10.022  31.736  1.00  0.00     0.015 C 
HETATM   11  C9  UNK     1      35.335 -10.342  33.128  1.00  0.00     0.015 C 
HETATM   12  C10 UNK     1      31.432  -7.167  30.829  1.00  0.00     0.052 C 
HETATM   13  C11 UNK     1      31.689  -8.144  29.929  1.00  0.00     0.018 C 
HETATM   14  C13 UNK     1      30.780  -8.548  28.799  1.00  0.00     0.069 C 
HETATM   15  H12 UNK     1      33.041  -9.578  29.319  1.00  0.00     0.165 HD
ENDROOT
BRANCH   8  16
HETATM   16  C12 UNK     1      31.743  -7.162  33.297  1.00  0.00     0.029 A 
HETATM   17  C15 UNK     1      31.465  -6.033  34.221  1.00  0.00     0.194 A 
HETATM   18  O5  UNK     1      31.751  -4.877  33.939  1.00  0.00    -0.287 OA
HETATM   19  C17 UNK     1      30.823  -6.381  35.502  1.00  0.00     0.049 A 
HETATM   20  C18 UNK     1      30.520  -7.716  35.770  1.00  0.00     0.089 A 
HETATM   21  C19 UNK     1      30.519  -5.389  36.439  1.00  0.00     0.025 A 
HETATM   22  O2  UNK     1      30.795  -8.729  34.886  1.00  0.00    -0.321 OA
HETATM   23  C21 UNK     1      29.913  -8.067  36.975  1.00  0.00     0.039 A 
HETATM   24  C16 UNK     1      31.393  -8.392  33.698  1.00  0.00     0.154 A 
HETATM   25  C23 UNK     1      29.608  -7.079  37.913  1.00  0.00     0.009 A 
HETATM   26  C22 UNK     1      29.911  -5.744  37.645  1.00  0.00    -0.061 A 
HETATM   27  C26 UNK     1      29.584  -4.692  38.650  1.00  0.00     0.048 C 
ENDBRANCH   8  16
BRANCH  12  28
HETATM   28  C14 UNK     1      30.243  -6.307  30.722  1.00  0.00     0.292 C 
HETATM   29  O4  UNK     1      30.291  -5.141  30.375  1.00  0.00    -0.259 OA
BRANCH  28  30
HETATM   30  O3  UNK     1      29.155  -7.036  31.070  1.00  0.00    -0.313 OA
BRANCH  30  31
HETATM   31  C20 UNK     1      27.999  -6.270  31.422  1.00  0.00     0.124 C 
HETATM   32  C24 UNK     1      26.762  -6.925  30.826  1.00  0.00     0.040 C 
HETATM   33  C25 UNK     1      27.910  -6.164  32.936  1.00  0.00     0.040 C 
ENDBRANCH  30  31
ENDBRANCH  28  30
ENDBRANCH  12  28
TORSDOF 4
ENDMDL
MODEL 7
REMARK VINA RESULT:      -8.1      2.859      6.269
REMARK  4 active torsions:
REMARK  status: ('A' for Active; 'I' for Inactive)
REMARK    1  A    between atoms: C14_20  and  O3_3 
REMARK    2  A    between atoms: C20_26  and  O3_3 
REMARK    3  A    between atoms: C12_18  and  C6_12 
REMARK    4  A    between atoms: C10_16  and  C14_20 
ROOT
HETATM    1  O1  UNK     1      31.256  -6.405  30.479  1.00  0.00    -0.293 OA
HETATM    2  N1  UNK     1      28.808  -6.151  34.523  1.00  0.00    -0.362 N 
HETATM    3  C1  UNK     1      27.694  -7.005  31.012  1.00  0.00    -0.036 C 
HETATM    4  C2  UNK     1      27.583  -6.347  32.403  1.00  0.00     0.067 C 
HETATM    5  C3  UNK     1      28.879  -6.388  30.256  1.00  0.00     0.092 C 
HETATM    6  C4  UNK     1      28.890  -6.289  33.150  1.00  0.00     0.021 C 
HETATM    7  C5  UNK     1      30.093  -6.357  32.544  1.00  0.00     0.024 C 
HETATM    8  C6  UNK     1      31.387  -6.339  33.353  1.00  0.00     0.104 C 
HETATM    9  C7  UNK     1      30.168  -6.408  31.052  1.00  0.00     0.159 C 
HETATM   10  C8  UNK     1      26.397  -6.742  30.224  1.00  0.00     0.015 C 
HETATM   11  C9  UNK     1      27.873  -8.532  31.142  1.00  0.00     0.015 C 
HETATM   12  C10 UNK     1      31.152  -6.040  34.834  1.00  0.00     0.052 C 
HETATM   13  C11 UNK     1      29.905  -5.984  35.354  1.00  0.00     0.018 C 
HETATM   14  C13 UNK     1      29.575  -5.746  36.803  1.00  0.00     0.069 C 
HETATM   15  H12 UNK     1      27.887  -6.098  34.940  1.00  0.00     0.165 HD
ENDROOT
BRANCH   8  16
HETATM   16  C12 UNK     1      32.120  -7.645  33.198  1.00  0.00     0.029 A 
HETATM   17  C15 UNK     1      33.569  -7.611  32.875  1.00  0.00     0.194 A 
HETATM   18  O5  UNK     1      34.179  -6.560  32.734  1.00  0.00    -0.287 OA
HETATM   19  C17 UNK     1      34.236  -8.918  32.733  1.00  0.00     0.049 A 
HETATM   20  C18 UNK     1      33.490 -10.084  32.905  1.00  0.00     0.089 A 
HETATM   21  C19 UNK     1      35.599  -8.993  32.431  1.00  0.00     0.025 A 
HETATM   22  O2  UNK     1      32.151 -10.069  33.203  1.00  0.00    -0.321 OA
HETATM   23  C21 UNK     1      34.101 -11.331  32.775  1.00  0.00     0.039 A 
HETATM   24  C16 UNK     1      31.542  -8.846  33.332  1.00  0.00     0.154 A 
HETATM   25  C23 UNK     1      35.462 -11.409  32.474  1.00  0.00     0.009 A 
HETATM   26  C22 UNK     1      36.208 -10.243  32.302  1.00  0.00    -0.061 A 
HETATM   27  C26 UNK     1      37.662 -10.331  31.980  1.00  0.00     0.048 C 
ENDBRANCH   8  16
BRANCH  12  28
HETATM   28  C14 UNK     1      32.346  -5.760  35.649  1.00  0.00     0.292 C 
HETATM   29  O4  UNK     1      32.858  -4.659  35.728  1.00  0.00    -0.259 OA
BRANCH  28  30
HETATM   30  O3  UNK     1      32.730  -6.911  36.253  1.00  0.00    -0.313 OA
BRANCH  30  31
HETATM   31  C20 UNK     1      32.947  -6.811  37.665  1.00  0.00     0.124 C 
HETATM   32  C24 UNK     1      32.230  -7.955  38.365  1.00  0.00     0.040 C 
HETATM   33  C25 UNK     1      34.442  -6.824  37.944  1.00  0.00     0.040 C 
ENDBRANCH  30  31
ENDBRANCH  28  30
ENDBRANCH  12  28
TORSDOF 4
ENDMDL
MODEL 8
REMARK VINA RESULT:      -8.0      3.647      7.401
REMARK  4 active torsions:
REMARK  status: ('A' for Active; 'I' for Inactive)
REMARK    1  A    between atoms: C14_20  and  O3_3 
REMARK    2  A    between atoms: C20_26  and  O3_3 
REMARK    3  A    between atoms: C12_18  and  C6_12 
REMARK    4  A    between atoms: C10_16  and  C14_20 
ROOT
HETATM    1  O1  UNK     1      32.933 -10.441  32.982  1.00  0.00    -0.293 OA
HETATM    2  N1  UNK     1      29.962 -11.738  29.532  1.00  0.00    -0.362 N 
HETATM    3  C1  UNK     1      32.205 -13.807  31.767  1.00  0.00    -0.036 C 
HETATM    4  C2  UNK     1      31.524 -13.401  30.442  1.00  0.00     0.067 C 
HETATM    5  C3  UNK     1      33.160 -12.688  32.206  1.00  0.00     0.092 C 
HETATM    6  C4  UNK     1      30.952 -12.007  30.459  1.00  0.00     0.021 C 
HETATM    7  C5  UNK     1      31.363 -11.048  31.313  1.00  0.00     0.024 C 
HETATM    8  C6  UNK     1      30.718  -9.665  31.317  1.00  0.00     0.104 C 
HETATM    9  C7  UNK     1      32.500 -11.324  32.243  1.00  0.00     0.159 C 
HETATM   10  C8  UNK     1      33.008 -15.102  31.545  1.00  0.00     0.015 C 
HETATM   11  C9  UNK     1      31.152 -14.078  32.862  1.00  0.00     0.015 C 
HETATM   12  C10 UNK     1      29.746  -9.464  30.154  1.00  0.00     0.052 C 
HETATM   13  C11 UNK     1      29.395 -10.488  29.342  1.00  0.00     0.018 C 
HETATM   14  C13 UNK     1      28.412 -10.401  28.206  1.00  0.00     0.069 C 
HETATM   15  H12 UNK     1      29.684 -12.484  28.905  1.00  0.00     0.165 HD
ENDROOT
BRANCH   8  16
HETATM   16  C12 UNK     1      30.017  -9.419  32.626  1.00  0.00     0.029 A 
HETATM   17  C15 UNK     1      30.371  -8.204  33.403  1.00  0.00     0.194 A 
HETATM   18  O5  UNK     1      31.209  -7.403  33.011  1.00  0.00    -0.287 OA
HETATM   19  C17 UNK     1      29.655  -8.013  34.678  1.00  0.00     0.049 A 
HETATM   20  C18 UNK     1      28.710  -8.959  35.075  1.00  0.00     0.089 A 
HETATM   21  C19 UNK     1      29.916  -6.900  35.482  1.00  0.00     0.025 A 
HETATM   22  O2  UNK     1      28.413 -10.069  34.325  1.00  0.00    -0.321 OA
HETATM   23  C21 UNK     1      28.021  -8.798  36.276  1.00  0.00     0.039 A 
HETATM   24  C16 UNK     1      29.087 -10.235  33.140  1.00  0.00     0.154 A 
HETATM   25  C23 UNK     1      28.279  -7.687  37.081  1.00  0.00     0.009 A 
HETATM   26  C22 UNK     1      29.225  -6.741  36.684  1.00  0.00    -0.061 A 
HETATM   27  C26 UNK     1      29.498  -5.556  37.547  1.00  0.00     0.048 C 
ENDBRANCH   8  16
BRANCH  12  28
HETATM   28  C14 UNK     1      29.260  -8.093  29.928  1.00  0.00     0.292 C 
HETATM   29  O4  UNK     1      29.929  -7.226  29.399  1.00  0.00    -0.259 OA
BRANCH  28  30
HETATM   30  O3  UNK     1      27.994  -8.005  30.403  1.00  0.00    -0.313 OA
BRANCH  30  31
HETATM   31  C20 UNK     1      27.516  -6.672  30.611  1.00  0.00     0.124 C 
HETATM   32  C24 UNK     1      26.075  -6.577  30.131  1.00  0.00     0.040 C 
HETATM   33  C25 UNK     1      27.648  -6.316  32.083  1.00  0.00     0.040 C 
ENDBRANCH  30  31
ENDBRANCH  28  30
ENDBRANCH  12  28
TORSDOF 4
ENDMDL
MODEL 9
REMARK VINA RESULT:      -8.0     31.330     35.038
REMARK  4 active torsions:
REMARK  status: ('A' for Active; 'I' for Inactive)
REMARK    1  A    between atoms: C14_20  and  O3_3 
REMARK    2  A    between atoms: C20_26  and  O3_3 
REMARK    3  A    between atoms: C12_18  and  C6_12 
REMARK    4  A    between atoms: C10_16  and  C14_20 
ROOT
HETATM    1  O1  UNK     1      18.044   8.839   9.830  1.00  0.00    -0.293 OA
HETATM    2  N1  UNK     1      14.832  11.792   7.992  1.00  0.00    -0.362 N 
HETATM    3  C1  UNK     1      14.407   8.692  10.116  1.00  0.00    -0.036 C 
HETATM    4  C2  UNK     1      14.073   9.670   8.970  1.00  0.00     0.067 C 
HETATM    5  C3  UNK     1      15.785   8.067   9.859  1.00  0.00     0.092 C 
HETATM    6  C4  UNK     1      15.190  10.630   8.651  1.00  0.00     0.021 C 
HETATM    7  C5  UNK     1      16.480  10.399   8.969  1.00  0.00     0.024 C 
HETATM    8  C6  UNK     1      17.565  11.426   8.662  1.00  0.00     0.104 C 
HETATM    9  C7  UNK     1      16.865   9.096   9.593  1.00  0.00     0.159 C 
HETATM   10  C8  UNK     1      13.344   7.579  10.155  1.00  0.00     0.015 C 
HETATM   11  C9  UNK     1      14.389   9.418  11.478  1.00  0.00     0.015 C 
HETATM   12  C10 UNK     1      17.054  12.589   7.810  1.00  0.00     0.052 C 
HETATM   13  C11 UNK     1      15.737  12.738   7.537  1.00  0.00     0.018 C 
HETATM   14  C13 UNK     1      15.133  13.871   6.753  1.00  0.00     0.069 C 
HETATM   15  H12 UNK     1      13.854  11.928   7.767  1.00  0.00     0.165 HD
ENDROOT
BRANCH   8  16
HETATM   16  C12 UNK     1      18.170  11.946   9.939  1.00  0.00     0.029 A 
HETATM   17  C15 UNK     1      19.639  11.834  10.126  1.00  0.00     0.194 A 
HETATM   18  O5  UNK     1      20.366  11.337   9.276  1.00  0.00    -0.287 OA
HETATM   19  C17 UNK     1      20.177  12.358  11.395  1.00  0.00     0.049 A 
HETATM   20  C18 UNK     1      19.301  12.914  12.326  1.00  0.00     0.089 A 
HETATM   21  C19 UNK     1      21.547  12.300  11.665  1.00  0.00     0.025 A 
HETATM   22  O2  UNK     1      17.948  12.997  12.113  1.00  0.00    -0.321 OA
HETATM   23  C21 UNK     1      19.788  13.415  13.533  1.00  0.00     0.039 A 
HETATM   24  C16 UNK     1      17.460  12.505  10.928  1.00  0.00     0.154 A 
HETATM   25  C23 UNK     1      21.156  13.359  13.805  1.00  0.00     0.009 A 
HETATM   26  C22 UNK     1      22.033  12.803  12.873  1.00  0.00    -0.061 A 
HETATM   27  C26 UNK     1      23.493  12.746  13.169  1.00  0.00     0.048 C 
ENDBRANCH   8  16
BRANCH  12  28
HETATM   28  C14 UNK     1      18.069  13.501   7.259  1.00  0.00     0.292 C 
HETATM   29  O4  UNK     1      18.209  14.650   7.634  1.00  0.00    -0.259 OA
BRANCH  28  30
HETATM   30  O3  UNK     1      18.768  12.836   6.307  1.00  0.00    -0.313 OA
BRANCH  30  31
HETATM   31  C20 UNK     1      19.698  13.636   5.569  1.00  0.00     0.124 C 
HETATM   32  C24 UNK     1      21.058  13.579   6.248  1.00  0.00     0.040 C 
HETATM   33  C25 UNK     1      19.759  13.137   4.134  1.00  0.00     0.040 C 
ENDBRANCH  30  31
ENDBRANCH  28  30
ENDBRANCH  12  28
TORSDOF 4
ENDMDL
MODEL 10
REMARK VINA RESULT:      -8.0      3.811      7.776
REMARK  4 active torsions:
REMARK  status: ('A' for Active; 'I' for Inactive)
REMARK    1  A    between atoms: C14_20  and  O3_3 
REMARK    2  A    between atoms: C20_26  and  O3_3 
REMARK    3  A    between atoms: C12_18  and  C6_12 
REMARK    4  A    between atoms: C10_16  and  C14_20 
ROOT
HETATM    1  O1  UNK     1      33.805 -10.898  31.466  1.00  0.00    -0.293 OA
HETATM    2  N1  UNK     1      29.448 -11.294  29.655  1.00  0.00    -0.362 N 
HETATM    3  C1  UNK     1      31.574 -13.788  31.542  1.00  0.00    -0.036 C 
HETATM    4  C2  UNK     1      30.594 -13.317  30.446  1.00  0.00     0.067 C 
HETATM    5  C3  UNK     1      32.937 -13.118  31.320  1.00  0.00     0.092 C 
HETATM    6  C4  UNK     1      30.577 -11.823  30.254  1.00  0.00     0.021 C 
HETATM    7  C5  UNK     1      31.591 -11.016  30.626  1.00  0.00     0.024 C 
HETATM    8  C6  UNK     1      31.502  -9.503  30.448  1.00  0.00     0.104 C 
HETATM    9  C7  UNK     1      32.844 -11.612  31.182  1.00  0.00     0.159 C 
HETATM   10  C8  UNK     1      31.739 -15.316  31.448  1.00  0.00     0.015 C 
HETATM   11  C9  UNK     1      31.029 -13.451  32.946  1.00  0.00     0.015 C 
HETATM   12  C10 UNK     1      30.271  -9.074  29.649  1.00  0.00     0.052 C 
HETATM   13  C11 UNK     1      29.303  -9.958  29.314  1.00  0.00     0.018 C 
HETATM   14  C13 UNK     1      28.036  -9.624  28.575  1.00  0.00     0.069 C 
HETATM   15  H12 UNK     1      28.710 -11.933  29.386  1.00  0.00     0.165 HD
ENDROOT
BRANCH   8  16
HETATM   16  C12 UNK     1      31.515  -8.817  31.788  1.00  0.00     0.029 A 
HETATM   17  C15 UNK     1      32.533  -7.764  32.037  1.00  0.00     0.194 A 
HETATM   18  O5  UNK     1      33.354  -7.441  31.189  1.00  0.00    -0.287 OA
HETATM   19  C17 UNK     1      32.501  -7.127  33.366  1.00  0.00     0.049 A 
HETATM   20  C18 UNK     1      31.543  -7.536  34.293  1.00  0.00     0.089 A 
HETATM   21  C19 UNK     1      33.417  -6.124  33.697  1.00  0.00     0.025 A 
HETATM   22  O2  UNK     1      30.619  -8.514  34.021  1.00  0.00    -0.321 OA
HETATM   23  C21 UNK     1      31.494  -6.946  35.556  1.00  0.00     0.039 A 
HETATM   24  C16 UNK     1      30.660  -9.100  32.780  1.00  0.00     0.154 A 
HETATM   25  C23 UNK     1      32.407  -5.945  35.889  1.00  0.00     0.009 A 
HETATM   26  C22 UNK     1      33.366  -5.535  34.962  1.00  0.00    -0.061 A 
HETATM   27  C26 UNK     1      34.339  -4.465  35.323  1.00  0.00     0.048 C 
ENDBRANCH   8  16
BRANCH  12  28
HETATM   28  C14 UNK     1      30.221  -7.668  29.216  1.00  0.00     0.292 C 
HETATM   29  O4  UNK     1      31.106  -7.135  28.573  1.00  0.00    -0.259 OA
BRANCH  28  30
HETATM   30  O3  UNK     1      29.059  -7.126  29.655  1.00  0.00    -0.313 OA
BRANCH  30  31
HETATM   31  C20 UNK     1      29.121  -6.532  30.956  1.00  0.00     0.124 C 
HETATM   32  C24 UNK     1      29.544  -5.077  30.823  1.00  0.00     0.040 C 
HETATM   33  C25 UNK     1      27.766  -6.669  31.633  1.00  0.00     0.040 C 
ENDBRANCH  30  31
ENDBRANCH  28  30
ENDBRANCH  12  28
TORSDOF 4
ENDMDL
