MODEL 1
REMARK VINA RESULT:      -7.9      0.000      0.000
REMARK  3 active torsions:
REMARK  status: ('A' for Active; 'I' for Inactive)
REMARK    1  A    between atoms: C2_6  and  O2_2 
REMARK    2  A    between atoms: C16_20  and  O4_4 
REMARK    3  A    between atoms: C1_5  and  C3_7 
ROOT
HETATM    1  O1  UNK     1      17.909   2.384  32.782  1.00  0.00    -0.337 OA
HETATM    2  O3  UNK     1      20.011   0.090  30.103  1.00  0.00    -0.289 OA
HETATM    3  C1  UNK     1      18.778   3.001  31.818  1.00  0.00     0.198 C 
HETATM    4  C2  UNK     1      18.882   2.163  30.541  1.00  0.00     0.229 C 
HETATM    5  C4  UNK     1      19.381   0.783  30.894  1.00  0.00     0.193 C 
HETATM    6  C5  UNK     1      19.009   0.278  32.233  1.00  0.00     0.046 A 
HETATM    7  C6  UNK     1      18.275   1.101  33.093  1.00  0.00     0.083 A 
HETATM    8  C9  UNK     1      19.348  -1.021  32.617  1.00  0.00     0.018 A 
HETATM    9  C10 UNK     1      17.851   0.610  34.328  1.00  0.00     0.038 A 
HETATM   10  C11 UNK     1      18.937  -1.500  33.863  1.00  0.00     0.001 A 
HETATM   11  C14 UNK     1      18.186  -0.688  34.714  1.00  0.00     0.003 A 
ENDROOT
BRANCH   3  12
HETATM   12  C3  UNK     1      18.302   4.410  31.529  1.00  0.00    -0.026 A 
HETATM   13  C7  UNK     1      18.790   5.097  30.418  1.00  0.00     0.012 A 
HETATM   14  C12 UNK     1      18.353   6.394  30.152  1.00  0.00     0.037 A 
HETATM   15  C16 UNK     1      17.425   7.003  30.997  1.00  0.00     0.065 A 
HETATM   16  C13 UNK     1      16.936   6.316  32.108  1.00  0.00     0.037 A 
HETATM   17  C8  UNK     1      17.376   5.019  32.374  1.00  0.00     0.012 A 
BRANCH  15  18
HETATM   18  O4  UNK     1      16.995   8.268  30.737  1.00  0.00    -0.361 OA
HETATM   19  H14 UNK     1      16.081   8.363  31.059  1.00  0.00     0.217 HD
ENDBRANCH  15  18
ENDBRANCH   3  12
BRANCH   4  20
HETATM   20  O2  UNK     1      17.612   1.990  29.933  1.00  0.00    -0.380 OA
HETATM   21  C15 UNK     1      17.717   1.911  28.516  1.00  0.00     0.202 C 
ENDBRANCH   4  20
TORSDOF 3
ENDMDL
MODEL 2
REMARK VINA RESULT:      -7.4     22.387     24.210
REMARK  3 active torsions:
REMARK  status: ('A' for Active; 'I' for Inactive)
REMARK    1  A    between atoms: C2_6  and  O2_2 
REMARK    2  A    between atoms: C16_20  and  O4_4 
REMARK    3  A    between atoms: C1_5  and  C3_7 
ROOT
HETATM    1  O1  UNK     1      13.173   7.847   9.039  1.00  0.00    -0.337 OA
HETATM    2  O3  UNK     1      15.131   4.280   9.591  1.00  0.00    -0.289 OA
HETATM    3  C1  UNK     1      12.754   6.668   8.333  1.00  0.00     0.198 C 
HETATM    4  C2  UNK     1      13.057   5.399   9.133  1.00  0.00     0.229 C 
HETATM    5  C4  UNK     1      14.536   5.339   9.426  1.00  0.00     0.193 C 
HETATM    6  C5  UNK     1      15.223   6.639   9.574  1.00  0.00     0.046 A 
HETATM    7  C6  UNK     1      14.497   7.820   9.393  1.00  0.00     0.083 A 
HETATM    8  C9  UNK     1      16.572   6.689   9.933  1.00  0.00     0.018 A 
HETATM    9  C10 UNK     1      15.114   9.053   9.604  1.00  0.00     0.038 A 
HETATM   10  C11 UNK     1      17.189   7.927  10.125  1.00  0.00     0.001 A 
HETATM   11  C14 UNK     1      16.460   9.105   9.966  1.00  0.00     0.003 A 
ENDROOT
BRANCH   3  12
HETATM   12  C3  UNK     1      11.283   6.778   7.985  1.00  0.00    -0.026 A 
HETATM   13  C7  UNK     1      10.434   7.546   8.781  1.00  0.00     0.012 A 
HETATM   14  C12 UNK     1       9.081   7.647   8.462  1.00  0.00     0.037 A 
HETATM   15  C16 UNK     1       8.576   6.978   7.345  1.00  0.00     0.065 A 
HETATM   16  C13 UNK     1       9.426   6.210   6.549  1.00  0.00     0.037 A 
HETATM   17  C8  UNK     1      10.780   6.110   6.870  1.00  0.00     0.012 A 
BRANCH  15  18
HETATM   18  O4  UNK     1       7.255   7.077   7.032  1.00  0.00    -0.361 OA
HETATM   19  H14 UNK     1       6.775   6.345   7.457  1.00  0.00     0.217 HD
ENDBRANCH  15  18
ENDBRANCH   3  12
BRANCH   4  20
HETATM   20  O2  UNK     1      12.396   5.410  10.388  1.00  0.00    -0.380 OA
HETATM   21  C15 UNK     1      11.330   4.469  10.427  1.00  0.00     0.202 C 
ENDBRANCH   4  20
TORSDOF 3
ENDMDL
MODEL 3
REMARK VINA RESULT:      -7.3     23.724     25.351
REMARK  3 active torsions:
REMARK  status: ('A' for Active; 'I' for Inactive)
REMARK    1  A    between atoms: C2_6  and  O2_2 
REMARK    2  A    between atoms: C16_20  and  O4_4 
REMARK    3  A    between atoms: C1_5  and  C3_7 
ROOT
HETATM    1  O1  UNK     1       7.871   5.171   9.777  1.00  0.00    -0.337 OA
HETATM    2  O3  UNK     1       5.530   8.487  10.394  1.00  0.00    -0.289 OA
HETATM    3  C1  UNK     1       7.735   6.169   8.752  1.00  0.00     0.198 C 
HETATM    4  C2  UNK     1       7.480   7.555   9.350  1.00  0.00     0.229 C 
HETATM    5  C4  UNK     1       6.237   7.504  10.205  1.00  0.00     0.193 C 
HETATM    6  C5  UNK     1       5.951   6.212  10.862  1.00  0.00     0.046 A 
HETATM    7  C6  UNK     1       6.798   5.124  10.627  1.00  0.00     0.083 A 
HETATM    8  C9  UNK     1       4.874   6.090  11.743  1.00  0.00     0.018 A 
HETATM    9  C10 UNK     1       6.584   3.921  11.301  1.00  0.00     0.038 A 
HETATM   10  C11 UNK     1       4.655   4.877  12.399  1.00  0.00     0.001 A 
HETATM   11  C14 UNK     1       5.511   3.798  12.182  1.00  0.00     0.003 A 
ENDROOT
BRANCH   3  12
HETATM   12  C3  UNK     1       8.962   6.158   7.861  1.00  0.00    -0.026 A 
HETATM   13  C7  UNK     1       8.847   6.494   6.513  1.00  0.00     0.012 A 
HETATM   14  C12 UNK     1       9.975   6.483   5.694  1.00  0.00     0.037 A 
HETATM   15  C16 UNK     1      11.219   6.136   6.224  1.00  0.00     0.065 A 
HETATM   16  C13 UNK     1      11.332   5.800   7.573  1.00  0.00     0.037 A 
HETATM   17  C8  UNK     1      10.203   5.811   8.392  1.00  0.00     0.012 A 
BRANCH  15  18
HETATM   18  O4  UNK     1      12.321   6.127   5.426  1.00  0.00    -0.361 OA
HETATM   19  H14 UNK     1      12.336   5.295   4.920  1.00  0.00     0.217 HD
ENDBRANCH  15  18
ENDBRANCH   3  12
BRANCH   4  20
HETATM   20  O2  UNK     1       8.541   7.952  10.204  1.00  0.00    -0.380 OA
HETATM   21  C15 UNK     1       8.990   9.269   9.906  1.00  0.00     0.202 C 
ENDBRANCH   4  20
TORSDOF 3
ENDMDL
MODEL 4
REMARK VINA RESULT:      -7.2     10.923     13.638
REMARK  3 active torsions:
REMARK  status: ('A' for Active; 'I' for Inactive)
REMARK    1  A    between atoms: C2_6  and  O2_2 
REMARK    2  A    between atoms: C16_20  and  O4_4 
REMARK    3  A    between atoms: C1_5  and  C3_7 
ROOT
HETATM    1  O1  UNK     1      22.984  -8.350  37.353  1.00  0.00    -0.337 OA
HETATM    2  O3  UNK     1      23.340 -11.869  35.268  1.00  0.00    -0.289 OA
HETATM    3  C1  UNK     1      22.089  -8.649  36.269  1.00  0.00     0.198 C 
HETATM    4  C2  UNK     1      21.883 -10.158  36.113  1.00  0.00     0.229 C 
HETATM    5  C4  UNK     1      23.222 -10.820  35.890  1.00  0.00     0.193 C 
HETATM    6  C5  UNK     1      24.385 -10.166  36.526  1.00  0.00     0.046 A 
HETATM    7  C6  UNK     1      24.196  -8.979  37.240  1.00  0.00     0.083 A 
HETATM    8  C9  UNK     1      25.652 -10.751  36.452  1.00  0.00     0.018 A 
HETATM    9  C10 UNK     1      25.271  -8.393  37.908  1.00  0.00     0.038 A 
HETATM   10  C11 UNK     1      26.727 -10.148  37.107  1.00  0.00     0.001 A 
HETATM   11  C14 UNK     1      26.536  -8.976  37.838  1.00  0.00     0.003 A 
ENDROOT
BRANCH   3  12
HETATM   12  C3  UNK     1      20.776  -7.920  36.474  1.00  0.00    -0.026 A 
HETATM   13  C7  UNK     1      20.426  -7.459  37.743  1.00  0.00     0.012 A 
HETATM   14  C12 UNK     1      19.218  -6.789  37.933  1.00  0.00     0.037 A 
HETATM   15  C16 UNK     1      18.360  -6.579  36.852  1.00  0.00     0.065 A 
HETATM   16  C13 UNK     1      18.711  -7.040  35.583  1.00  0.00     0.037 A 
HETATM   17  C8  UNK     1      19.920  -7.711  35.395  1.00  0.00     0.012 A 
BRANCH  15  18
HETATM   18  O4  UNK     1      17.182  -5.924  37.036  1.00  0.00    -0.361 OA
HETATM   19  H14 UNK     1      16.886  -6.059  37.953  1.00  0.00     0.217 HD
ENDBRANCH  15  18
ENDBRANCH   3  12
BRANCH   4  20
HETATM   20  O2  UNK     1      21.342 -10.730  37.293  1.00  0.00    -0.380 OA
HETATM   21  C15 UNK     1      19.985 -11.118  37.111  1.00  0.00     0.202 C 
ENDBRANCH   4  20
TORSDOF 3
ENDMDL
MODEL 5
REMARK VINA RESULT:      -7.2      5.134      7.776
REMARK  3 active torsions:
REMARK  status: ('A' for Active; 'I' for Inactive)
REMARK    1  A    between atoms: C2_6  and  O2_2 
REMARK    2  A    between atoms: C16_20  and  O4_4 
REMARK    3  A    between atoms: C1_5  and  C3_7 
ROOT
HETATM    1  O1  UNK     1      16.647   8.452  32.489  1.00  0.00    -0.337 OA
HETATM    2  O3  UNK     1      20.000   8.755  34.839  1.00  0.00    -0.289 OA
HETATM    3  C1  UNK     1      16.547   8.912  33.847  1.00  0.00     0.198 C 
HETATM    4  C2  UNK     1      17.829   9.621  34.294  1.00  0.00     0.229 C 
HETATM    5  C4  UNK     1      18.995   8.675  34.142  1.00  0.00     0.193 C 
HETATM    6  C5  UNK     1      18.891   7.681  33.053  1.00  0.00     0.046 A 
HETATM    7  C6  UNK     1      17.731   7.641  32.274  1.00  0.00     0.083 A 
HETATM    8  C9  UNK     1      19.957   6.822  32.776  1.00  0.00     0.018 A 
HETATM    9  C10 UNK     1      17.650   6.761  31.195  1.00  0.00     0.038 A 
HETATM   10  C11 UNK     1      19.862   5.929  31.707  1.00  0.00     0.001 A 
HETATM   11  C14 UNK     1      18.713   5.903  30.915  1.00  0.00     0.003 A 
ENDROOT
BRANCH   3  12
HETATM   12  C3  UNK     1      15.330   9.803  33.996  1.00  0.00    -0.026 A 
HETATM   13  C7  UNK     1      14.555  10.116  32.880  1.00  0.00     0.012 A 
HETATM   14  C12 UNK     1      13.435  10.936  33.016  1.00  0.00     0.037 A 
HETATM   15  C16 UNK     1      13.091  11.443  34.270  1.00  0.00     0.065 A 
HETATM   16  C13 UNK     1      13.867  11.129  35.386  1.00  0.00     0.037 A 
HETATM   17  C8  UNK     1      14.987  10.309  35.248  1.00  0.00     0.012 A 
BRANCH  15  18
HETATM   18  O4  UNK     1      11.997  12.241  34.404  1.00  0.00    -0.361 OA
HETATM   19  H14 UNK     1      11.321  11.765  34.917  1.00  0.00     0.217 HD
ENDBRANCH  15  18
ENDBRANCH   3  12
BRANCH   4  20
HETATM   20  O2  UNK     1      18.110  10.744  33.475  1.00  0.00    -0.380 OA
HETATM   21  C15 UNK     1      18.339  11.914  34.251  1.00  0.00     0.202 C 
ENDBRANCH   4  20
TORSDOF 3
ENDMDL
MODEL 6
REMARK VINA RESULT:      -7.1      3.695      8.345
REMARK  3 active torsions:
REMARK  status: ('A' for Active; 'I' for Inactive)
REMARK    1  A    between atoms: C2_6  and  O2_2 
REMARK    2  A    between atoms: C16_20  and  O4_4 
REMARK    3  A    between atoms: C1_5  and  C3_7 
ROOT
HETATM    1  O1  UNK     1      18.054   9.072  33.087  1.00  0.00    -0.337 OA
HETATM    2  O3  UNK     1      14.330   9.252  34.806  1.00  0.00    -0.289 OA
HETATM    3  C1  UNK     1      17.396   7.874  33.529  1.00  0.00     0.198 C 
HETATM    4  C2  UNK     1      15.873   8.009  33.451  1.00  0.00     0.229 C 
HETATM    5  C4  UNK     1      15.438   9.188  34.286  1.00  0.00     0.193 C 
HETATM    6  C5  UNK     1      16.402  10.304  34.391  1.00  0.00     0.046 A 
HETATM    7  C6  UNK     1      17.648  10.191  33.767  1.00  0.00     0.083 A 
HETATM    8  C9  UNK     1      16.056  11.476  35.068  1.00  0.00     0.018 A 
HETATM    9  C10 UNK     1      18.537  11.265  33.792  1.00  0.00     0.038 A 
HETATM   10  C11 UNK     1      16.959  12.541  35.107  1.00  0.00     0.001 A 
HETATM   11  C14 UNK     1      18.193  12.437  34.466  1.00  0.00     0.003 A 
ENDROOT
BRANCH   3  12
HETATM   12  C3  UNK     1      17.898   6.690  32.726  1.00  0.00    -0.026 A 
HETATM   13  C7  UNK     1      17.723   5.395  33.211  1.00  0.00     0.012 A 
HETATM   14  C12 UNK     1      18.184   4.305  32.472  1.00  0.00     0.037 A 
HETATM   15  C16 UNK     1      18.821   4.513  31.247  1.00  0.00     0.065 A 
HETATM   16  C13 UNK     1      18.994   5.809  30.763  1.00  0.00     0.037 A 
HETATM   17  C8  UNK     1      18.533   6.898  31.503  1.00  0.00     0.012 A 
BRANCH  15  18
HETATM   18  O4  UNK     1      19.269   3.450  30.525  1.00  0.00    -0.361 OA
HETATM   19  H14 UNK     1      19.142   3.637  29.578  1.00  0.00     0.217 HD
ENDBRANCH  15  18
ENDBRANCH   3  12
BRANCH   4  20
HETATM   20  O2  UNK     1      15.447   8.275  32.124  1.00  0.00    -0.380 OA
HETATM   21  C15 UNK     1      14.439   7.362  31.705  1.00  0.00     0.202 C 
ENDBRANCH   4  20
TORSDOF 3
ENDMDL
MODEL 7
REMARK VINA RESULT:      -7.0      3.403      5.841
REMARK  3 active torsions:
REMARK  status: ('A' for Active; 'I' for Inactive)
REMARK    1  A    between atoms: C2_6  and  O2_2 
REMARK    2  A    between atoms: C16_20  and  O4_4 
REMARK    3  A    between atoms: C1_5  and  C3_7 
ROOT
HETATM    1  O1  UNK     1      19.811  -1.549  34.193  1.00  0.00    -0.337 OA
HETATM    2  O3  UNK     1      16.461   0.385  35.570  1.00  0.00    -0.289 OA
HETATM    3  C1  UNK     1      18.758  -1.180  33.288  1.00  0.00     0.198 C 
HETATM    4  C2  UNK     1      18.017   0.070  33.770  1.00  0.00     0.229 C 
HETATM    5  C4  UNK     1      17.461  -0.185  35.149  1.00  0.00     0.193 C 
HETATM    6  C5  UNK     1      18.231  -1.117  36.000  1.00  0.00     0.046 A 
HETATM    7  C6  UNK     1      19.376  -1.729  35.480  1.00  0.00     0.083 A 
HETATM    8  C9  UNK     1      17.846  -1.348  37.323  1.00  0.00     0.018 A 
HETATM    9  C10 UNK     1      20.154  -2.550  36.296  1.00  0.00     0.038 A 
HETATM   10  C11 UNK     1      18.620  -2.186  38.128  1.00  0.00     0.001 A 
HETATM   11  C14 UNK     1      19.773  -2.781  37.618  1.00  0.00     0.003 A 
ENDROOT
BRANCH   3  12
HETATM   12  C3  UNK     1      19.325  -0.997  31.894  1.00  0.00    -0.026 A 
HETATM   13  C7  UNK     1      19.206   0.235  31.251  1.00  0.00     0.012 A 
HETATM   14  C12 UNK     1      19.727   0.404  29.968  1.00  0.00     0.037 A 
HETATM   15  C16 UNK     1      20.367  -0.659  29.329  1.00  0.00     0.065 A 
HETATM   16  C13 UNK     1      20.485  -1.890  29.974  1.00  0.00     0.037 A 
HETATM   17  C8  UNK     1      19.963  -2.059  31.256  1.00  0.00     0.012 A 
BRANCH  15  18
HETATM   18  O4  UNK     1      20.877  -0.494  28.079  1.00  0.00    -0.361 OA
HETATM   19  H14 UNK     1      20.479   0.299  27.678  1.00  0.00     0.217 HD
ENDBRANCH  15  18
ENDBRANCH   3  12
BRANCH   4  20
HETATM   20  O2  UNK     1      18.896   1.177  33.887  1.00  0.00    -0.380 OA
HETATM   21  C15 UNK     1      18.190   2.412  33.863  1.00  0.00     0.202 C 
ENDBRANCH   4  20
TORSDOF 3
ENDMDL
MODEL 8
REMARK VINA RESULT:      -7.0      3.220      7.642
REMARK  3 active torsions:
REMARK  status: ('A' for Active; 'I' for Inactive)
REMARK    1  A    between atoms: C2_6  and  O2_2 
REMARK    2  A    between atoms: C16_20  and  O4_4 
REMARK    3  A    between atoms: C1_5  and  C3_7 
ROOT
HETATM    1  O1  UNK     1      16.417   7.386  32.962  1.00  0.00    -0.337 OA
HETATM    2  O3  UNK     1      19.093  10.246  34.194  1.00  0.00    -0.289 OA
HETATM    3  C1  UNK     1      17.689   7.525  32.308  1.00  0.00     0.198 C 
HETATM    4  C2  UNK     1      18.757   8.057  33.267  1.00  0.00     0.229 C 
HETATM    5  C4  UNK     1      18.304   9.384  33.825  1.00  0.00     0.193 C 
HETATM    6  C5  UNK     1      16.844   9.567  33.968  1.00  0.00     0.046 A 
HETATM    7  C6  UNK     1      15.984   8.547  33.547  1.00  0.00     0.083 A 
HETATM    8  C9  UNK     1      16.330  10.724  34.556  1.00  0.00     0.018 A 
HETATM    9  C10 UNK     1      14.610   8.673  33.746  1.00  0.00     0.038 A 
HETATM   10  C11 UNK     1      14.951  10.853  34.735  1.00  0.00     0.001 A 
HETATM   11  C14 UNK     1      14.094   9.827  34.336  1.00  0.00     0.003 A 
ENDROOT
BRANCH   3  12
HETATM   12  C3  UNK     1      18.095   6.199  31.694  1.00  0.00    -0.026 A 
HETATM   13  C7  UNK     1      17.626   5.006  32.241  1.00  0.00     0.012 A 
HETATM   14  C12 UNK     1      17.999   3.786  31.677  1.00  0.00     0.037 A 
HETATM   15  C16 UNK     1      18.842   3.762  30.564  1.00  0.00     0.065 A 
HETATM   16  C13 UNK     1      19.310   4.956  30.017  1.00  0.00     0.037 A 
HETATM   17  C8  UNK     1      18.937   6.175  30.583  1.00  0.00     0.012 A 
BRANCH  15  18
HETATM   18  O4  UNK     1      19.205   2.572  30.012  1.00  0.00    -0.361 OA
HETATM   19  H14 UNK     1      20.169   2.468  30.094  1.00  0.00     0.217 HD
ENDBRANCH  15  18
ENDBRANCH   3  12
BRANCH   4  20
HETATM   20  O2  UNK     1      18.932   7.191  34.377  1.00  0.00    -0.380 OA
HETATM   21  C15 UNK     1      20.114   6.410  34.251  1.00  0.00     0.202 C 
ENDBRANCH   4  20
TORSDOF 3
ENDMDL
MODEL 9
REMARK VINA RESULT:      -7.0      3.584      7.685
REMARK  3 active torsions:
REMARK  status: ('A' for Active; 'I' for Inactive)
REMARK    1  A    between atoms: C2_6  and  O2_2 
REMARK    2  A    between atoms: C16_20  and  O4_4 
REMARK    3  A    between atoms: C1_5  and  C3_7 
ROOT
HETATM    1  O1  UNK     1      19.832  -2.060  32.600  1.00  0.00    -0.337 OA
HETATM    2  O3  UNK     1      18.114   1.665  32.781  1.00  0.00    -0.289 OA
HETATM    3  C1  UNK     1      19.791  -1.335  33.840  1.00  0.00     0.198 C 
HETATM    4  C2  UNK     1      18.577  -0.405  33.905  1.00  0.00     0.229 C 
HETATM    5  C4  UNK     1      18.622   0.551  32.737  1.00  0.00     0.193 C 
HETATM    6  C5  UNK     1      19.257   0.042  31.504  1.00  0.00     0.046 A 
HETATM    7  C6  UNK     1      19.807  -1.244  31.499  1.00  0.00     0.083 A 
HETATM    8  C9  UNK     1      19.268   0.818  30.342  1.00  0.00     0.018 A 
HETATM    9  C10 UNK     1      20.341  -1.765  30.321  1.00  0.00     0.038 A 
HETATM   10  C11 UNK     1      19.821   0.297  29.171  1.00  0.00     0.001 A 
HETATM   11  C14 UNK     1      20.351  -0.993  29.159  1.00  0.00     0.003 A 
ENDROOT
BRANCH   3  12
HETATM   12  C3  UNK     1      19.817  -2.308  35.002  1.00  0.00    -0.026 A 
HETATM   13  C7  UNK     1      19.560  -1.856  36.295  1.00  0.00     0.012 A 
HETATM   14  C12 UNK     1      19.584  -2.751  37.364  1.00  0.00     0.037 A 
HETATM   15  C16 UNK     1      19.866  -4.099  37.138  1.00  0.00     0.065 A 
HETATM   16  C13 UNK     1      20.123  -4.551  35.844  1.00  0.00     0.037 A 
HETATM   17  C8  UNK     1      20.099  -3.654  34.775  1.00  0.00     0.012 A 
BRANCH  15  18
HETATM   18  O4  UNK     1      19.888  -4.974  38.181  1.00  0.00    -0.361 OA
HETATM   19  H14 UNK     1      19.579  -4.516  38.983  1.00  0.00     0.217 HD
ENDBRANCH  15  18
ENDBRANCH   3  12
BRANCH   4  20
HETATM   20  O2  UNK     1      17.364  -1.131  33.786  1.00  0.00    -0.380 OA
HETATM   21  C15 UNK     1      16.418  -0.736  34.774  1.00  0.00     0.202 C 
ENDBRANCH   4  20
TORSDOF 3
ENDMDL
MODEL 10
REMARK VINA RESULT:      -6.9      4.116      6.237
REMARK  3 active torsions:
REMARK  status: ('A' for Active; 'I' for Inactive)
REMARK    1  A    between atoms: C2_6  and  O2_2 
REMARK    2  A    between atoms: C16_20  and  O4_4 
REMARK    3  A    between atoms: C1_5  and  C3_7 
ROOT
HETATM    1  O1  UNK     1      19.332  -0.007  32.789  1.00  0.00    -0.337 OA
HETATM    2  O3  UNK     1      20.737  -3.851  32.458  1.00  0.00    -0.289 OA
HETATM    3  C1  UNK     1      18.869  -1.032  33.683  1.00  0.00     0.198 C 
HETATM    4  C2  UNK     1      19.937  -2.108  33.902  1.00  0.00     0.229 C 
HETATM    5  C4  UNK     1      20.319  -2.704  32.569  1.00  0.00     0.193 C 
HETATM    6  C5  UNK     1      20.225  -1.803  31.401  1.00  0.00     0.046 A 
HETATM    7  C6  UNK     1      19.756  -0.498  31.582  1.00  0.00     0.083 A 
HETATM    8  C9  UNK     1      20.640  -2.235  30.140  1.00  0.00     0.018 A 
HETATM    9  C10 UNK     1      19.735   0.387  30.504  1.00  0.00     0.038 A 
HETATM   10  C11 UNK     1      20.598  -1.350  29.060  1.00  0.00     0.001 A 
HETATM   11  C14 UNK     1      20.152  -0.041  29.243  1.00  0.00     0.003 A 
ENDROOT
BRANCH   3  12
HETATM   12  C3  UNK     1      18.425  -0.407  34.991  1.00  0.00    -0.026 A 
HETATM   13  C7  UNK     1      18.589   0.961  35.200  1.00  0.00     0.012 A 
HETATM   14  C12 UNK     1      18.181   1.537  36.402  1.00  0.00     0.037 A 
HETATM   15  C16 UNK     1      17.607   0.743  37.396  1.00  0.00     0.065 A 
HETATM   16  C13 UNK     1      17.442  -0.626  37.185  1.00  0.00     0.037 A 
HETATM   17  C8  UNK     1      17.852  -1.201  35.982  1.00  0.00     0.012 A 
BRANCH  15  18
HETATM   18  O4  UNK     1      17.206   1.304  38.569  1.00  0.00    -0.361 OA
HETATM   19  H14 UNK     1      17.574   2.203  38.630  1.00  0.00     0.217 HD
ENDBRANCH  15  18
ENDBRANCH   3  12
BRANCH   4  20
HETATM   20  O2  UNK     1      21.122  -1.555  34.451  1.00  0.00    -0.380 OA
HETATM   21  C15 UNK     1      21.409  -2.101  35.733  1.00  0.00     0.202 C 
ENDBRANCH   4  20
TORSDOF 3
ENDMDL
