MODEL 1
REMARK VINA RESULT:      -9.3      0.000      0.000
REMARK  3 active torsions:
REMARK  status: ('A' for Active; 'I' for Inactive)
REMARK    1  A    between atoms: C1_10  and  N2_8 
REMARK       I    between atoms: C8_17  and  N2_8 
REMARK    2  A    between atoms: C2_11  and  C5_14 
REMARK    3  A    between atoms: C6_15  and  C8_17 
ROOT
HETATM    1  O2  UNK     1      20.911  -1.301  35.632  1.00  0.00    -0.267 OA
HETATM    2  N2  UNK     1      19.368  -2.261  34.126  1.00  0.00    -0.306 N 
HETATM    3  C8  UNK     1      20.203  -2.225  35.235  1.00  0.00     0.263 C 
HETATM    4  H1  UNK     1      19.015  -3.167  33.829  1.00  0.00     0.170 HD
ENDROOT
BRANCH   2   5
HETATM    5  C1  UNK     1      19.161  -1.222  33.216  1.00  0.00     0.146 A 
HETATM    6  N1  UNK     1      19.615  -1.266  31.939  1.00  0.00    -0.290 N 
HETATM    7  C3  UNK     1      19.220  -0.066  31.351  1.00  0.00     0.136 A 
HETATM    8  C4  UNK     1      20.331  -2.254  31.267  1.00  0.00     0.100 A 
HETATM    9  N3  UNK     1      18.559   0.688  32.205  1.00  0.00    -0.226 NA
HETATM   10  C7  UNK     1      19.583   0.136  29.987  1.00  0.00     0.051 A 
HETATM   11  C2  UNK     1      18.521  -0.035  33.371  1.00  0.00     0.120 A 
HETATM   12  C13 UNK     1      20.275  -0.815  29.332  1.00  0.00     0.005 A 
HETATM   13  C12 UNK     1      20.668  -2.055  29.983  1.00  0.00     0.018 A 
BRANCH  11  14
HETATM   14  C5  UNK     1      17.869   0.447  34.598  1.00  0.00     0.037 A 
HETATM   15  C14 UNK     1      16.620   0.050  35.029  1.00  0.00     0.022 A 
HETATM   16  C18 UNK     1      16.245   0.681  36.250  1.00  0.00     0.008 A 
HETATM   17  C21 UNK     1      17.221   1.538  36.710  1.00  0.00     0.050 A 
HETATM   18  S1  UNK     1      18.582   1.579  35.672  1.00  0.00    -0.100 SA
ENDBRANCH  11  14
ENDBRANCH   2   5
BRANCH   3  19
HETATM   19  C6  UNK     1      20.183  -3.491  35.977  1.00  0.00     0.108 A 
HETATM   20  C10 UNK     1      20.508  -4.589  35.283  1.00  0.00     0.037 A 
HETATM   21  C9  UNK     1      20.517  -5.890  35.932  1.00  0.00     0.002 A 
HETATM   22  C11 UNK     1      20.183  -5.972  37.280  1.00  0.00     0.107 A 
HETATM   23  C16 UNK     1      20.850  -7.062  35.246  1.00  0.00     0.033 A 
HETATM   24  O1  UNK     1      19.842  -4.814  38.004  1.00  0.00    -0.273 OA
HETATM   25  C17 UNK     1      20.172  -7.189  37.960  1.00  0.00     0.047 A 
HETATM   26  C15 UNK     1      19.824  -3.555  37.411  1.00  0.00     0.304 A 
HETATM   27  O3  UNK     1      19.527  -2.552  38.051  1.00  0.00    -0.259 OA
HETATM   28 Br1  UNK     1      19.719  -7.309  39.795  1.00  0.00    -0.048 Br
HETATM   29  C20 UNK     1      20.505  -8.351  37.270  1.00  0.00     0.041 A 
HETATM   30  C19 UNK     1      20.843  -8.288  35.916  1.00  0.00     0.013 A 
HETATM   31 Br2  UNK     1      21.295  -9.870  34.983  1.00  0.00    -0.051 Br
ENDBRANCH   3  19
TORSDOF 3
ENDMDL
MODEL 2
REMARK VINA RESULT:      -8.8      7.033     10.342
REMARK  3 active torsions:
REMARK  status: ('A' for Active; 'I' for Inactive)
REMARK    1  A    between atoms: C1_10  and  N2_8 
REMARK       I    between atoms: C8_17  and  N2_8 
REMARK    2  A    between atoms: C2_11  and  C5_14 
REMARK    3  A    between atoms: C6_15  and  C8_17 
ROOT
HETATM    1  O2  UNK     1      17.326   3.411  31.029  1.00  0.00    -0.267 OA
HETATM    2  N2  UNK     1      18.371   2.852  33.071  1.00  0.00    -0.306 N 
HETATM    3  C8  UNK     1      17.831   3.700  32.114  1.00  0.00     0.263 C 
HETATM    4  H1  UNK     1      18.929   3.269  33.812  1.00  0.00     0.170 HD
ENDROOT
BRANCH   2   5
HETATM    5  C1  UNK     1      18.450   1.460  32.987  1.00  0.00     0.146 A 
HETATM    6  N1  UNK     1      19.050   0.820  31.953  1.00  0.00    -0.290 N 
HETATM    7  C3  UNK     1      18.928  -0.541  32.222  1.00  0.00     0.136 A 
HETATM    8  C4  UNK     1      19.680   1.328  30.819  1.00  0.00     0.100 A 
HETATM    9  N3  UNK     1      18.290  -0.747  33.356  1.00  0.00    -0.226 NA
HETATM   10  C7  UNK     1      19.487  -1.442  31.269  1.00  0.00     0.051 A 
HETATM   11  C2  UNK     1      17.992   0.504  33.835  1.00  0.00     0.120 A 
HETATM   12  C13 UNK     1      20.098  -0.957  30.171  1.00  0.00     0.005 A 
HETATM   13  C12 UNK     1      20.204   0.473  29.927  1.00  0.00     0.018 A 
BRANCH  11  14
HETATM   14  C5  UNK     1      17.270   0.734  35.097  1.00  0.00     0.037 A 
HETATM   15  C14 UNK     1      15.960   0.367  35.327  1.00  0.00     0.022 A 
HETATM   16  C18 UNK     1      15.526   0.715  36.639  1.00  0.00     0.008 A 
HETATM   17  C21 UNK     1      16.519   1.335  37.365  1.00  0.00     0.050 A 
HETATM   18  S1  UNK     1      17.968   1.496  36.466  1.00  0.00    -0.100 SA
ENDBRANCH  11  14
ENDBRANCH   2   5
BRANCH   3  19
HETATM   19  C6  UNK     1      17.911   5.108  32.522  1.00  0.00     0.108 A 
HETATM   20  C10 UNK     1      16.758   5.788  32.530  1.00  0.00     0.037 A 
HETATM   21  C9  UNK     1      16.736   7.189  32.921  1.00  0.00     0.002 A 
HETATM   22  C11 UNK     1      17.929   7.806  33.282  1.00  0.00     0.107 A 
HETATM   23  C16 UNK     1      15.555   7.937  32.944  1.00  0.00     0.033 A 
HETATM   24  O1  UNK     1      19.139   7.085  33.271  1.00  0.00    -0.273 OA
HETATM   25  C17 UNK     1      17.976   9.145  33.665  1.00  0.00     0.047 A 
HETATM   26  C15 UNK     1      19.192   5.744  32.903  1.00  0.00     0.304 A 
HETATM   27  O3  UNK     1      20.251   5.125  32.898  1.00  0.00    -0.259 OA
HETATM   28 Br1  UNK     1      19.597   9.991  34.159  1.00  0.00    -0.048 Br
HETATM   29  C20 UNK     1      16.796   9.883  33.686  1.00  0.00     0.041 A 
HETATM   30  C19 UNK     1      15.588   9.281  33.326  1.00  0.00     0.013 A 
HETATM   31 Br2  UNK     1      13.988  10.288  33.356  1.00  0.00    -0.051 Br
ENDBRANCH   3  19
TORSDOF 3
ENDMDL
MODEL 3
REMARK VINA RESULT:      -8.5     11.235     12.830
REMARK  3 active torsions:
REMARK  status: ('A' for Active; 'I' for Inactive)
REMARK    1  A    between atoms: C1_10  and  N2_8 
REMARK       I    between atoms: C8_17  and  N2_8 
REMARK    2  A    between atoms: C2_11  and  C5_14 
REMARK    3  A    between atoms: C6_15  and  C8_17 
ROOT
HETATM    1  O2  UNK     1      31.797  -9.064  33.686  1.00  0.00    -0.267 OA
HETATM    2  N2  UNK     1      31.066  -7.068  32.660  1.00  0.00    -0.306 N 
HETATM    3  C8  UNK     1      31.263  -7.956  33.709  1.00  0.00     0.263 C 
HETATM    4  H1  UNK     1      30.428  -6.291  32.812  1.00  0.00     0.170 HD
ENDROOT
BRANCH   2   5
HETATM    5  C1  UNK     1      31.448  -7.265  31.331  1.00  0.00     0.146 A 
HETATM    6  N1  UNK     1      32.746  -7.335  30.945  1.00  0.00    -0.290 N 
HETATM    7  C3  UNK     1      32.724  -7.535  29.567  1.00  0.00     0.136 A 
HETATM    8  C4  UNK     1      33.918  -7.239  31.691  1.00  0.00     0.100 A 
HETATM    9  N3  UNK     1      31.489  -7.587  29.112  1.00  0.00    -0.226 NA
HETATM   10  C7  UNK     1      33.984  -7.643  28.908  1.00  0.00     0.051 A 
HETATM   11  C2  UNK     1      30.691  -7.420  30.215  1.00  0.00     0.120 A 
HETATM   12  C13 UNK     1      35.121  -7.551  29.624  1.00  0.00     0.005 A 
HETATM   13  C12 UNK     1      35.100  -7.342  31.064  1.00  0.00     0.018 A 
BRANCH  11  14
HETATM   14  C5  UNK     1      29.221  -7.411  30.154  1.00  0.00     0.037 A 
HETATM   15  C14 UNK     1      28.443  -6.272  30.184  1.00  0.00     0.022 A 
HETATM   16  C18 UNK     1      27.051  -6.568  30.108  1.00  0.00     0.008 A 
HETATM   17  C21 UNK     1      26.814  -7.922  30.023  1.00  0.00     0.050 A 
HETATM   18  S1  UNK     1      28.266  -8.831  30.034  1.00  0.00    -0.100 SA
ENDBRANCH  11  14
ENDBRANCH   2   5
BRANCH   3  19
HETATM   19  C6  UNK     1      30.738  -7.433  34.976  1.00  0.00     0.108 A 
HETATM   20  C10 UNK     1      30.012  -8.282  35.712  1.00  0.00     0.037 A 
HETATM   21  C9  UNK     1      29.449  -7.855  36.983  1.00  0.00     0.002 A 
HETATM   22  C11 UNK     1      29.679  -6.553  37.417  1.00  0.00     0.107 A 
HETATM   23  C16 UNK     1      28.685  -8.708  37.784  1.00  0.00     0.033 A 
HETATM   24  O1  UNK     1      30.444  -5.664  36.639  1.00  0.00    -0.273 OA
HETATM   25  C17 UNK     1      29.167  -6.082  38.626  1.00  0.00     0.047 A 
HETATM   26  C15 UNK     1      30.995  -6.043  35.418  1.00  0.00     0.304 A 
HETATM   27  O3  UNK     1      31.661  -5.261  34.748  1.00  0.00    -0.259 OA
HETATM   28 Br1  UNK     1      29.476  -4.312  39.223  1.00  0.00    -0.048 Br
HETATM   29  C20 UNK     1      28.407  -6.939  39.417  1.00  0.00     0.041 A 
HETATM   30  C19 UNK     1      28.166  -8.249  38.997  1.00  0.00     0.013 A 
HETATM   31 Br2  UNK     1      27.133  -9.408  40.076  1.00  0.00    -0.051 Br
ENDBRANCH   3  19
TORSDOF 3
ENDMDL
MODEL 4
REMARK VINA RESULT:      -8.5      7.841     11.233
REMARK  3 active torsions:
REMARK  status: ('A' for Active; 'I' for Inactive)
REMARK    1  A    between atoms: C1_10  and  N2_8 
REMARK       I    between atoms: C8_17  and  N2_8 
REMARK    2  A    between atoms: C2_11  and  C5_14 
REMARK    3  A    between atoms: C6_15  and  C8_17 
ROOT
HETATM    1  O2  UNK     1      19.675   5.278  31.902  1.00  0.00    -0.267 OA
HETATM    2  N2  UNK     1      17.753   4.028  32.463  1.00  0.00    -0.306 N 
HETATM    3  C8  UNK     1      18.507   5.179  32.275  1.00  0.00     0.263 C 
HETATM    4  H1  UNK     1      16.875   4.115  32.969  1.00  0.00     0.170 HD
ENDROOT
BRANCH   2   5
HETATM    5  C1  UNK     1      18.188   2.716  32.261  1.00  0.00     0.146 A 
HETATM    6  N1  UNK     1      18.476   2.222  31.031  1.00  0.00    -0.290 N 
HETATM    7  C3  UNK     1      18.870   0.901  31.233  1.00  0.00     0.136 A 
HETATM    8  C4  UNK     1      18.420   2.827  29.777  1.00  0.00     0.100 A 
HETATM    9  N3  UNK     1      18.833   0.583  32.510  1.00  0.00    -0.226 NA
HETATM   10  C7  UNK     1      19.229   0.149  30.076  1.00  0.00     0.051 A 
HETATM   11  C2  UNK     1      18.407   1.717  33.153  1.00  0.00     0.120 A 
HETATM   12  C13 UNK     1      19.178   0.728  28.861  1.00  0.00     0.005 A 
HETATM   13  C12 UNK     1      18.761   2.112  28.694  1.00  0.00     0.018 A 
BRANCH  11  14
HETATM   14  C5  UNK     1      18.223   1.798  34.611  1.00  0.00     0.037 A 
HETATM   15  C14 UNK     1      19.083   2.448  35.473  1.00  0.00     0.022 A 
HETATM   16  C18 UNK     1      18.652   2.362  36.828  1.00  0.00     0.008 A 
HETATM   17  C21 UNK     1      17.479   1.651  36.954  1.00  0.00     0.050 A 
HETATM   18  S1  UNK     1      16.902   1.090  35.443  1.00  0.00    -0.100 SA
ENDBRANCH  11  14
ENDBRANCH   2   5
BRANCH   3  19
HETATM   19  C6  UNK     1      17.740   6.392  32.580  1.00  0.00     0.108 A 
HETATM   20  C10 UNK     1      18.434   7.422  33.079  1.00  0.00     0.037 A 
HETATM   21  C9  UNK     1      17.762   8.667  33.413  1.00  0.00     0.002 A 
HETATM   22  C11 UNK     1      16.389   8.767  33.207  1.00  0.00     0.107 A 
HETATM   23  C16 UNK     1      18.448   9.767  33.935  1.00  0.00     0.033 A 
HETATM   24  O1  UNK     1      15.664   7.680  32.682  1.00  0.00    -0.273 OA
HETATM   25  C17 UNK     1      15.685   9.932  33.507  1.00  0.00     0.047 A 
HETATM   26  C15 UNK     1      16.279   6.476  32.353  1.00  0.00     0.304 A 
HETATM   27  O3  UNK     1      15.639   5.536  31.896  1.00  0.00    -0.259 OA
HETATM   28 Br1  UNK     1      13.818  10.075  33.229  1.00  0.00    -0.048 Br
HETATM   29  C20 UNK     1      16.376  11.023  34.027  1.00  0.00     0.041 A 
HETATM   30  C19 UNK     1      17.754  10.942  34.240  1.00  0.00     0.013 A 
HETATM   31 Br2  UNK     1      18.688  12.427  34.946  1.00  0.00    -0.051 Br
ENDBRANCH   3  19
TORSDOF 3
ENDMDL
MODEL 5
REMARK VINA RESULT:      -8.4     28.018     30.198
REMARK  3 active torsions:
REMARK  status: ('A' for Active; 'I' for Inactive)
REMARK    1  A    between atoms: C1_10  and  N2_8 
REMARK       I    between atoms: C8_17  and  N2_8 
REMARK    2  A    between atoms: C2_11  and  C5_14 
REMARK    3  A    between atoms: C6_15  and  C8_17 
ROOT
HETATM    1  O2  UNK     1      14.853   8.191  10.288  1.00  0.00    -0.267 OA
HETATM    2  N2  UNK     1      13.515   9.425   8.785  1.00  0.00    -0.306 N 
HETATM    3  C8  UNK     1      14.684   9.070   9.444  1.00  0.00     0.263 C 
HETATM    4  H1  UNK     1      13.508  10.304   8.275  1.00  0.00     0.170 HD
ENDROOT
BRANCH   2   5
HETATM    5  C1  UNK     1      12.261   8.833   8.956  1.00  0.00     0.146 A 
HETATM    6  N1  UNK     1      11.798   7.850   8.144  1.00  0.00    -0.290 N 
HETATM    7  C3  UNK     1      10.533   7.522   8.625  1.00  0.00     0.136 A 
HETATM    8  C4  UNK     1      12.388   7.235   7.043  1.00  0.00     0.100 A 
HETATM    9  N3  UNK     1      10.217   8.253   9.674  1.00  0.00    -0.226 NA
HETATM   10  C7  UNK     1       9.823   6.498   7.931  1.00  0.00     0.051 A 
HETATM   11  C2  UNK     1      11.298   9.072   9.882  1.00  0.00     0.120 A 
HETATM   12  C13 UNK     1      10.387   5.900   6.865  1.00  0.00     0.005 A 
HETATM   13  C12 UNK     1      11.713   6.272   6.396  1.00  0.00     0.018 A 
BRANCH  11  14
HETATM   14  C5  UNK     1      11.363  10.063  10.968  1.00  0.00     0.037 A 
HETATM   15  C14 UNK     1      10.651  11.245  10.993  1.00  0.00     0.022 A 
HETATM   16  C18 UNK     1      10.912  12.006  12.169  1.00  0.00     0.008 A 
HETATM   17  C21 UNK     1      11.813  11.379  13.001  1.00  0.00     0.050 A 
HETATM   18  S1  UNK     1      12.340   9.879  12.365  1.00  0.00    -0.100 SA
ENDBRANCH  11  14
ENDBRANCH   2   5
BRANCH   3  19
HETATM   19  C6  UNK     1      15.821   9.898   9.026  1.00  0.00     0.108 A 
HETATM   20  C10 UNK     1      15.528  10.986   8.304  1.00  0.00     0.037 A 
HETATM   21  C9  UNK     1      16.588  11.869   7.844  1.00  0.00     0.002 A 
HETATM   22  C11 UNK     1      17.906  11.563   8.166  1.00  0.00     0.107 A 
HETATM   23  C16 UNK     1      16.327  13.016   7.089  1.00  0.00     0.033 A 
HETATM   24  O1  UNK     1      18.209  10.417   8.926  1.00  0.00    -0.273 OA
HETATM   25  C17 UNK     1      18.968  12.368   7.755  1.00  0.00     0.047 A 
HETATM   26  C15 UNK     1      17.217   9.553   9.380  1.00  0.00     0.304 A 
HETATM   27  O3  UNK     1      17.491   8.558  10.042  1.00  0.00    -0.259 OA
HETATM   28 Br1  UNK     1      20.764  11.957   8.190  1.00  0.00    -0.048 Br
HETATM   29  C20 UNK     1      18.699  13.508   7.003  1.00  0.00     0.041 A 
HETATM   30  C19 UNK     1      17.381  13.832   6.670  1.00  0.00     0.013 A 
HETATM   31 Br2  UNK     1      17.022  15.381   5.648  1.00  0.00    -0.051 Br
ENDBRANCH   3  19
TORSDOF 3
ENDMDL
MODEL 6
REMARK VINA RESULT:      -8.3     11.967     13.974
REMARK  3 active torsions:
REMARK  status: ('A' for Active; 'I' for Inactive)
REMARK    1  A    between atoms: C1_10  and  N2_8 
REMARK       I    between atoms: C8_17  and  N2_8 
REMARK    2  A    between atoms: C2_11  and  C5_14 
REMARK    3  A    between atoms: C6_15  and  C8_17 
ROOT
HETATM    1  O2  UNK     1      31.992 -10.158  33.570  1.00  0.00    -0.267 OA
HETATM    2  N2  UNK     1      31.015  -8.441  32.277  1.00  0.00    -0.306 N 
HETATM    3  C8  UNK     1      31.365  -9.107  33.444  1.00  0.00     0.263 C 
HETATM    4  H1  UNK     1      30.324  -7.699  32.345  1.00  0.00     0.170 HD
ENDROOT
BRANCH   2   5
HETATM    5  C1  UNK     1      31.317  -8.847  30.975  1.00  0.00     0.146 A 
HETATM    6  N1  UNK     1      30.363  -9.190  30.075  1.00  0.00    -0.290 N 
HETATM    7  C3  UNK     1      31.044  -9.531  28.908  1.00  0.00     0.136 A 
HETATM    8  C4  UNK     1      28.976  -9.224  30.196  1.00  0.00     0.100 A 
HETATM    9  N3  UNK     1      32.346  -9.412  29.064  1.00  0.00    -0.226 NA
HETATM   10  C7  UNK     1      30.253  -9.936  27.793  1.00  0.00     0.051 A 
HETATM   11  C2  UNK     1      32.517  -8.983  30.356  1.00  0.00     0.120 A 
HETATM   12  C13 UNK     1      28.911  -9.972  27.904  1.00  0.00     0.005 A 
HETATM   13  C12 UNK     1      28.239  -9.606  29.141  1.00  0.00     0.018 A 
BRANCH  11  14
HETATM   14  C5  UNK     1      33.837  -8.722  30.951  1.00  0.00     0.037 A 
HETATM   15  C14 UNK     1      34.289  -7.477  31.337  1.00  0.00     0.022 A 
HETATM   16  C18 UNK     1      35.605  -7.526  31.881  1.00  0.00     0.008 A 
HETATM   17  C21 UNK     1      36.112  -8.807  31.893  1.00  0.00     0.050 A 
HETATM   18  S1  UNK     1      35.004  -9.943  31.249  1.00  0.00    -0.100 SA
ENDBRANCH  11  14
ENDBRANCH   2   5
BRANCH   3  19
HETATM   19  C6  UNK     1      30.887  -8.403  34.640  1.00  0.00     0.108 A 
HETATM   20  C10 UNK     1      30.103  -9.105  35.467  1.00  0.00     0.037 A 
HETATM   21  C9  UNK     1      29.581  -8.493  36.679  1.00  0.00     0.002 A 
HETATM   22  C11 UNK     1      29.909  -7.171  36.960  1.00  0.00     0.107 A 
HETATM   23  C16 UNK     1      28.759  -9.189  37.570  1.00  0.00     0.033 A 
HETATM   24  O1  UNK     1      30.735  -6.438  36.087  1.00  0.00    -0.273 OA
HETATM   25  C17 UNK     1      29.441  -6.526  38.104  1.00  0.00     0.047 A 
HETATM   26  C15 UNK     1      31.249  -6.995  34.920  1.00  0.00     0.304 A 
HETATM   27  O3  UNK     1      31.968  -6.348  34.166  1.00  0.00    -0.259 OA
HETATM   28 Br1  UNK     1      29.884  -4.727  38.494  1.00  0.00    -0.048 Br
HETATM   29  C20 UNK     1      28.623  -7.227  38.986  1.00  0.00     0.041 A 
HETATM   30  C19 UNK     1      28.283  -8.555  38.720  1.00  0.00     0.013 A 
HETATM   31 Br2  UNK     1      27.171  -9.502  39.922  1.00  0.00    -0.051 Br
ENDBRANCH   3  19
TORSDOF 3
ENDMDL
MODEL 7
REMARK VINA RESULT:      -8.3     11.555     13.521
REMARK  3 active torsions:
REMARK  status: ('A' for Active; 'I' for Inactive)
REMARK    1  A    between atoms: C1_10  and  N2_8 
REMARK       I    between atoms: C8_17  and  N2_8 
REMARK    2  A    between atoms: C2_11  and  C5_14 
REMARK    3  A    between atoms: C6_15  and  C8_17 
ROOT
HETATM    1  O2  UNK     1      30.286  -5.895  31.512  1.00  0.00    -0.267 OA
HETATM    2  N2  UNK     1      30.806  -8.114  32.128  1.00  0.00    -0.306 N 
HETATM    3  C8  UNK     1      30.416  -6.798  32.338  1.00  0.00     0.263 C 
HETATM    4  H1  UNK     1      31.059  -8.668  32.942  1.00  0.00     0.170 HD
ENDROOT
BRANCH   2   5
HETATM    5  C1  UNK     1      31.135  -8.689  30.899  1.00  0.00     0.146 A 
HETATM    6  N1  UNK     1      30.199  -9.100  30.008  1.00  0.00    -0.290 N 
HETATM    7  C3  UNK     1      30.904  -9.611  28.921  1.00  0.00     0.136 A 
HETATM    8  C4  UNK     1      28.808  -9.061  30.075  1.00  0.00     0.100 A 
HETATM    9  N3  UNK     1      32.205  -9.528  29.115  1.00  0.00    -0.226 NA
HETATM   10  C7  UNK     1      30.136 -10.116  27.831  1.00  0.00     0.051 A 
HETATM   11  C2  UNK     1      32.349  -8.951  30.351  1.00  0.00     0.120 A 
HETATM   12  C13 UNK     1      28.791 -10.081  27.889  1.00  0.00     0.005 A 
HETATM   13  C12 UNK     1      28.093  -9.538  29.044  1.00  0.00     0.018 A 
BRANCH  11  14
HETATM   14  C5  UNK     1      33.658  -8.674  30.964  1.00  0.00     0.037 A 
HETATM   15  C14 UNK     1      34.163  -7.411  31.194  1.00  0.00     0.022 A 
HETATM   16  C18 UNK     1      35.452  -7.448  31.800  1.00  0.00     0.008 A 
HETATM   17  C21 UNK     1      35.886  -8.738  32.013  1.00  0.00     0.050 A 
HETATM   18  S1  UNK     1      34.742  -9.897  31.482  1.00  0.00    -0.100 SA
ENDBRANCH  11  14
ENDBRANCH   2   5
BRANCH   3  19
HETATM   19  C6  UNK     1      30.144  -6.527  33.754  1.00  0.00     0.108 A 
HETATM   20  C10 UNK     1      29.106  -7.178  34.293  1.00  0.00     0.037 A 
HETATM   21  C9  UNK     1      28.758  -6.975  35.691  1.00  0.00     0.002 A 
HETATM   22  C11 UNK     1      29.519  -6.094  36.453  1.00  0.00     0.107 A 
HETATM   23  C16 UNK     1      27.683  -7.634  36.294  1.00  0.00     0.033 A 
HETATM   24  O1  UNK     1      30.610  -5.412  35.880  1.00  0.00    -0.273 OA
HETATM   25  C17 UNK     1      29.238  -5.855  37.797  1.00  0.00     0.047 A 
HETATM   26  C15 UNK     1      30.968  -5.586  34.547  1.00  0.00     0.304 A 
HETATM   27  O3  UNK     1      31.920  -4.987  34.058  1.00  0.00    -0.259 OA
HETATM   28 Br1  UNK     1      30.270  -4.659  38.840  1.00  0.00    -0.048 Br
HETATM   29  C20 UNK     1      28.165  -6.515  38.390  1.00  0.00     0.041 A 
HETATM   30  C19 UNK     1      27.389  -7.403  37.641  1.00  0.00     0.013 A 
HETATM   31 Br2  UNK     1      25.934  -8.298  38.451  1.00  0.00    -0.051 Br
ENDBRANCH   3  19
TORSDOF 3
ENDMDL
MODEL 8
REMARK VINA RESULT:      -8.3     11.914     13.857
REMARK  3 active torsions:
REMARK  status: ('A' for Active; 'I' for Inactive)
REMARK    1  A    between atoms: C1_10  and  N2_8 
REMARK       I    between atoms: C8_17  and  N2_8 
REMARK    2  A    between atoms: C2_11  and  C5_14 
REMARK    3  A    between atoms: C6_15  and  C8_17 
ROOT
HETATM    1  O2  UNK     1      31.376  -9.675  35.875  1.00  0.00    -0.267 OA
HETATM    2  N2  UNK     1      29.784  -7.966  35.537  1.00  0.00    -0.306 N 
HETATM    3  C8  UNK     1      30.701  -8.937  35.159  1.00  0.00     0.263 C 
HETATM    4  H1  UNK     1      29.469  -7.310  34.827  1.00  0.00     0.170 HD
ENDROOT
BRANCH   2   5
HETATM    5  C1  UNK     1      29.437  -7.626  36.847  1.00  0.00     0.146 A 
HETATM    6  N1  UNK     1      28.525  -8.324  37.568  1.00  0.00    -0.290 N 
HETATM    7  C3  UNK     1      28.451  -7.691  38.807  1.00  0.00     0.136 A 
HETATM    8  C4  UNK     1      27.772  -9.446  37.229  1.00  0.00     0.100 A 
HETATM    9  N3  UNK     1      29.266  -6.658  38.863  1.00  0.00    -0.226 NA
HETATM   10  C7  UNK     1      27.546  -8.242  39.761  1.00  0.00     0.051 A 
HETATM   11  C2  UNK     1      29.883  -6.618  37.639  1.00  0.00     0.120 A 
HETATM   12  C13 UNK     1      26.815  -9.326  39.441  1.00  0.00     0.005 A 
HETATM   13  C12 UNK     1      26.923  -9.958  38.134  1.00  0.00     0.018 A 
BRANCH  11  14
HETATM   14  C5  UNK     1      30.883  -5.602  37.272  1.00  0.00     0.037 A 
HETATM   15  C14 UNK     1      30.633  -4.247  37.203  1.00  0.00     0.022 A 
HETATM   16  C18 UNK     1      31.788  -3.505  36.823  1.00  0.00     0.008 A 
HETATM   17  C21 UNK     1      32.881  -4.319  36.616  1.00  0.00     0.050 A 
HETATM   18  S1  UNK     1      32.512  -5.970  36.880  1.00  0.00    -0.100 SA
ENDBRANCH  11  14
ENDBRANCH   2   5
BRANCH   3  19
HETATM   19  C6  UNK     1      30.824  -9.035  33.700  1.00  0.00     0.108 A 
HETATM   20  C10 UNK     1      31.926  -8.499  33.162  1.00  0.00     0.037 A 
HETATM   21  C9  UNK     1      32.138  -8.547  31.724  1.00  0.00     0.002 A 
HETATM   22  C11 UNK     1      31.178  -9.155  30.922  1.00  0.00     0.107 A 
HETATM   23  C16 UNK     1      33.274  -8.000  31.120  1.00  0.00     0.033 A 
HETATM   24  O1  UNK     1      30.021  -9.717  31.494  1.00  0.00    -0.273 OA
HETATM   25  C17 UNK     1      31.321  -9.233  29.537  1.00  0.00     0.047 A 
HETATM   26  C15 UNK     1      29.790  -9.687  32.866  1.00  0.00     0.304 A 
HETATM   27  O3  UNK     1      28.779 -10.181  33.354  1.00  0.00    -0.259 OA
HETATM   28 Br1  UNK     1      30.019 -10.061  28.440  1.00  0.00    -0.048 Br
HETATM   29  C20 UNK     1      32.456  -8.686  28.944  1.00  0.00     0.041 A 
HETATM   30  C19 UNK     1      33.430  -8.071  29.733  1.00  0.00     0.013 A 
HETATM   31 Br2  UNK     1      34.969  -7.330  28.922  1.00  0.00    -0.051 Br
ENDBRANCH   3  19
TORSDOF 3
ENDMDL
MODEL 9
REMARK VINA RESULT:      -8.2     11.367     13.169
REMARK  3 active torsions:
REMARK  status: ('A' for Active; 'I' for Inactive)
REMARK    1  A    between atoms: C1_10  and  N2_8 
REMARK       I    between atoms: C8_17  and  N2_8 
REMARK    2  A    between atoms: C2_11  and  C5_14 
REMARK    3  A    between atoms: C6_15  and  C8_17 
ROOT
HETATM    1  O2  UNK     1      28.038  -6.580  34.387  1.00  0.00    -0.267 OA
HETATM    2  N2  UNK     1      29.588  -7.923  35.555  1.00  0.00    -0.306 N 
HETATM    3  C8  UNK     1      28.944  -7.411  34.437  1.00  0.00     0.263 C 
HETATM    4  H1  UNK     1      30.168  -8.749  35.430  1.00  0.00     0.170 HD
ENDROOT
BRANCH   2   5
HETATM    5  C1  UNK     1      29.326  -7.584  36.884  1.00  0.00     0.146 A 
HETATM    6  N1  UNK     1      28.462  -8.282  37.662  1.00  0.00    -0.290 N 
HETATM    7  C3  UNK     1      28.468  -7.650  38.903  1.00  0.00     0.136 A 
HETATM    8  C4  UNK     1      27.689  -9.404  37.372  1.00  0.00     0.100 A 
HETATM    9  N3  UNK     1      29.285  -6.616  38.907  1.00  0.00    -0.226 NA
HETATM   10  C7  UNK     1      27.626  -8.201  39.914  1.00  0.00     0.051 A 
HETATM   11  C2  UNK     1      29.822  -6.575  37.646  1.00  0.00     0.120 A 
HETATM   12  C13 UNK     1      26.876  -9.285  39.640  1.00  0.00     0.005 A 
HETATM   13  C12 UNK     1      26.900  -9.916  38.330  1.00  0.00     0.018 A 
BRANCH  11  14
HETATM   14  C5  UNK     1      30.796  -5.560  37.216  1.00  0.00     0.037 A 
HETATM   15  C14 UNK     1      30.591  -4.197  37.293  1.00  0.00     0.022 A 
HETATM   16  C18 UNK     1      31.706  -3.457  36.806  1.00  0.00     0.008 A 
HETATM   17  C21 UNK     1      32.724  -4.278  36.373  1.00  0.00     0.050 A 
HETATM   18  S1  UNK     1      32.333  -5.936  36.555  1.00  0.00    -0.100 SA
ENDBRANCH  11  14
ENDBRANCH   2   5
BRANCH   3  19
HETATM   19  C6  UNK     1      29.467  -7.985  33.192  1.00  0.00     0.108 A 
HETATM   20  C10 UNK     1      29.519  -9.321  33.132  1.00  0.00     0.037 A 
HETATM   21  C9  UNK     1      30.022  -9.983  31.939  1.00  0.00     0.002 A 
HETATM   22  C11 UNK     1      30.448  -9.205  30.867  1.00  0.00     0.107 A 
HETATM   23  C16 UNK     1      30.094 -11.375  31.833  1.00  0.00     0.033 A 
HETATM   24  O1  UNK     1      30.391  -7.800  30.936  1.00  0.00    -0.273 OA
HETATM   25  C17 UNK     1      30.942  -9.778  29.696  1.00  0.00     0.047 A 
HETATM   26  C15 UNK     1      29.915  -7.138  32.063  1.00  0.00     0.304 A 
HETATM   27  O3  UNK     1      29.868  -5.914  32.113  1.00  0.00    -0.259 OA
HETATM   28 Br1  UNK     1      31.522  -8.726  28.232  1.00  0.00    -0.048 Br
HETATM   29  C20 UNK     1      31.010 -11.165  29.599  1.00  0.00     0.041 A 
HETATM   30  C19 UNK     1      30.587 -11.962  30.665  1.00  0.00     0.013 A 
HETATM   31 Br2  UNK     1      30.681 -13.846  30.528  1.00  0.00    -0.051 Br
ENDBRANCH   3  19
TORSDOF 3
ENDMDL
MODEL 10
REMARK VINA RESULT:      -8.2     27.211     29.253
REMARK  3 active torsions:
REMARK  status: ('A' for Active; 'I' for Inactive)
REMARK    1  A    between atoms: C1_10  and  N2_8 
REMARK       I    between atoms: C8_17  and  N2_8 
REMARK    2  A    between atoms: C2_11  and  C5_14 
REMARK    3  A    between atoms: C6_15  and  C8_17 
ROOT
HETATM    1  O2  UNK     1      17.725  13.028  10.616  1.00  0.00    -0.267 OA
HETATM    2  N2  UNK     1      18.237  10.933   9.657  1.00  0.00    -0.306 N 
HETATM    3  C8  UNK     1      18.498  12.110  10.346  1.00  0.00     0.263 C 
HETATM    4  H1  UNK     1      19.032  10.382   9.345  1.00  0.00     0.170 HD
ENDROOT
BRANCH   2   5
HETATM    5  C1  UNK     1      17.006  10.549   9.120  1.00  0.00     0.146 A 
HETATM    6  N1  UNK     1      16.321   9.464   9.560  1.00  0.00    -0.290 N 
HETATM    7  C3  UNK     1      15.160   9.408   8.793  1.00  0.00     0.136 A 
HETATM    8  C4  UNK     1      16.630   8.545  10.560  1.00  0.00     0.100 A 
HETATM    9  N3  UNK     1      15.116  10.396   7.922  1.00  0.00    -0.226 NA
HETATM   10  C7  UNK     1      14.256   8.340   9.065  1.00  0.00     0.051 A 
HETATM   11  C2  UNK     1      16.269  11.109   8.127  1.00  0.00     0.120 A 
HETATM   12  C13 UNK     1      14.548   7.447  10.030  1.00  0.00     0.005 A 
HETATM   13  C12 UNK     1      15.773   7.542  10.809  1.00  0.00     0.018 A 
BRANCH  11  14
HETATM   14  C5  UNK     1      16.624  12.309   7.353  1.00  0.00     0.037 A 
HETATM   15  C14 UNK     1      17.828  12.496   6.706  1.00  0.00     0.022 A 
HETATM   16  C18 UNK     1      17.891  13.751   6.036  1.00  0.00     0.008 A 
HETATM   17  C21 UNK     1      16.733  14.481   6.194  1.00  0.00     0.050 A 
HETATM   18  S1  UNK     1      15.577  13.651   7.147  1.00  0.00    -0.100 SA
ENDBRANCH  11  14
ENDBRANCH   2   5
BRANCH   3  19
HETATM   19  C6  UNK     1      19.899  12.196  10.773  1.00  0.00     0.108 A 
HETATM   20  C10 UNK     1      20.110  12.542  12.048  1.00  0.00     0.037 A 
HETATM   21  C9  UNK     1      21.465  12.653  12.564  1.00  0.00     0.002 A 
HETATM   22  C11 UNK     1      22.533  12.395  11.711  1.00  0.00     0.107 A 
HETATM   23  C16 UNK     1      21.731  13.011  13.889  1.00  0.00     0.033 A 
HETATM   24  O1  UNK     1      22.305  12.031  10.370  1.00  0.00    -0.273 OA
HETATM   25  C17 UNK     1      23.855  12.484  12.143  1.00  0.00     0.047 A 
HETATM   26  C15 UNK     1      21.021  11.916   9.847  1.00  0.00     0.304 A 
HETATM   27  O3  UNK     1      20.833  11.598   8.678  1.00  0.00    -0.259 OA
HETATM   28 Br1  UNK     1      25.314  12.133  10.988  1.00  0.00    -0.048 Br
HETATM   29  C20 UNK     1      24.111  12.842  13.464  1.00  0.00     0.041 A 
HETATM   30  C19 UNK     1      23.051  13.105  14.335  1.00  0.00     0.013 A 
HETATM   31 Br2  UNK     1      23.404  13.590  16.128  1.00  0.00    -0.051 Br
ENDBRANCH   3  19
TORSDOF 3
ENDMDL
