MODEL 1
REMARK VINA RESULT:      -7.8      0.000      0.000
REMARK  3 active torsions:
REMARK  status: ('A' for Active; 'I' for Inactive)
REMARK    1  A    between atoms: C6_10  and  O2_2 
REMARK    2  A    between atoms: C9_13  and  O3_3 
REMARK    3  A    between atoms: C3_7  and  C4_8 
ROOT
HETATM    1  O1  UNK     1      12.927   7.401   7.810  1.00  0.00    -0.309 OA
HETATM    2  O4  UNK     1       9.752   8.586  10.072  1.00  0.00    -0.287 OA
HETATM    3  C1  UNK     1      10.522   7.444   8.152  1.00  0.00     0.081 A 
HETATM    4  C2  UNK     1      11.652   7.070   7.426  1.00  0.00     0.093 A 
HETATM    5  C3  UNK     1      13.095   8.147   8.967  1.00  0.00     0.093 A 
HETATM    6  C5  UNK     1      10.698   8.227   9.384  1.00  0.00     0.190 A 
HETATM    7  C6  UNK     1       9.248   7.078   7.713  1.00  0.00     0.085 A 
HETATM    8  C7  UNK     1      12.089   8.560   9.753  1.00  0.00     0.094 A 
HETATM    9  C8  UNK     1      11.513   6.325   6.254  1.00  0.00     0.038 A 
HETATM   10  C10 UNK     1       9.112   6.334   6.540  1.00  0.00     0.038 A 
HETATM   11  C12 UNK     1      10.242   5.959   5.813  1.00  0.00     0.006 A 
ENDROOT
BRANCH   5  12
HETATM   12  C4  UNK     1      14.505   8.441   9.289  1.00  0.00     0.031 A 
HETATM   13  C11 UNK     1      15.087   9.615   8.799  1.00  0.00     0.017 A 
HETATM   14  C14 UNK     1      16.418   9.914   9.090  1.00  0.00     0.001 A 
HETATM   15  C15 UNK     1      17.175   9.041   9.872  1.00  0.00     0.003 A 
HETATM   16  C13 UNK     1      16.599   7.869  10.363  1.00  0.00     0.038 A 
HETATM   17  C9  UNK     1      15.268   7.569  10.072  1.00  0.00     0.081 A 
BRANCH  17  18
HETATM   18  O3  UNK     1      14.731   6.416  10.565  1.00  0.00    -0.355 OA
HETATM   19  C17 UNK     1      15.194   5.194   9.997  1.00  0.00     0.210 C 
ENDBRANCH  17  18
ENDBRANCH   5  12
BRANCH   7  20
HETATM   20  O2  UNK     1       8.114   7.419   8.386  1.00  0.00    -0.355 OA
HETATM   21  C16 UNK     1       7.451   6.382   9.107  1.00  0.00     0.210 C 
ENDBRANCH   7  20
TORSDOF 3
ENDMDL
MODEL 2
REMARK VINA RESULT:      -7.8     24.779     27.411
REMARK  3 active torsions:
REMARK  status: ('A' for Active; 'I' for Inactive)
REMARK    1  A    between atoms: C6_10  and  O2_2 
REMARK    2  A    between atoms: C9_13  and  O3_3 
REMARK    3  A    between atoms: C3_7  and  C4_8 
ROOT
HETATM    1  O1  UNK     1      19.674  -1.612  33.696  1.00  0.00    -0.309 OA
HETATM    2  O4  UNK     1      16.900   1.007  35.126  1.00  0.00    -0.287 OA
HETATM    3  C1  UNK     1      18.373  -0.785  35.573  1.00  0.00     0.081 A 
HETATM    4  C2  UNK     1      19.316  -1.650  35.019  1.00  0.00     0.093 A 
HETATM    5  C3  UNK     1      19.065  -0.676  32.874  1.00  0.00     0.093 A 
HETATM    6  C5  UNK     1      17.732   0.215  34.706  1.00  0.00     0.190 A 
HETATM    7  C6  UNK     1      18.047  -0.870  36.929  1.00  0.00     0.085 A 
HETATM    8  C7  UNK     1      18.150   0.214  33.289  1.00  0.00     0.094 A 
HETATM    9  C8  UNK     1      19.939  -2.607  35.820  1.00  0.00     0.038 A 
HETATM   10  C10 UNK     1      18.673  -1.828  37.727  1.00  0.00     0.038 A 
HETATM   11  C12 UNK     1      19.616  -2.694  37.175  1.00  0.00     0.006 A 
ENDROOT
BRANCH   5  12
HETATM   12  C4  UNK     1      19.528  -0.718  31.472  1.00  0.00     0.031 A 
HETATM   13  C11 UNK     1      20.112  -1.890  30.982  1.00  0.00     0.017 A 
HETATM   14  C14 UNK     1      20.558  -1.953  29.662  1.00  0.00     0.001 A 
HETATM   15  C15 UNK     1      20.423  -0.845  28.825  1.00  0.00     0.003 A 
HETATM   16  C13 UNK     1      19.841   0.327  29.310  1.00  0.00     0.038 A 
HETATM   17  C9  UNK     1      19.395   0.390  30.630  1.00  0.00     0.081 A 
BRANCH  17  18
HETATM   18  O3  UNK     1      18.830   1.548  31.078  1.00  0.00    -0.355 OA
HETATM   19  C17 UNK     1      18.516   2.534  30.098  1.00  0.00     0.210 C 
ENDBRANCH  17  18
ENDBRANCH   5  12
BRANCH   7  20
HETATM   20  O2  UNK     1      17.133  -0.048  37.516  1.00  0.00    -0.355 OA
HETATM   21  C16 UNK     1      17.640   1.022  38.313  1.00  0.00     0.210 C 
ENDBRANCH   7  20
TORSDOF 3
ENDMDL
MODEL 3
REMARK VINA RESULT:      -7.8     23.798     26.038
REMARK  3 active torsions:
REMARK  status: ('A' for Active; 'I' for Inactive)
REMARK    1  A    between atoms: C6_10  and  O2_2 
REMARK    2  A    between atoms: C9_13  and  O3_3 
REMARK    3  A    between atoms: C3_7  and  C4_8 
ROOT
HETATM    1  O1  UNK     1      18.358   4.048  34.541  1.00  0.00    -0.309 OA
HETATM    2  O4  UNK     1      18.264   2.008  31.016  1.00  0.00    -0.287 OA
HETATM    3  C1  UNK     1      18.330   1.917  33.376  1.00  0.00     0.081 A 
HETATM    4  C2  UNK     1      18.360   2.677  34.544  1.00  0.00     0.093 A 
HETATM    5  C3  UNK     1      18.333   4.705  33.320  1.00  0.00     0.093 A 
HETATM    6  C5  UNK     1      18.294   2.611  32.079  1.00  0.00     0.190 A 
HETATM    7  C6  UNK     1      18.334   0.522  33.440  1.00  0.00     0.085 A 
HETATM    8  C7  UNK     1      18.296   4.087  32.129  1.00  0.00     0.094 A 
HETATM    9  C8  UNK     1      18.393   2.043  35.787  1.00  0.00     0.038 A 
HETATM   10  C10 UNK     1      18.367  -0.109  34.684  1.00  0.00     0.038 A 
HETATM   11  C12 UNK     1      18.397   0.650  35.855  1.00  0.00     0.006 A 
ENDROOT
BRANCH   5  12
HETATM   12  C4  UNK     1      18.327   6.178  33.432  1.00  0.00     0.031 A 
HETATM   13  C11 UNK     1      19.441   6.825  33.975  1.00  0.00     0.017 A 
HETATM   14  C14 UNK     1      19.459   8.215  34.092  1.00  0.00     0.001 A 
HETATM   15  C15 UNK     1      18.362   8.965  33.668  1.00  0.00     0.003 A 
HETATM   16  C13 UNK     1      17.247   8.324  33.125  1.00  0.00     0.038 A 
HETATM   17  C9  UNK     1      17.230   6.933  33.008  1.00  0.00     0.081 A 
BRANCH  17  18
HETATM   18  O3  UNK     1      16.128   6.333  32.475  1.00  0.00    -0.355 OA
HETATM   19  C17 UNK     1      15.053   7.184  32.085  1.00  0.00     0.210 C 
ENDBRANCH  17  18
ENDBRANCH   5  12
BRANCH   7  20
HETATM   20  O2  UNK     1      18.306  -0.264  32.327  1.00  0.00    -0.355 OA
HETATM   21  C16 UNK     1      19.173  -1.397  32.312  1.00  0.00     0.210 C 
ENDBRANCH   7  20
TORSDOF 3
ENDMDL
MODEL 4
REMARK VINA RESULT:      -7.8     24.251     26.803
REMARK  3 active torsions:
REMARK  status: ('A' for Active; 'I' for Inactive)
REMARK    1  A    between atoms: C6_10  and  O2_2 
REMARK    2  A    between atoms: C9_13  and  O3_3 
REMARK    3  A    between atoms: C3_7  and  C4_8 
ROOT
HETATM    1  O1  UNK     1      19.575  -1.490  32.894  1.00  0.00    -0.309 OA
HETATM    2  O4  UNK     1      18.229   2.223  31.891  1.00  0.00    -0.287 OA
HETATM    3  C1  UNK     1      19.263   0.216  31.193  1.00  0.00     0.081 A 
HETATM    4  C2  UNK     1      19.700  -1.043  31.603  1.00  0.00     0.093 A 
HETATM    5  C3  UNK     1      18.995  -0.648  33.830  1.00  0.00     0.093 A 
HETATM    6  C5  UNK     1      18.638   1.107  32.181  1.00  0.00     0.190 A 
HETATM    7  C6  UNK     1      19.416   0.619  29.864  1.00  0.00     0.085 A 
HETATM    8  C7  UNK     1      18.529   0.580  33.557  1.00  0.00     0.094 A 
HETATM    9  C8  UNK     1      20.294  -1.908  30.684  1.00  0.00     0.038 A 
HETATM   10  C10 UNK     1      20.012  -0.250  28.947  1.00  0.00     0.038 A 
HETATM   11  C12 UNK     1      20.450  -1.509  29.356  1.00  0.00     0.006 A 
ENDROOT
BRANCH   5  12
HETATM   12  C4  UNK     1      18.904  -1.231  35.184  1.00  0.00     0.031 A 
HETATM   13  C11 UNK     1      19.959  -2.014  35.662  1.00  0.00     0.017 A 
HETATM   14  C14 UNK     1      19.896  -2.576  36.937  1.00  0.00     0.001 A 
HETATM   15  C15 UNK     1      18.777  -2.358  37.741  1.00  0.00     0.003 A 
HETATM   16  C13 UNK     1      17.722  -1.577  37.269  1.00  0.00     0.038 A 
HETATM   17  C9  UNK     1      17.785  -1.015  35.994  1.00  0.00     0.081 A 
BRANCH  17  18
HETATM   18  O3  UNK     1      16.739  -0.256  35.558  1.00  0.00    -0.355 OA
HETATM   19  C17 UNK     1      16.115   0.595  36.516  1.00  0.00     0.210 C 
ENDBRANCH  17  18
ENDBRANCH   5  12
BRANCH   7  20
HETATM   20  O2  UNK     1      19.006   1.837  29.414  1.00  0.00    -0.355 OA
HETATM   21  C16 UNK     1      17.898   1.857  28.516  1.00  0.00     0.210 C 
ENDBRANCH   7  20
TORSDOF 3
ENDMDL
MODEL 5
REMARK VINA RESULT:      -7.7     12.084     14.151
REMARK  3 active torsions:
REMARK  status: ('A' for Active; 'I' for Inactive)
REMARK    1  A    between atoms: C6_10  and  O2_2 
REMARK    2  A    between atoms: C9_13  and  O3_3 
REMARK    3  A    between atoms: C3_7  and  C4_8 
ROOT
HETATM    1  O1  UNK     1      19.110   0.067  15.865  1.00  0.00    -0.309 OA
HETATM    2  O4  UNK     1      18.675  -0.535  19.871  1.00  0.00    -0.287 OA
HETATM    3  C1  UNK     1      19.061   0.992  18.111  1.00  0.00     0.081 A 
HETATM    4  C2  UNK     1      19.198   1.128  16.730  1.00  0.00     0.093 A 
HETATM    5  C3  UNK     1      18.882  -1.195  16.391  1.00  0.00     0.093 A 
HETATM    6  C5  UNK     1      18.809  -0.344  18.671  1.00  0.00     0.190 A 
HETATM    7  C6  UNK     1      19.161   2.109  18.944  1.00  0.00     0.085 A 
HETATM    8  C7  UNK     1      18.725  -1.453  17.698  1.00  0.00     0.094 A 
HETATM    9  C8  UNK     1      19.436   2.385  16.173  1.00  0.00     0.038 A 
HETATM   10  C10 UNK     1      19.399   3.365  18.384  1.00  0.00     0.038 A 
HETATM   11  C12 UNK     1      19.537   3.503  17.003  1.00  0.00     0.006 A 
ENDROOT
BRANCH   5  12
HETATM   12  C4  UNK     1      18.798  -2.262  15.373  1.00  0.00     0.031 A 
HETATM   13  C11 UNK     1      17.971  -3.364  15.606  1.00  0.00     0.017 A 
HETATM   14  C14 UNK     1      17.877  -4.385  14.659  1.00  0.00     0.001 A 
HETATM   15  C15 UNK     1      18.610  -4.308  13.475  1.00  0.00     0.003 A 
HETATM   16  C13 UNK     1      19.437  -3.209  13.237  1.00  0.00     0.038 A 
HETATM   17  C9  UNK     1      19.531  -2.189  14.184  1.00  0.00     0.081 A 
BRANCH  17  18
HETATM   18  O3  UNK     1      20.347  -1.127  13.927  1.00  0.00    -0.355 OA
HETATM   19  C17 UNK     1      21.095  -1.167  12.714  1.00  0.00     0.210 C 
ENDBRANCH  17  18
ENDBRANCH   5  12
BRANCH   7  20
HETATM   20  O2  UNK     1      19.034   2.028  20.298  1.00  0.00    -0.355 OA
HETATM   21  C16 UNK     1      20.225   2.170  21.070  1.00  0.00     0.210 C 
ENDBRANCH   7  20
TORSDOF 3
ENDMDL
MODEL 6
REMARK VINA RESULT:      -7.7     12.316     14.645
REMARK  3 active torsions:
REMARK  status: ('A' for Active; 'I' for Inactive)
REMARK    1  A    between atoms: C6_10  and  O2_2 
REMARK    2  A    between atoms: C9_13  and  O3_3 
REMARK    3  A    between atoms: C3_7  and  C4_8 
ROOT
HETATM    1  O1  UNK     1      18.967  -1.288  17.797  1.00  0.00    -0.309 OA
HETATM    2  O4  UNK     1      19.310   2.164  15.659  1.00  0.00    -0.287 OA
HETATM    3  C1  UNK     1      19.093   1.138  17.777  1.00  0.00     0.081 A 
HETATM    4  C2  UNK     1      18.980  -0.079  18.447  1.00  0.00     0.093 A 
HETATM    5  C3  UNK     1      19.063  -1.295  16.414  1.00  0.00     0.093 A 
HETATM    6  C5  UNK     1      19.205   1.134  16.310  1.00  0.00     0.190 A 
HETATM    7  C6  UNK     1      19.100   2.339  18.491  1.00  0.00     0.085 A 
HETATM    8  C7  UNK     1      19.184  -0.192  15.659  1.00  0.00     0.094 A 
HETATM    9  C8  UNK     1      18.874  -0.103  19.837  1.00  0.00     0.038 A 
HETATM   10  C10 UNK     1      18.994   2.312  19.882  1.00  0.00     0.038 A 
HETATM   11  C12 UNK     1      18.881   1.095  20.553  1.00  0.00     0.006 A 
ENDROOT
BRANCH   5  12
HETATM   12  C4  UNK     1      19.046  -2.646  15.820  1.00  0.00     0.031 A 
HETATM   13  C11 UNK     1      17.834  -3.177  15.368  1.00  0.00     0.017 A 
HETATM   14  C14 UNK     1      17.793  -4.452  14.803  1.00  0.00     0.001 A 
HETATM   15  C15 UNK     1      18.963  -5.204  14.689  1.00  0.00     0.003 A 
HETATM   16  C13 UNK     1      20.174  -4.678  15.139  1.00  0.00     0.038 A 
HETATM   17  C9  UNK     1      20.216  -3.403  15.703  1.00  0.00     0.081 A 
BRANCH  17  18
HETATM   18  O3  UNK     1      21.414  -2.914  16.135  1.00  0.00    -0.355 OA
HETATM   19  C17 UNK     1      22.011  -3.564  17.254  1.00  0.00     0.210 C 
ENDBRANCH  17  18
ENDBRANCH   5  12
BRANCH   7  20
HETATM   20  O2  UNK     1      19.208   3.553  17.882  1.00  0.00    -0.355 OA
HETATM   21  C16 UNK     1      20.321   4.366  18.251  1.00  0.00     0.210 C 
ENDBRANCH   7  20
TORSDOF 3
ENDMDL
MODEL 7
REMARK VINA RESULT:      -7.7     28.739     31.487
REMARK  3 active torsions:
REMARK  status: ('A' for Active; 'I' for Inactive)
REMARK    1  A    between atoms: C6_10  and  O2_2 
REMARK    2  A    between atoms: C9_13  and  O3_3 
REMARK    3  A    between atoms: C3_7  and  C4_8 
ROOT
HETATM    1  O1  UNK     1      18.651  -4.376  36.473  1.00  0.00    -0.309 OA
HETATM    2  O4  UNK     1      22.378  -5.189  37.904  1.00  0.00    -0.287 OA
HETATM    3  C1  UNK     1      20.341  -6.023  37.046  1.00  0.00     0.081 A 
HETATM    4  C2  UNK     1      19.080  -5.675  36.564  1.00  0.00     0.093 A 
HETATM    5  C3  UNK     1      19.509  -3.367  36.886  1.00  0.00     0.093 A 
HETATM    6  C5  UNK     1      21.257  -4.956  37.475  1.00  0.00     0.190 A 
HETATM    7  C6  UNK     1      20.725  -7.365  37.117  1.00  0.00     0.085 A 
HETATM    8  C7  UNK     1      20.747  -3.574  37.359  1.00  0.00     0.094 A 
HETATM    9  C8  UNK     1      18.193  -6.669  36.149  1.00  0.00     0.038 A 
HETATM   10  C10 UNK     1      19.835  -8.357  36.701  1.00  0.00     0.038 A 
HETATM   11  C12 UNK     1      18.573  -8.010  36.219  1.00  0.00     0.006 A 
ENDROOT
BRANCH   5  12
HETATM   12  C4  UNK     1      18.949  -2.008  36.739  1.00  0.00     0.031 A 
HETATM   13  C11 UNK     1      18.221  -1.453  37.795  1.00  0.00     0.017 A 
HETATM   14  C14 UNK     1      17.682  -0.171  37.679  1.00  0.00     0.001 A 
HETATM   15  C15 UNK     1      17.868   0.561  36.506  1.00  0.00     0.003 A 
HETATM   16  C13 UNK     1      18.595   0.011  35.449  1.00  0.00     0.038 A 
HETATM   17  C9  UNK     1      19.133  -1.271  35.565  1.00  0.00     0.081 A 
BRANCH  17  18
HETATM   18  O3  UNK     1      19.839  -1.784  34.517  1.00  0.00    -0.355 OA
HETATM   19  C17 UNK     1      19.300  -1.578  33.213  1.00  0.00     0.210 C 
ENDBRANCH  17  18
ENDBRANCH   5  12
BRANCH   7  20
HETATM   20  O2  UNK     1      21.945  -7.756  37.579  1.00  0.00    -0.355 OA
HETATM   21  C16 UNK     1      22.591  -8.821  36.884  1.00  0.00     0.210 C 
ENDBRANCH   7  20
TORSDOF 3
ENDMDL
MODEL 8
REMARK VINA RESULT:      -7.7     22.757     24.913
REMARK  3 active torsions:
REMARK  status: ('A' for Active; 'I' for Inactive)
REMARK    1  A    between atoms: C6_10  and  O2_2 
REMARK    2  A    between atoms: C9_13  and  O3_3 
REMARK    3  A    between atoms: C3_7  and  C4_8 
ROOT
HETATM    1  O1  UNK     1      18.425   4.750  31.495  1.00  0.00    -0.309 OA
HETATM    2  O4  UNK     1      18.282   1.778  34.278  1.00  0.00    -0.287 OA
HETATM    3  C1  UNK     1      18.514   2.377  32.004  1.00  0.00     0.081 A 
HETATM    4  C2  UNK     1      18.555   3.442  31.105  1.00  0.00     0.093 A 
HETATM    5  C3  UNK     1      18.238   5.023  32.842  1.00  0.00     0.093 A 
HETATM    6  C5  UNK     1      18.325   2.663  33.434  1.00  0.00     0.190 A 
HETATM    7  C6  UNK     1      18.651   1.063  31.550  1.00  0.00     0.085 A 
HETATM    8  C7  UNK     1      18.188   4.087  33.802  1.00  0.00     0.094 A 
HETATM    9  C8  UNK     1      18.734   3.198  29.743  1.00  0.00     0.038 A 
HETATM   10  C10 UNK     1      18.830   0.823  30.187  1.00  0.00     0.038 A 
HETATM   11  C12 UNK     1      18.871   1.887  29.286  1.00  0.00     0.006 A 
ENDROOT
BRANCH   5  12
HETATM   12  C4  UNK     1      18.117   6.462  33.151  1.00  0.00     0.031 A 
HETATM   13  C11 UNK     1      19.188   7.120  33.764  1.00  0.00     0.017 A 
HETATM   14  C14 UNK     1      19.097   8.479  34.066  1.00  0.00     0.001 A 
HETATM   15  C15 UNK     1      17.934   9.186  33.758  1.00  0.00     0.003 A 
HETATM   16  C13 UNK     1      16.863   8.533  33.146  1.00  0.00     0.038 A 
HETATM   17  C9  UNK     1      16.955   7.175  32.844  1.00  0.00     0.081 A 
BRANCH  17  18
HETATM   18  O3  UNK     1      15.892   6.562  32.246  1.00  0.00    -0.355 OA
HETATM   19  C17 UNK     1      14.678   7.304  32.169  1.00  0.00     0.210 C 
ENDBRANCH  17  18
ENDBRANCH   5  12
BRANCH   7  20
HETATM   20  O2  UNK     1      18.617  -0.010  32.388  1.00  0.00    -0.355 OA
HETATM   21  C16 UNK     1      19.336  -1.174  31.981  1.00  0.00     0.210 C 
ENDBRANCH   7  20
TORSDOF 3
ENDMDL
MODEL 9
REMARK VINA RESULT:      -7.7     28.156     30.777
REMARK  3 active torsions:
REMARK  status: ('A' for Active; 'I' for Inactive)
REMARK    1  A    between atoms: C6_10  and  O2_2 
REMARK    2  A    between atoms: C9_13  and  O3_3 
REMARK    3  A    between atoms: C3_7  and  C4_8 
ROOT
HETATM    1  O1  UNK     1      19.110  -2.820  37.487  1.00  0.00    -0.309 OA
HETATM    2  O4  UNK     1      20.001  -1.684  33.677  1.00  0.00    -0.287 OA
HETATM    3  C1  UNK     1      18.942  -1.159  35.723  1.00  0.00     0.081 A 
HETATM    4  C2  UNK     1      18.674  -1.608  37.015  1.00  0.00     0.093 A 
HETATM    5  C3  UNK     1      19.842  -3.635  36.637  1.00  0.00     0.093 A 
HETATM    6  C5  UNK     1      19.726  -2.016  34.822  1.00  0.00     0.190 A 
HETATM    7  C6  UNK     1      18.472   0.086  35.296  1.00  0.00     0.085 A 
HETATM    8  C7  UNK     1      20.170  -3.312  35.377  1.00  0.00     0.094 A 
HETATM    9  C8  UNK     1      17.934  -0.813  37.891  1.00  0.00     0.038 A 
HETATM   10  C10 UNK     1      17.732   0.879  36.174  1.00  0.00     0.038 A 
HETATM   11  C12 UNK     1      17.463   0.431  37.467  1.00  0.00     0.006 A 
ENDROOT
BRANCH   5  12
HETATM   12  C4  UNK     1      20.265  -4.911  37.248  1.00  0.00     0.031 A 
HETATM   13  C11 UNK     1      21.498  -4.978  37.903  1.00  0.00     0.017 A 
HETATM   14  C14 UNK     1      21.920  -6.172  38.487  1.00  0.00     0.001 A 
HETATM   15  C15 UNK     1      21.111  -7.307  38.418  1.00  0.00     0.003 A 
HETATM   16  C13 UNK     1      19.879  -7.245  37.765  1.00  0.00     0.038 A 
HETATM   17  C9  UNK     1      19.458  -6.050  37.181  1.00  0.00     0.081 A 
BRANCH  17  18
HETATM   18  O3  UNK     1      18.250  -6.018  36.548  1.00  0.00    -0.355 OA
HETATM   19  C17 UNK     1      17.924  -7.133  35.721  1.00  0.00     0.210 C 
ENDBRANCH  17  18
ENDBRANCH   5  12
BRANCH   7  20
HETATM   20  O2  UNK     1      18.707   0.569  34.045  1.00  0.00    -0.355 OA
HETATM   21  C16 UNK     1      18.132   1.834  33.719  1.00  0.00     0.210 C 
ENDBRANCH   7  20
TORSDOF 3
ENDMDL
MODEL 10
REMARK VINA RESULT:      -7.6     11.937     14.997
REMARK  3 active torsions:
REMARK  status: ('A' for Active; 'I' for Inactive)
REMARK    1  A    between atoms: C6_10  and  O2_2 
REMARK    2  A    between atoms: C9_13  and  O3_3 
REMARK    3  A    between atoms: C3_7  and  C4_8 
ROOT
HETATM    1  O1  UNK     1      20.507  -1.835  17.678  1.00  0.00    -0.309 OA
HETATM    2  O4  UNK     1      17.679  -2.860  14.931  1.00  0.00    -0.287 OA
HETATM    3  C1  UNK     1      19.793  -3.309  15.884  1.00  0.00     0.081 A 
HETATM    4  C2  UNK     1      20.718  -2.905  16.847  1.00  0.00     0.093 A 
HETATM    5  C3  UNK     1      19.325  -1.121  17.549  1.00  0.00     0.093 A 
HETATM    6  C5  UNK     1      18.535  -2.560  15.751  1.00  0.00     0.190 A 
HETATM    7  C6  UNK     1      20.062  -4.407  15.064  1.00  0.00     0.085 A 
HETATM    8  C7  UNK     1      18.357  -1.415  16.668  1.00  0.00     0.094 A 
HETATM    9  C8  UNK     1      21.919  -3.600  16.995  1.00  0.00     0.038 A 
HETATM   10  C10 UNK     1      21.264  -5.100  15.214  1.00  0.00     0.038 A 
HETATM   11  C12 UNK     1      22.190  -4.697  16.176  1.00  0.00     0.006 A 
ENDROOT
BRANCH   5  12
HETATM   12  C4  UNK     1      19.199   0.004  18.496  1.00  0.00     0.031 A 
HETATM   13  C11 UNK     1      19.296  -0.245  19.869  1.00  0.00     0.017 A 
HETATM   14  C14 UNK     1      19.179   0.803  20.783  1.00  0.00     0.001 A 
HETATM   15  C15 UNK     1      18.964   2.104  20.329  1.00  0.00     0.003 A 
HETATM   16  C13 UNK     1      18.867   2.358  18.961  1.00  0.00     0.038 A 
HETATM   17  C9  UNK     1      18.983   1.311  18.047  1.00  0.00     0.081 A 
BRANCH  17  18
HETATM   18  O3  UNK     1      18.884   1.587  16.715  1.00  0.00    -0.355 OA
HETATM   19  C17 UNK     1      19.496   2.790  16.257  1.00  0.00     0.210 C 
ENDBRANCH  17  18
ENDBRANCH   5  12
BRANCH   7  20
HETATM   20  O2  UNK     1      19.192  -4.840  14.109  1.00  0.00    -0.355 OA
HETATM   21  C16 UNK     1      18.715  -6.179  14.227  1.00  0.00     0.210 C 
ENDBRANCH   7  20
TORSDOF 3
ENDMDL
