MODEL 1
REMARK VINA RESULT:      -8.0      0.000      0.000
REMARK  2 active torsions:
REMARK  status: ('A' for Active; 'I' for Inactive)
REMARK    1  A    between atoms: C12_15  and  O3_3 
REMARK    2  A    between atoms: C13_16  and  O3_3 
ROOT
HETATM    1  C13 UNK     1      18.002   5.496  33.465  1.00  0.00     0.268 C 
HETATM    2  C14 UNK     1      19.305   6.111  33.211  1.00  0.00    -0.091 C 
HETATM    3  C15 UNK     1      20.375   6.617  33.005  1.00  0.00     0.014 C 
ENDROOT
BRANCH   1   4
HETATM    4  O3  UNK     1      17.466   4.947  32.263  1.00  0.00    -0.339 OA
BRANCH   4   5
HETATM    5  C12 UNK     1      18.008   3.780  31.819  1.00  0.00     0.072 A 
HETATM    6  C10 UNK     1      18.101   2.685  32.675  1.00  0.00     0.075 A 
HETATM    7  C7  UNK     1      18.660   1.501  32.196  1.00  0.00     0.092 A 
HETATM    8  C6  UNK     1      19.126   1.382  30.885  1.00  0.00     0.005 A 
HETATM    9  O1  UNK     1      18.741   0.411  33.098  1.00  0.00    -0.274 OA
HETATM   10  C2  UNK     1      19.688   0.106  30.490  1.00  0.00    -0.033 A 
HETATM   11  C9  UNK     1      19.029   2.487  30.036  1.00  0.00     0.017 A 
HETATM   12  C1  UNK     1      20.243  -0.252  29.155  1.00  0.00     0.040 C 
HETATM   13  C5  UNK     1      19.765  -0.910  31.352  1.00  0.00     0.025 A 
HETATM   14  C3  UNK     1      20.370  -1.778  29.254  1.00  0.00     0.009 C 
HETATM   15  C4  UNK     1      20.386  -2.119  30.747  1.00  0.00     0.046 C 
HETATM   16  C8  UNK     1      19.289  -0.819  32.734  1.00  0.00     0.295 A 
HETATM   17  O2  UNK     1      19.367  -1.757  33.518  1.00  0.00    -0.259 OA
HETATM   18  C11 UNK     1      18.471   3.682  30.505  1.00  0.00     0.038 A 
ENDBRANCH   4   5
ENDBRANCH   1   4
TORSDOF 2
ENDMDL
MODEL 2
REMARK VINA RESULT:      -7.8      1.754      2.554
REMARK  2 active torsions:
REMARK  status: ('A' for Active; 'I' for Inactive)
REMARK    1  A    between atoms: C12_15  and  O3_3 
REMARK    2  A    between atoms: C13_16  and  O3_3 
ROOT
HETATM    1  C13 UNK     1      18.289   5.651  31.382  1.00  0.00     0.268 C 
HETATM    2  C14 UNK     1      19.412   6.077  32.217  1.00  0.00    -0.091 C 
HETATM    3  C15 UNK     1      20.334   6.428  32.902  1.00  0.00     0.014 C 
ENDROOT
BRANCH   1   4
HETATM    4  O3  UNK     1      17.549   4.617  32.028  1.00  0.00    -0.339 OA
BRANCH   4   5
HETATM    5  C12 UNK     1      18.041   3.352  31.935  1.00  0.00     0.072 A 
HETATM    6  C10 UNK     1      18.507   2.874  30.712  1.00  0.00     0.075 A 
HETATM    7  C7  UNK     1      19.006   1.575  30.642  1.00  0.00     0.092 A 
HETATM    8  C6  UNK     1      19.054   0.741  31.763  1.00  0.00     0.005 A 
HETATM    9  O1  UNK     1      19.466   1.123  29.381  1.00  0.00    -0.274 OA
HETATM   10  C2  UNK     1      19.594  -0.591  31.580  1.00  0.00    -0.033 A 
HETATM   11  C9  UNK     1      18.584   1.232  32.983  1.00  0.00     0.017 A 
HETATM   12  C1  UNK     1      19.744  -1.646  32.621  1.00  0.00     0.040 C 
HETATM   13  C5  UNK     1      20.016  -1.006  30.384  1.00  0.00     0.025 A 
HETATM   14  C3  UNK     1      20.645  -2.670  31.919  1.00  0.00     0.009 C 
HETATM   15  C4  UNK     1      20.518  -2.406  30.415  1.00  0.00     0.046 C 
HETATM   16  C8  UNK     1      19.978  -0.161  29.189  1.00  0.00     0.295 A 
HETATM   17  O2  UNK     1      20.365  -0.552  28.095  1.00  0.00    -0.259 OA
HETATM   18  C11 UNK     1      18.079   2.534  33.066  1.00  0.00     0.038 A 
ENDBRANCH   4   5
ENDBRANCH   1   4
TORSDOF 2
ENDMDL
MODEL 3
REMARK VINA RESULT:      -7.5     23.205     24.838
REMARK  2 active torsions:
REMARK  status: ('A' for Active; 'I' for Inactive)
REMARK    1  A    between atoms: C12_15  and  O3_3 
REMARK    2  A    between atoms: C13_16  and  O3_3 
ROOT
HETATM    1  C13 UNK     1       8.708   6.343   6.841  1.00  0.00     0.268 C 
HETATM    2  C14 UNK     1       8.164   5.747   8.062  1.00  0.00    -0.091 C 
HETATM    3  C15 UNK     1       7.717   5.259   9.063  1.00  0.00     0.014 C 
ENDROOT
BRANCH   1   4
HETATM    4  O3  UNK     1       9.945   5.726   6.491  1.00  0.00    -0.339 OA
BRANCH   4   5
HETATM    5  C12 UNK     1      11.057   6.144   7.155  1.00  0.00     0.072 A 
HETATM    6  C10 UNK     1      12.006   5.216   7.578  1.00  0.00     0.075 A 
HETATM    7  C7  UNK     1      13.136   5.669   8.257  1.00  0.00     0.092 A 
HETATM    8  C6  UNK     1      13.344   7.026   8.521  1.00  0.00     0.005 A 
HETATM    9  O1  UNK     1      14.076   4.695   8.675  1.00  0.00    -0.274 OA
HETATM   10  C2  UNK     1      14.554   7.389   9.231  1.00  0.00    -0.033 A 
HETATM   11  C9  UNK     1      12.385   7.946   8.092  1.00  0.00     0.017 A 
HETATM   12  C1  UNK     1      14.985   8.760   9.620  1.00  0.00     0.040 C 
HETATM   13  C5  UNK     1      15.426   6.459   9.626  1.00  0.00     0.025 A 
HETATM   14  C3  UNK     1      16.445   8.537  10.033  1.00  0.00     0.009 C 
HETATM   15  C4  UNK     1      16.588   7.045  10.349  1.00  0.00     0.046 C 
HETATM   16  C8  UNK     1      15.239   5.030   9.369  1.00  0.00     0.295 A 
HETATM   17  O2  UNK     1      16.045   4.185   9.739  1.00  0.00    -0.259 OA
HETATM   18  C11 UNK     1      11.245   7.504   7.411  1.00  0.00     0.038 A 
ENDBRANCH   4   5
ENDBRANCH   1   4
TORSDOF 2
ENDMDL
MODEL 4
REMARK VINA RESULT:      -7.3      4.115      6.349
REMARK  2 active torsions:
REMARK  status: ('A' for Active; 'I' for Inactive)
REMARK    1  A    between atoms: C12_15  and  O3_3 
REMARK    2  A    between atoms: C13_16  and  O3_3 
ROOT
HETATM    1  C13 UNK     1      20.870  -0.750  29.713  1.00  0.00     0.268 C 
HETATM    2  C14 UNK     1      19.850  -0.609  28.673  1.00  0.00    -0.091 C 
HETATM    3  C15 UNK     1      19.014  -0.492  27.819  1.00  0.00     0.014 C 
ENDROOT
BRANCH   1   4
HETATM    4  O3  UNK     1      20.624  -1.913  30.500  1.00  0.00    -0.339 OA
BRANCH   4   5
HETATM    5  C12 UNK     1      20.114  -1.722  31.747  1.00  0.00     0.072 A 
HETATM    6  C10 UNK     1      20.602  -2.465  32.820  1.00  0.00     0.075 A 
HETATM    7  C7  UNK     1      20.063  -2.251  34.087  1.00  0.00     0.092 A 
HETATM    8  C6  UNK     1      19.052  -1.313  34.312  1.00  0.00     0.005 A 
HETATM    9  O1  UNK     1      20.582  -3.028  35.153  1.00  0.00    -0.274 OA
HETATM   10  C2  UNK     1      18.564  -1.170  35.669  1.00  0.00    -0.033 A 
HETATM   11  C9  UNK     1      18.571  -0.576  33.228  1.00  0.00     0.017 A 
HETATM   12  C1  UNK     1      17.500  -0.242  36.143  1.00  0.00     0.040 C 
HETATM   13  C5  UNK     1      19.057  -1.914  36.660  1.00  0.00     0.025 A 
HETATM   14  C3  UNK     1      17.661  -0.314  37.667  1.00  0.00     0.009 C 
HETATM   15  C4  UNK     1      18.408  -1.617  37.966  1.00  0.00     0.046 C 
HETATM   16  C8  UNK     1      20.115  -2.908  36.462  1.00  0.00     0.295 A 
HETATM   17  O2  UNK     1      20.557  -3.588  37.379  1.00  0.00    -0.259 OA
HETATM   18  C11 UNK     1      19.102  -0.782  31.950  1.00  0.00     0.038 A 
ENDBRANCH   4   5
ENDBRANCH   1   4
TORSDOF 2
ENDMDL
MODEL 5
REMARK VINA RESULT:      -7.3      2.713      4.987
REMARK  2 active torsions:
REMARK  status: ('A' for Active; 'I' for Inactive)
REMARK    1  A    between atoms: C12_15  and  O3_3 
REMARK    2  A    between atoms: C13_16  and  O3_3 
ROOT
HETATM    1  C13 UNK     1      17.588  -1.239  37.041  1.00  0.00     0.268 C 
HETATM    2  C14 UNK     1      17.579   0.100  37.632  1.00  0.00    -0.091 C 
HETATM    3  C15 UNK     1      17.569   1.198  38.118  1.00  0.00     0.014 C 
ENDROOT
BRANCH   1   4
HETATM    4  O3  UNK     1      18.894  -1.568  36.570  1.00  0.00    -0.339 OA
BRANCH   4   5
HETATM    5  C12 UNK     1      19.132  -1.407  35.240  1.00  0.00     0.072 A 
HETATM    6  C10 UNK     1      18.640  -0.285  34.575  1.00  0.00     0.075 A 
HETATM    7  C7  UNK     1      18.897  -0.143  33.213  1.00  0.00     0.092 A 
HETATM    8  C6  UNK     1      19.635  -1.090  32.497  1.00  0.00     0.005 A 
HETATM    9  O1  UNK     1      18.376   1.008  32.571  1.00  0.00    -0.274 OA
HETATM   10  C2  UNK     1      19.845  -0.843  31.085  1.00  0.00    -0.033 A 
HETATM   11  C9  UNK     1      20.122  -2.210  33.175  1.00  0.00     0.017 A 
HETATM   12  C1  UNK     1      20.594  -1.705  30.129  1.00  0.00     0.040 C 
HETATM   13  C5  UNK     1      19.342   0.241  30.492  1.00  0.00     0.025 A 
HETATM   14  C3  UNK     1      20.744  -0.785  28.910  1.00  0.00     0.009 C 
HETATM   15  C4  UNK     1      19.663   0.292  29.040  1.00  0.00     0.046 C 
HETATM   16  C8  UNK     1      18.562   1.252  31.210  1.00  0.00     0.295 A 
HETATM   17  O2  UNK     1      18.102   2.242  30.655  1.00  0.00    -0.259 OA
HETATM   18  C11 UNK     1      19.870  -2.365  34.542  1.00  0.00     0.038 A 
ENDBRANCH   4   5
ENDBRANCH   1   4
TORSDOF 2
ENDMDL
MODEL 6
REMARK VINA RESULT:      -7.2      3.650      5.951
REMARK  2 active torsions:
REMARK  status: ('A' for Active; 'I' for Inactive)
REMARK    1  A    between atoms: C12_15  and  O3_3 
REMARK    2  A    between atoms: C13_16  and  O3_3 
ROOT
HETATM    1  C13 UNK     1      20.560  -0.296  29.357  1.00  0.00     0.268 C 
HETATM    2  C14 UNK     1      19.387   0.486  28.960  1.00  0.00    -0.091 C 
HETATM    3  C15 UNK     1      18.427   1.128  28.634  1.00  0.00     0.014 C 
ENDROOT
BRANCH   1   4
HETATM    4  O3  UNK     1      20.162  -1.562  29.880  1.00  0.00    -0.339 OA
BRANCH   4   5
HETATM    5  C12 UNK     1      19.978  -1.647  31.225  1.00  0.00     0.072 A 
HETATM    6  C10 UNK     1      18.907  -0.987  31.824  1.00  0.00     0.075 A 
HETATM    7  C7  UNK     1      18.739  -1.089  33.204  1.00  0.00     0.092 A 
HETATM    8  C6  UNK     1      19.610  -1.837  34.001  1.00  0.00     0.005 A 
HETATM    9  O1  UNK     1      17.642  -0.400  33.777  1.00  0.00    -0.274 OA
HETATM   10  C2  UNK     1      19.343  -1.878  35.424  1.00  0.00    -0.033 A 
HETATM   11  C9  UNK     1      20.680  -2.494  33.388  1.00  0.00     0.017 A 
HETATM   12  C1  UNK     1      20.128  -2.604  36.461  1.00  0.00     0.040 C 
HETATM   13  C5  UNK     1      18.310  -1.217  35.951  1.00  0.00     0.025 A 
HETATM   14  C3  UNK     1      19.197  -2.542  37.678  1.00  0.00     0.009 C 
HETATM   15  C4  UNK     1      18.227  -1.382  37.427  1.00  0.00     0.046 C 
HETATM   16  C8  UNK     1      17.379  -0.423  35.147  1.00  0.00     0.295 A 
HETATM   17  O2  UNK     1      16.436   0.183  35.642  1.00  0.00    -0.259 OA
HETATM   18  C11 UNK     1      20.861  -2.397  32.004  1.00  0.00     0.038 A 
ENDBRANCH   4   5
ENDBRANCH   1   4
TORSDOF 2
ENDMDL
MODEL 7
REMARK VINA RESULT:      -7.2     23.206     24.788
REMARK  2 active torsions:
REMARK  status: ('A' for Active; 'I' for Inactive)
REMARK    1  A    between atoms: C12_15  and  O3_3 
REMARK    2  A    between atoms: C13_16  and  O3_3 
ROOT
HETATM    1  C13 UNK     1      16.180   6.387  10.198  1.00  0.00     0.268 C 
HETATM    2  C14 UNK     1      16.186   7.823   9.914  1.00  0.00    -0.091 C 
HETATM    3  C15 UNK     1      16.191   9.001   9.682  1.00  0.00     0.014 C 
ENDROOT
BRANCH   1   4
HETATM    4  O3  UNK     1      15.774   5.651   9.046  1.00  0.00    -0.339 OA
BRANCH   4   5
HETATM    5  C12 UNK     1      14.468   5.751   8.676  1.00  0.00     0.072 A 
HETATM    6  C10 UNK     1      13.462   5.355   9.556  1.00  0.00     0.075 A 
HETATM    7  C7  UNK     1      12.133   5.466   9.154  1.00  0.00     0.092 A 
HETATM    8  C6  UNK     1      11.780   5.966   7.897  1.00  0.00     0.005 A 
HETATM    9  O1  UNK     1      11.139   5.049  10.074  1.00  0.00    -0.274 OA
HETATM   10  C2  UNK     1      10.368   6.041   7.581  1.00  0.00    -0.033 A 
HETATM   11  C9  UNK     1      12.797   6.359   7.024  1.00  0.00     0.017 A 
HETATM   12  C1  UNK     1       9.761   6.536   6.315  1.00  0.00     0.040 C 
HETATM   13  C5  UNK     1       9.444   5.637   8.455  1.00  0.00     0.025 A 
HETATM   14  C3  UNK     1       8.281   6.674   6.696  1.00  0.00     0.009 C 
HETATM   15  C4  UNK     1       8.062   5.787   7.926  1.00  0.00     0.046 C 
HETATM   16  C8  UNK     1       9.777   5.106   9.779  1.00  0.00     0.295 A 
HETATM   17  O2  UNK     1       8.920   4.736  10.572  1.00  0.00    -0.259 OA
HETATM   18  C11 UNK     1      14.136   6.250   7.415  1.00  0.00     0.038 A 
ENDBRANCH   4   5
ENDBRANCH   1   4
TORSDOF 2
ENDMDL
MODEL 8
REMARK VINA RESULT:      -7.1     14.158     16.458
REMARK  2 active torsions:
REMARK  status: ('A' for Active; 'I' for Inactive)
REMARK    1  A    between atoms: C12_15  and  O3_3 
REMARK    2  A    between atoms: C13_16  and  O3_3 
ROOT
HETATM    1  C13 UNK     1      35.304  -5.938  36.108  1.00  0.00     0.268 C 
HETATM    2  C14 UNK     1      34.791  -4.842  35.284  1.00  0.00    -0.091 C 
HETATM    3  C15 UNK     1      34.372  -3.944  34.607  1.00  0.00     0.014 C 
ENDROOT
BRANCH   1   4
HETATM    4  O3  UNK     1      34.845  -5.810  37.452  1.00  0.00    -0.339 OA
BRANCH   4   5
HETATM    5  C12 UNK     1      33.566  -6.197  37.710  1.00  0.00     0.072 A 
HETATM    6  C10 UNK     1      32.604  -5.246  38.043  1.00  0.00     0.075 A 
HETATM    7  C7  UNK     1      31.302  -5.668  38.303  1.00  0.00     0.092 A 
HETATM    8  C6  UNK     1      30.934  -7.014  38.237  1.00  0.00     0.005 A 
HETATM    9  O1  UNK     1      30.353  -4.672  38.642  1.00  0.00    -0.274 OA
HETATM   10  C2  UNK     1      29.553  -7.344  38.525  1.00  0.00    -0.033 A 
HETATM   11  C9  UNK     1      31.908  -7.958  37.904  1.00  0.00     0.017 A 
HETATM   12  C1  UNK     1      28.936  -8.699  38.516  1.00  0.00     0.040 C 
HETATM   13  C5  UNK     1      28.672  -6.396  38.851  1.00  0.00     0.025 A 
HETATM   14  C3  UNK     1      27.437  -8.376  38.569  1.00  0.00     0.009 C 
HETATM   15  C4  UNK     1      27.318  -6.951  39.119  1.00  0.00     0.046 C 
HETATM   16  C8  UNK     1      29.022  -4.976  38.932  1.00  0.00     0.295 A 
HETATM   17  O2  UNK     1      28.206  -4.115  39.235  1.00  0.00    -0.259 OA
HETATM   18  C11 UNK     1      33.220  -7.548  37.642  1.00  0.00     0.038 A 
ENDBRANCH   4   5
ENDBRANCH   1   4
TORSDOF 2
ENDMDL
MODEL 9
REMARK VINA RESULT:      -7.0     14.632     17.388
REMARK  2 active torsions:
REMARK  status: ('A' for Active; 'I' for Inactive)
REMARK    1  A    between atoms: C12_15  and  O3_3 
REMARK    2  A    between atoms: C13_16  and  O3_3 
ROOT
HETATM    1  C13 UNK     1      19.989  -3.611  12.754  1.00  0.00     0.268 C 
HETATM    2  C14 UNK     1      20.244  -3.396  11.329  1.00  0.00    -0.091 C 
HETATM    3  C15 UNK     1      20.455  -3.221  10.160  1.00  0.00     0.014 C 
ENDROOT
BRANCH   1   4
HETATM    4  O3  UNK     1      18.781  -2.964  13.148  1.00  0.00    -0.339 OA
BRANCH   4   5
HETATM    5  C12 UNK     1      18.826  -2.199  14.273  1.00  0.00     0.072 A 
HETATM    6  C10 UNK     1      19.053  -0.828  14.175  1.00  0.00     0.075 A 
HETATM    7  C7  UNK     1      19.095  -0.067  15.342  1.00  0.00     0.092 A 
HETATM    8  C6  UNK     1      18.913  -0.638  16.603  1.00  0.00     0.005 A 
HETATM    9  O1  UNK     1      19.333   1.323  15.201  1.00  0.00    -0.274 OA
HETATM   10  C2  UNK     1      18.975   0.245  17.751  1.00  0.00    -0.033 A 
HETATM   11  C9  UNK     1      18.687  -2.014  16.689  1.00  0.00     0.017 A 
HETATM   12  C1  UNK     1      18.811  -0.136  19.181  1.00  0.00     0.040 C 
HETATM   13  C5  UNK     1      19.207   1.550  17.604  1.00  0.00     0.025 A 
HETATM   14  C3  UNK     1      18.654   1.229  19.865  1.00  0.00     0.009 C 
HETATM   15  C4  UNK     1      19.244   2.268  18.907  1.00  0.00     0.046 C 
HETATM   16  C8  UNK     1      19.405   2.183  16.298  1.00  0.00     0.295 A 
HETATM   17  O2  UNK     1      19.621   3.382  16.175  1.00  0.00    -0.259 OA
HETATM   18  C11 UNK     1      18.644  -2.790  15.525  1.00  0.00     0.038 A 
ENDBRANCH   4   5
ENDBRANCH   1   4
TORSDOF 2
ENDMDL
MODEL 10
REMARK VINA RESULT:      -6.9     23.226     25.042
REMARK  2 active torsions:
REMARK  status: ('A' for Active; 'I' for Inactive)
REMARK    1  A    between atoms: C12_15  and  O3_3 
REMARK    2  A    between atoms: C13_16  and  O3_3 
ROOT
HETATM    1  C13 UNK     1       9.547   6.491   6.514  1.00  0.00     0.268 C 
HETATM    2  C14 UNK     1       8.564   6.590   7.594  1.00  0.00    -0.091 C 
HETATM    3  C15 UNK     1       7.757   6.673   8.479  1.00  0.00     0.014 C 
ENDROOT
BRANCH   1   4
HETATM    4  O3  UNK     1      10.505   5.475   6.803  1.00  0.00    -0.339 OA
BRANCH   4   5
HETATM    5  C12 UNK     1      11.650   5.861   7.430  1.00  0.00     0.072 A 
HETATM    6  C10 UNK     1      11.949   7.216   7.561  1.00  0.00     0.075 A 
HETATM    7  C7  UNK     1      13.127   7.586   8.207  1.00  0.00     0.092 A 
HETATM    8  C6  UNK     1      14.012   6.639   8.728  1.00  0.00     0.005 A 
HETATM    9  O1  UNK     1      13.398   8.972   8.317  1.00  0.00    -0.274 OA
HETATM   10  C2  UNK     1      15.208   7.133   9.382  1.00  0.00    -0.033 A 
HETATM   11  C9  UNK     1      13.702   5.285   8.590  1.00  0.00     0.017 A 
HETATM   12  C1  UNK     1      16.286   6.318  10.008  1.00  0.00     0.040 C 
HETATM   13  C5  UNK     1      15.454   8.441   9.471  1.00  0.00     0.025 A 
HETATM   14  C3  UNK     1      17.077   7.373  10.793  1.00  0.00     0.009 C 
HETATM   15  C4  UNK     1      16.738   8.729  10.167  1.00  0.00     0.046 C 
HETATM   16  C8  UNK     1      14.550   9.461   8.935  1.00  0.00     0.295 A 
HETATM   17  O2  UNK     1      14.788  10.659   9.019  1.00  0.00    -0.259 OA
HETATM   18  C11 UNK     1      12.523   4.899   7.942  1.00  0.00     0.038 A 
ENDBRANCH   4   5
ENDBRANCH   1   4
TORSDOF 2
ENDMDL
