MODEL 1
REMARK VINA RESULT:      -7.6      0.000      0.000
REMARK  3 active torsions:
REMARK  status: ('A' for Active; 'I' for Inactive)
REMARK    1  A    between atoms: C8_12  and  O2_2 
REMARK    2  A    between atoms: C9_13  and  O3_3 
REMARK    3  A    between atoms: C3_7  and  C6_10 
ROOT
HETATM    1  O1  UNK     1      18.884   4.944  29.757  1.00  0.00    -0.321 OA
HETATM    2  O4  UNK     1      18.064   4.614  33.740  1.00  0.00    -0.286 OA
HETATM    3  C1  UNK     1      18.510   3.537  31.697  1.00  0.00     0.052 A 
HETATM    4  C2  UNK     1      18.799   3.708  30.345  1.00  0.00     0.092 A 
HETATM    5  C3  UNK     1      18.353   6.052  31.857  1.00  0.00     0.048 A 
HETATM    6  C4  UNK     1      18.284   4.726  32.539  1.00  0.00     0.198 A 
HETATM    7  C5  UNK     1      18.438   2.253  32.243  1.00  0.00     0.058 A 
HETATM    8  C7  UNK     1      19.020   2.597  29.530  1.00  0.00     0.077 A 
HETATM    9  C8  UNK     1      18.658   1.142  31.426  1.00  0.00     0.102 A 
HETATM   10  C9  UNK     1      18.948   1.315  30.072  1.00  0.00     0.104 A 
HETATM   11  C10 UNK     1      18.647   6.042  30.547  1.00  0.00     0.159 A 
ENDROOT
BRANCH   5  12
HETATM   12  C6  UNK     1      18.116   7.257  32.605  1.00  0.00    -0.020 A 
HETATM   13  C11 UNK     1      16.878   7.900  32.529  1.00  0.00     0.012 A 
HETATM   14  C13 UNK     1      16.648   9.069  33.256  1.00  0.00     0.001 A 
HETATM   15  C15 UNK     1      17.656   9.599  34.060  1.00  0.00     0.000 A 
HETATM   16  C14 UNK     1      18.895   8.960  34.138  1.00  0.00     0.001 A 
HETATM   17  C12 UNK     1      19.124   7.792  33.412  1.00  0.00     0.012 A 
ENDBRANCH   5  12
BRANCH   9  18
HETATM   18  O2  UNK     1      18.589  -0.107  31.964  1.00  0.00    -0.353 OA
HETATM   19  C16 UNK     1      18.536  -0.198  33.387  1.00  0.00     0.210 C 
ENDBRANCH   9  18
BRANCH  10  20
HETATM   20  O3  UNK     1      19.164   0.236  29.269  1.00  0.00    -0.353 OA
HETATM   21  C17 UNK     1      20.496  -0.269  29.205  1.00  0.00     0.210 C 
ENDBRANCH  10  20
TORSDOF 3
ENDMDL
MODEL 2
REMARK VINA RESULT:      -7.4      1.700      6.878
REMARK  3 active torsions:
REMARK  status: ('A' for Active; 'I' for Inactive)
REMARK    1  A    between atoms: C8_12  and  O2_2 
REMARK    2  A    between atoms: C9_13  and  O3_3 
REMARK    3  A    between atoms: C3_7  and  C6_10 
ROOT
HETATM    1  O1  UNK     1      18.925   5.658  29.776  1.00  0.00    -0.321 OA
HETATM    2  O4  UNK     1      17.846   2.606  32.259  1.00  0.00    -0.286 OA
HETATM    3  C1  UNK     1      18.006   4.924  31.898  1.00  0.00     0.052 A 
HETATM    4  C2  UNK     1      18.380   5.927  31.005  1.00  0.00     0.092 A 
HETATM    5  C3  UNK     1      18.824   3.262  30.182  1.00  0.00     0.048 A 
HETATM    6  C4  UNK     1      18.198   3.513  31.515  1.00  0.00     0.198 A 
HETATM    7  C5  UNK     1      17.452   5.257  33.137  1.00  0.00     0.058 A 
HETATM    8  C7  UNK     1      18.203   7.269  31.346  1.00  0.00     0.077 A 
HETATM    9  C8  UNK     1      17.277   6.600  33.476  1.00  0.00     0.102 A 
HETATM   10  C9  UNK     1      17.653   7.604  32.582  1.00  0.00     0.104 A 
HETATM   11  C10 UNK     1      19.122   4.341  29.443  1.00  0.00     0.159 A 
ENDROOT
BRANCH   5  12
HETATM   12  C6  UNK     1      19.070   1.912  29.749  1.00  0.00    -0.020 A 
HETATM   13  C11 UNK     1      18.425   1.410  28.617  1.00  0.00     0.012 A 
HETATM   14  C13 UNK     1      18.665   0.101  28.196  1.00  0.00     0.001 A 
HETATM   15  C15 UNK     1      19.550  -0.709  28.908  1.00  0.00     0.000 A 
HETATM   16  C14 UNK     1      20.195  -0.210  30.040  1.00  0.00     0.001 A 
HETATM   17  C12 UNK     1      19.956   1.098  30.461  1.00  0.00     0.012 A 
ENDBRANCH   5  12
BRANCH   9  18
HETATM   18  O2  UNK     1      16.736   6.919  34.685  1.00  0.00    -0.353 OA
HETATM   19  C16 UNK     1      15.369   7.326  34.695  1.00  0.00     0.210 C 
ENDBRANCH   9  18
BRANCH  10  20
HETATM   20  O3  UNK     1      17.484   8.916  32.906  1.00  0.00    -0.353 OA
HETATM   21  C17 UNK     1      18.456   9.501  33.771  1.00  0.00     0.210 C 
ENDBRANCH  10  20
TORSDOF 3
ENDMDL
MODEL 3
REMARK VINA RESULT:      -7.2      1.486      2.875
REMARK  3 active torsions:
REMARK  status: ('A' for Active; 'I' for Inactive)
REMARK    1  A    between atoms: C8_12  and  O2_2 
REMARK    2  A    between atoms: C9_13  and  O3_3 
REMARK    3  A    between atoms: C3_7  and  C6_10 
ROOT
HETATM    1  O1  UNK     1      18.305   2.065  33.528  1.00  0.00    -0.321 OA
HETATM    2  O4  UNK     1      18.701   4.441  30.236  1.00  0.00    -0.286 OA
HETATM    3  C1  UNK     1      18.892   2.299  31.186  1.00  0.00     0.052 A 
HETATM    4  C2  UNK     1      18.727   1.532  32.338  1.00  0.00     0.092 A 
HETATM    5  C3  UNK     1      18.177   4.293  32.560  1.00  0.00     0.048 A 
HETATM    6  C4  UNK     1      18.603   3.744  31.239  1.00  0.00     0.198 A 
HETATM    7  C5  UNK     1      19.322   1.700  29.999  1.00  0.00     0.058 A 
HETATM    8  C7  UNK     1      18.990   0.161  32.310  1.00  0.00     0.077 A 
HETATM    9  C8  UNK     1      19.586   0.330  29.973  1.00  0.00     0.102 A 
HETATM   10  C9  UNK     1      19.421  -0.438  31.127  1.00  0.00     0.104 A 
HETATM   11  C10 UNK     1      18.064   3.416  33.570  1.00  0.00     0.159 A 
ENDROOT
BRANCH   5  12
HETATM   12  C6  UNK     1      17.905   5.699  32.699  1.00  0.00    -0.020 A 
HETATM   13  C11 UNK     1      16.649   6.208  32.357  1.00  0.00     0.012 A 
HETATM   14  C13 UNK     1      16.386   7.571  32.492  1.00  0.00     0.001 A 
HETATM   15  C15 UNK     1      17.377   8.429  32.967  1.00  0.00     0.000 A 
HETATM   16  C14 UNK     1      18.632   7.925  33.309  1.00  0.00     0.001 A 
HETATM   17  C12 UNK     1      18.896   6.562  33.174  1.00  0.00     0.012 A 
ENDBRANCH   5  12
BRANCH   9  18
HETATM   18  O2  UNK     1      20.004  -0.248  28.813  1.00  0.00    -0.353 OA
HETATM   19  C16 UNK     1      19.005  -0.533  27.835  1.00  0.00     0.210 C 
ENDBRANCH   9  18
BRANCH  10  20
HETATM   20  O3  UNK     1      19.677  -1.776  31.109  1.00  0.00    -0.353 OA
HETATM   21  C17 UNK     1      20.710  -2.251  31.970  1.00  0.00     0.210 C 
ENDBRANCH  10  20
TORSDOF 3
ENDMDL
MODEL 4
REMARK VINA RESULT:      -7.2      1.676      7.242
REMARK  3 active torsions:
REMARK  status: ('A' for Active; 'I' for Inactive)
REMARK    1  A    between atoms: C8_12  and  O2_2 
REMARK    2  A    between atoms: C9_13  and  O3_3 
REMARK    3  A    between atoms: C3_7  and  C6_10 
ROOT
HETATM    1  O1  UNK     1      18.273   2.880  33.460  1.00  0.00    -0.321 OA
HETATM    2  O4  UNK     1      18.816   3.906  29.550  1.00  0.00    -0.286 OA
HETATM    3  C1  UNK     1      18.216   4.572  31.724  1.00  0.00     0.052 A 
HETATM    4  C2  UNK     1      18.057   4.169  33.048  1.00  0.00     0.092 A 
HETATM    5  C3  UNK     1      18.825   2.178  31.198  1.00  0.00     0.048 A 
HETATM    6  C4  UNK     1      18.631   3.579  30.716  1.00  0.00     0.198 A 
HETATM    7  C5  UNK     1      17.984   5.902  31.361  1.00  0.00     0.058 A 
HETATM    8  C7  UNK     1      17.668   5.093  34.019  1.00  0.00     0.077 A 
HETATM    9  C8  UNK     1      17.594   6.824  32.333  1.00  0.00     0.102 A 
HETATM   10  C9  UNK     1      17.435   6.420  33.659  1.00  0.00     0.104 A 
HETATM   11  C10 UNK     1      18.636   1.960  32.508  1.00  0.00     0.159 A 
ENDROOT
BRANCH   5  12
HETATM   12  C6  UNK     1      19.204   1.147  30.269  1.00  0.00    -0.020 A 
HETATM   13  C11 UNK     1      18.517   1.004  29.060  1.00  0.00     0.012 A 
HETATM   14  C13 UNK     1      18.885   0.004  28.160  1.00  0.00     0.001 A 
HETATM   15  C15 UNK     1      19.939  -0.857  28.466  1.00  0.00     0.000 A 
HETATM   16  C14 UNK     1      20.626  -0.717  29.672  1.00  0.00     0.001 A 
HETATM   17  C12 UNK     1      20.259   0.282  30.573  1.00  0.00     0.012 A 
ENDBRANCH   5  12
BRANCH   9  18
HETATM   18  O2  UNK     1      17.371   8.119  31.974  1.00  0.00    -0.353 OA
HETATM   19  C16 UNK     1      16.025   8.486  31.676  1.00  0.00     0.210 C 
ENDBRANCH   9  18
BRANCH  10  20
HETATM   20  O3  UNK     1      17.055   7.315  34.613  1.00  0.00    -0.353 OA
HETATM   21  C17 UNK     1      18.088   8.061  35.253  1.00  0.00     0.210 C 
ENDBRANCH  10  20
TORSDOF 3
ENDMDL
MODEL 5
REMARK VINA RESULT:      -7.2      3.468      8.536
REMARK  3 active torsions:
REMARK  status: ('A' for Active; 'I' for Inactive)
REMARK    1  A    between atoms: C8_12  and  O2_2 
REMARK    2  A    between atoms: C9_13  and  O3_3 
REMARK    3  A    between atoms: C3_7  and  C6_10 
ROOT
HETATM    1  O1  UNK     1      18.286   9.144  34.004  1.00  0.00    -0.321 OA
HETATM    2  O4  UNK     1      15.609   7.473  31.419  1.00  0.00    -0.286 OA
HETATM    3  C1  UNK     1      16.086   9.163  32.983  1.00  0.00     0.052 A 
HETATM    4  C2  UNK     1      17.043   9.699  33.842  1.00  0.00     0.092 A 
HETATM    5  C3  UNK     1      17.765   7.357  32.439  1.00  0.00     0.048 A 
HETATM    6  C4  UNK     1      16.413   7.950  32.212  1.00  0.00     0.198 A 
HETATM    7  C5  UNK     1      14.835   9.773  32.857  1.00  0.00     0.058 A 
HETATM    8  C7  UNK     1      16.756  10.849  34.579  1.00  0.00     0.077 A 
HETATM    9  C8  UNK     1      14.549  10.922  33.596  1.00  0.00     0.102 A 
HETATM   10  C9  UNK     1      15.508  11.459  34.456  1.00  0.00     0.104 A 
HETATM   11  C10 UNK     1      18.569   8.001  33.298  1.00  0.00     0.159 A 
ENDROOT
BRANCH   5  12
HETATM   12  C6  UNK     1      18.147   6.157  31.744  1.00  0.00    -0.020 A 
HETATM   13  C11 UNK     1      17.841   4.905  32.284  1.00  0.00     0.012 A 
HETATM   14  C13 UNK     1      18.212   3.741  31.609  1.00  0.00     0.001 A 
HETATM   15  C15 UNK     1      18.890   3.826  30.394  1.00  0.00     0.000 A 
HETATM   16  C14 UNK     1      19.198   5.074  29.852  1.00  0.00     0.001 A 
HETATM   17  C12 UNK     1      18.827   6.238  30.526  1.00  0.00     0.012 A 
ENDBRANCH   5  12
BRANCH   9  18
HETATM   18  O2  UNK     1      13.329  11.513  33.467  1.00  0.00    -0.353 OA
HETATM   19  C16 UNK     1      13.128  12.342  32.324  1.00  0.00     0.210 C 
ENDBRANCH   9  18
BRANCH  10  20
HETATM   20  O3  UNK     1      15.237  12.580  35.180  1.00  0.00    -0.353 OA
HETATM   21  C17 UNK     1      16.334  13.210  35.838  1.00  0.00     0.210 C 
ENDBRANCH  10  20
TORSDOF 3
ENDMDL
MODEL 6
REMARK VINA RESULT:      -7.2      4.705     10.004
REMARK  3 active torsions:
REMARK  status: ('A' for Active; 'I' for Inactive)
REMARK    1  A    between atoms: C8_12  and  O2_2 
REMARK    2  A    between atoms: C9_13  and  O3_3 
REMARK    3  A    between atoms: C3_7  and  C6_10 
ROOT
HETATM    1  O1  UNK     1      18.558  -1.253  36.880  1.00  0.00    -0.321 OA
HETATM    2  O4  UNK     1      20.462  -3.759  34.285  1.00  0.00    -0.286 OA
HETATM    3  C1  UNK     1      19.283  -1.753  34.620  1.00  0.00     0.052 A 
HETATM    4  C2  UNK     1      18.655  -0.928  35.552  1.00  0.00     0.092 A 
HETATM    5  C3  UNK     1      19.716  -3.361  36.518  1.00  0.00     0.048 A 
HETATM    6  C4  UNK     1      19.870  -3.028  35.070  1.00  0.00     0.198 A 
HETATM    7  C5  UNK     1      19.354  -1.369  33.278  1.00  0.00     0.058 A 
HETATM    8  C7  UNK     1      18.096   0.285  35.148  1.00  0.00     0.077 A 
HETATM    9  C8  UNK     1      18.793  -0.156  32.876  1.00  0.00     0.102 A 
HETATM   10  C9  UNK     1      18.164   0.669  33.810  1.00  0.00     0.104 A 
HETATM   11  C10 UNK     1      19.087  -2.454  37.281  1.00  0.00     0.159 A 
ENDROOT
BRANCH   5  12
HETATM   12  C6  UNK     1      20.238  -4.601  37.028  1.00  0.00    -0.020 A 
HETATM   13  C11 UNK     1      21.418  -4.611  37.776  1.00  0.00     0.012 A 
HETATM   14  C13 UNK     1      21.923  -5.814  38.271  1.00  0.00     0.001 A 
HETATM   15  C15 UNK     1      21.251  -7.009  38.018  1.00  0.00     0.000 A 
HETATM   16  C14 UNK     1      20.073  -7.003  37.271  1.00  0.00     0.001 A 
HETATM   17  C12 UNK     1      19.567  -5.801  36.776  1.00  0.00     0.012 A 
ENDBRANCH   5  12
BRANCH   9  18
HETATM   18  O2  UNK     1      18.866   0.213  31.567  1.00  0.00    -0.353 OA
HETATM   19  C16 UNK     1      20.102  -0.026  30.895  1.00  0.00     0.210 C 
ENDBRANCH   9  18
BRANCH  10  20
HETATM   20  O3  UNK     1      17.615   1.854  33.424  1.00  0.00    -0.353 OA
HETATM   21  C17 UNK     1      18.233   3.044  33.909  1.00  0.00     0.210 C 
ENDBRANCH  10  20
TORSDOF 3
ENDMDL
MODEL 7
REMARK VINA RESULT:      -7.1      1.433      2.043
REMARK  3 active torsions:
REMARK  status: ('A' for Active; 'I' for Inactive)
REMARK    1  A    between atoms: C8_12  and  O2_2 
REMARK    2  A    between atoms: C9_13  and  O3_3 
REMARK    3  A    between atoms: C3_7  and  C6_10 
ROOT
HETATM    1  O1  UNK     1      18.974   2.758  30.552  1.00  0.00    -0.321 OA
HETATM    2  O4  UNK     1      17.933   3.639  34.396  1.00  0.00    -0.286 OA
HETATM    3  C1  UNK     1      18.513   2.003  32.810  1.00  0.00     0.052 A 
HETATM    4  C2  UNK     1      18.877   1.760  31.487  1.00  0.00     0.092 A 
HETATM    5  C3  UNK     1      18.305   4.439  32.177  1.00  0.00     0.048 A 
HETATM    6  C4  UNK     1      18.219   3.385  33.232  1.00  0.00     0.198 A 
HETATM    7  C5  UNK     1      18.432   0.947  33.722  1.00  0.00     0.058 A 
HETATM    8  C7  UNK     1      19.163   0.460  31.067  1.00  0.00     0.077 A 
HETATM    9  C8  UNK     1      18.718  -0.353  33.299  1.00  0.00     0.102 A 
HETATM   10  C9  UNK     1      19.082  -0.595  31.974  1.00  0.00     0.104 A 
HETATM   11  C10 UNK     1      18.674   4.036  30.951  1.00  0.00     0.159 A 
ENDROOT
BRANCH   5  12
HETATM   12  C6  UNK     1      18.005   5.807  32.505  1.00  0.00    -0.020 A 
HETATM   13  C11 UNK     1      16.712   6.304  32.326  1.00  0.00     0.012 A 
HETATM   14  C13 UNK     1      16.421   7.631  32.645  1.00  0.00     0.001 A 
HETATM   15  C15 UNK     1      17.423   8.465  33.141  1.00  0.00     0.000 A 
HETATM   16  C14 UNK     1      18.716   7.971  33.320  1.00  0.00     0.001 A 
HETATM   17  C12 UNK     1      19.006   6.645  33.002  1.00  0.00     0.012 A 
ENDBRANCH   5  12
BRANCH   9  18
HETATM   18  O2  UNK     1      18.639  -1.378  34.193  1.00  0.00    -0.353 OA
HETATM   19  C16 UNK     1      19.090  -1.116  35.521  1.00  0.00     0.210 C 
ENDBRANCH   9  18
BRANCH  10  20
HETATM   20  O3  UNK     1      19.362  -1.861  31.555  1.00  0.00    -0.353 OA
HETATM   21  C17 UNK     1      20.246  -1.996  30.445  1.00  0.00     0.210 C 
ENDBRANCH  10  20
TORSDOF 3
ENDMDL
MODEL 8
REMARK VINA RESULT:      -7.1      1.120      2.779
REMARK  3 active torsions:
REMARK  status: ('A' for Active; 'I' for Inactive)
REMARK    1  A    between atoms: C8_12  and  O2_2 
REMARK    2  A    between atoms: C9_13  and  O3_3 
REMARK    3  A    between atoms: C3_7  and  C6_10 
ROOT
HETATM    1  O1  UNK     1      18.269   3.616  34.133  1.00  0.00    -0.321 OA
HETATM    2  O4  UNK     1      18.631   6.119  30.933  1.00  0.00    -0.286 OA
HETATM    3  C1  UNK     1      18.589   3.914  31.748  1.00  0.00     0.052 A 
HETATM    4  C2  UNK     1      18.447   3.106  32.874  1.00  0.00     0.092 A 
HETATM    5  C3  UNK     1      18.384   5.898  33.297  1.00  0.00     0.048 A 
HETATM    6  C4  UNK     1      18.547   5.379  31.906  1.00  0.00     0.198 A 
HETATM    7  C5  UNK     1      18.764   3.337  30.487  1.00  0.00     0.058 A 
HETATM    8  C7  UNK     1      18.479   1.716  32.747  1.00  0.00     0.077 A 
HETATM    9  C8  UNK     1      18.798   1.948  30.362  1.00  0.00     0.102 A 
HETATM   10  C9  UNK     1      18.656   1.139  31.490  1.00  0.00     0.104 A 
HETATM   11  C10 UNK     1      18.257   4.982  34.270  1.00  0.00     0.159 A 
ENDROOT
BRANCH   5  12
HETATM   12  C6  UNK     1      18.363   7.316  33.536  1.00  0.00    -0.020 A 
HETATM   13  C11 UNK     1      19.512   7.968  33.990  1.00  0.00     0.012 A 
HETATM   14  C13 UNK     1      19.492   9.345  34.221  1.00  0.00     0.001 A 
HETATM   15  C15 UNK     1      18.322  10.071  33.999  1.00  0.00     0.000 A 
HETATM   16  C14 UNK     1      17.173   9.422  33.547  1.00  0.00     0.001 A 
HETATM   17  C12 UNK     1      17.193   8.047  33.316  1.00  0.00     0.012 A 
ENDBRANCH   5  12
BRANCH   9  18
HETATM   18  O2  UNK     1      18.968   1.392  29.130  1.00  0.00    -0.353 OA
HETATM   19  C16 UNK     1      17.836   1.379  28.263  1.00  0.00     0.210 C 
ENDBRANCH   9  18
BRANCH  10  20
HETATM   20  O3  UNK     1      18.687  -0.218  31.375  1.00  0.00    -0.353 OA
HETATM   21  C17 UNK     1      18.996  -0.962  32.552  1.00  0.00     0.210 C 
ENDBRANCH  10  20
TORSDOF 3
ENDMDL
MODEL 9
REMARK VINA RESULT:      -7.0      2.670      4.879
REMARK  3 active torsions:
REMARK  status: ('A' for Active; 'I' for Inactive)
REMARK    1  A    between atoms: C8_12  and  O2_2 
REMARK    2  A    between atoms: C9_13  and  O3_3 
REMARK    3  A    between atoms: C3_7  and  C6_10 
ROOT
HETATM    1  O1  UNK     1      18.448   0.557  32.411  1.00  0.00    -0.321 OA
HETATM    2  O4  UNK     1      18.303   3.991  34.608  1.00  0.00    -0.286 OA
HETATM    3  C1  UNK     1      18.294   1.640  34.576  1.00  0.00     0.052 A 
HETATM    4  C2  UNK     1      18.359   0.500  33.778  1.00  0.00     0.092 A 
HETATM    5  C3  UNK     1      18.386   2.989  32.443  1.00  0.00     0.048 A 
HETATM    6  C4  UNK     1      18.321   2.968  33.935  1.00  0.00     0.198 A 
HETATM    7  C5  UNK     1      18.207   1.521  35.966  1.00  0.00     0.058 A 
HETATM    8  C7  UNK     1      18.339  -0.767  34.364  1.00  0.00     0.077 A 
HETATM    9  C8  UNK     1      18.185   0.254  36.550  1.00  0.00     0.102 A 
HETATM   10  C9  UNK     1      18.250  -0.888  35.750  1.00  0.00     0.104 A 
HETATM   11  C10 UNK     1      18.448   1.799  31.826  1.00  0.00     0.159 A 
ENDROOT
BRANCH   5  12
HETATM   12  C6  UNK     1      18.388   4.245  31.743  1.00  0.00    -0.020 A 
HETATM   13  C11 UNK     1      19.166   4.408  30.594  1.00  0.00     0.012 A 
HETATM   14  C13 UNK     1      19.166   5.627  29.914  1.00  0.00     0.001 A 
HETATM   15  C15 UNK     1      18.391   6.686  30.383  1.00  0.00     0.000 A 
HETATM   16  C14 UNK     1      17.613   6.528  31.531  1.00  0.00     0.001 A 
HETATM   17  C12 UNK     1      17.612   5.310  32.210  1.00  0.00     0.012 A 
ENDBRANCH   5  12
BRANCH   9  18
HETATM   18  O2  UNK     1      18.101   0.144  37.905  1.00  0.00    -0.353 OA
HETATM   19  C16 UNK     1      17.724   1.315  38.628  1.00  0.00     0.210 C 
ENDBRANCH   9  18
BRANCH  10  20
HETATM   20  O3  UNK     1      18.230  -2.128  36.314  1.00  0.00    -0.353 OA
HETATM   21  C17 UNK     1      19.479  -2.805  36.438  1.00  0.00     0.210 C 
ENDBRANCH  10  20
TORSDOF 3
ENDMDL
MODEL 10
REMARK VINA RESULT:      -6.9      3.762      8.647
REMARK  3 active torsions:
REMARK  status: ('A' for Active; 'I' for Inactive)
REMARK    1  A    between atoms: C8_12  and  O2_2 
REMARK    2  A    between atoms: C9_13  and  O3_3 
REMARK    3  A    between atoms: C3_7  and  C6_10 
ROOT
HETATM    1  O1  UNK     1      14.407   8.187  32.679  1.00  0.00    -0.321 OA
HETATM    2  O4  UNK     1      18.411   8.534  33.382  1.00  0.00    -0.286 OA
HETATM    3  C1  UNK     1      16.247   9.399  33.695  1.00  0.00     0.052 A 
HETATM    4  C2  UNK     1      14.889   9.225  33.435  1.00  0.00     0.092 A 
HETATM    5  C3  UNK     1      16.654   7.335  32.298  1.00  0.00     0.048 A 
HETATM    6  C4  UNK     1      17.214   8.433  33.141  1.00  0.00     0.198 A 
HETATM    7  C5  UNK     1      16.681  10.475  34.474  1.00  0.00     0.058 A 
HETATM    8  C7  UNK     1      13.956  10.125  33.952  1.00  0.00     0.077 A 
HETATM    9  C8  UNK     1      15.747  11.375  34.990  1.00  0.00     0.102 A 
HETATM   10  C9  UNK     1      14.387  11.200  34.728  1.00  0.00     0.104 A 
HETATM   11  C10 UNK     1      15.320   7.310  32.150  1.00  0.00     0.159 A 
ENDROOT
BRANCH   5  12
HETATM   12  C6  UNK     1      17.536   6.370  31.699  1.00  0.00    -0.020 A 
HETATM   13  C11 UNK     1      17.647   5.088  32.244  1.00  0.00     0.012 A 
HETATM   14  C13 UNK     1      18.503   4.151  31.662  1.00  0.00     0.001 A 
HETATM   15  C15 UNK     1      19.250   4.494  30.536  1.00  0.00     0.000 A 
HETATM   16  C14 UNK     1      19.142   5.774  29.990  1.00  0.00     0.001 A 
HETATM   17  C12 UNK     1      18.287   6.710  30.571  1.00  0.00     0.012 A 
ENDBRANCH   5  12
BRANCH   9  18
HETATM   18  O2  UNK     1      16.175  12.421  35.749  1.00  0.00    -0.353 OA
HETATM   19  C16 UNK     1      17.400  13.043  35.363  1.00  0.00     0.210 C 
ENDBRANCH   9  18
BRANCH  10  20
HETATM   20  O3  UNK     1      13.470  12.075  35.228  1.00  0.00    -0.353 OA
HETATM   21  C17 UNK     1      12.327  12.349  34.421  1.00  0.00     0.210 C 
ENDBRANCH  10  20
TORSDOF 3
ENDMDL
