MODEL 1
REMARK VINA RESULT:      -8.5      0.000      0.000
REMARK  3 active torsions:
REMARK  status: ('A' for Active; 'I' for Inactive)
REMARK    1  A    between atoms: C5_9  and  O2_2 
REMARK    2  A    between atoms: C11_15  and  O3_3 
REMARK    3  A    between atoms: C1_5  and  C3_7 
ROOT
HETATM    1  O1  UNK     1      13.151   7.558   8.432  1.00  0.00    -0.306 OA
HETATM    2  O4  UNK     1      15.158   4.247   9.702  1.00  0.00    -0.284 OA
HETATM    3  C1  UNK     1      12.612   6.289   8.294  1.00  0.00     0.123 A 
HETATM    4  C2  UNK     1      15.115   6.595   9.483  1.00  0.00     0.051 A 
HETATM    5  C4  UNK     1      14.380   7.686   9.025  1.00  0.00     0.090 A 
HETATM    6  C5  UNK     1      13.222   5.155   8.685  1.00  0.00     0.152 A 
HETATM    7  C6  UNK     1      14.556   5.244   9.325  1.00  0.00     0.220 A 
HETATM    8  C8  UNK     1      16.364   6.786  10.080  1.00  0.00     0.018 A 
HETATM    9  C10 UNK     1      14.890   8.978   9.161  1.00  0.00     0.038 A 
HETATM   10  C12 UNK     1      16.872   8.079  10.215  1.00  0.00     0.001 A 
HETATM   11  C13 UNK     1      16.136   9.173   9.756  1.00  0.00     0.003 A 
ENDROOT
BRANCH   3  12
HETATM   12  C3  UNK     1      11.290   6.292   7.644  1.00  0.00     0.003 A 
HETATM   13  C7  UNK     1      10.131   6.215   8.417  1.00  0.00     0.051 A 
HETATM   14  C11 UNK     1       8.880   6.219   7.801  1.00  0.00     0.069 A 
HETATM   15  C15 UNK     1       8.786   6.300   6.412  1.00  0.00     0.037 A 
HETATM   16  C14 UNK     1       9.944   6.377   5.638  1.00  0.00     0.004 A 
HETATM   17  C9  UNK     1      11.196   6.373   6.254  1.00  0.00     0.014 A 
BRANCH  14  18
HETATM   18  O3  UNK     1       7.750   6.142   8.555  1.00  0.00    -0.356 OA
HETATM   19  C16 UNK     1       7.495   4.905   9.220  1.00  0.00     0.210 C 
ENDBRANCH  14  18
ENDBRANCH   3  12
BRANCH   6  20
HETATM   20  O2  UNK     1      12.672   3.904   8.503  1.00  0.00    -0.355 OA
HETATM   21  H9  UNK     1      12.050   3.922   7.758  1.00  0.00     0.218 HD
ENDBRANCH   6  20
TORSDOF 3
ENDMDL
MODEL 2
REMARK VINA RESULT:      -8.5     24.682     26.884
REMARK  3 active torsions:
REMARK  status: ('A' for Active; 'I' for Inactive)
REMARK    1  A    between atoms: C5_9  and  O2_2 
REMARK    2  A    between atoms: C11_15  and  O3_3 
REMARK    3  A    between atoms: C1_5  and  C3_7 
ROOT
HETATM    1  O1  UNK     1      18.670  -0.622  33.636  1.00  0.00    -0.306 OA
HETATM    2  O4  UNK     1      20.692  -3.479  35.722  1.00  0.00    -0.284 OA
HETATM    3  C1  UNK     1      19.602  -1.443  33.021  1.00  0.00     0.123 A 
HETATM    4  C2  UNK     1      19.079  -1.759  35.741  1.00  0.00     0.051 A 
HETATM    5  C4  UNK     1      18.424  -0.799  34.973  1.00  0.00     0.090 A 
HETATM    6  C5  UNK     1      20.309  -2.401  33.650  1.00  0.00     0.152 A 
HETATM    7  C6  UNK     1      20.080  -2.623  35.097  1.00  0.00     0.220 A 
HETATM    8  C8  UNK     1      18.786  -1.894  37.101  1.00  0.00     0.018 A 
HETATM    9  C10 UNK     1      17.471   0.034  35.560  1.00  0.00     0.038 A 
HETATM   10  C12 UNK     1      17.834  -1.060  37.686  1.00  0.00     0.001 A 
HETATM   11  C13 UNK     1      17.177  -0.097  36.917  1.00  0.00     0.003 A 
ENDROOT
BRANCH   3  12
HETATM   12  C3  UNK     1      19.770  -1.149  31.587  1.00  0.00     0.003 A 
HETATM   13  C7  UNK     1      19.445   0.113  31.090  1.00  0.00     0.051 A 
HETATM   14  C11 UNK     1      19.605   0.391  29.732  1.00  0.00     0.069 A 
HETATM   15  C15 UNK     1      20.088  -0.594  28.871  1.00  0.00     0.037 A 
HETATM   16  C14 UNK     1      20.413  -1.856  29.367  1.00  0.00     0.004 A 
HETATM   17  C9  UNK     1      20.254  -2.134  30.725  1.00  0.00     0.014 A 
BRANCH  14  18
HETATM   18  O3  UNK     1      19.287   1.622  29.248  1.00  0.00    -0.356 OA
HETATM   19  C16 UNK     1      17.927   1.842  28.875  1.00  0.00     0.210 C 
ENDBRANCH  14  18
ENDBRANCH   3  12
BRANCH   6  20
HETATM   20  O2  UNK     1      21.253  -3.178  33.015  1.00  0.00    -0.355 OA
HETATM   21  H9  UNK     1      21.843  -2.616  32.489  1.00  0.00     0.218 HD
ENDBRANCH   6  20
TORSDOF 3
ENDMDL
MODEL 3
REMARK VINA RESULT:      -8.4     24.889     27.044
REMARK  3 active torsions:
REMARK  status: ('A' for Active; 'I' for Inactive)
REMARK    1  A    between atoms: C5_9  and  O2_2 
REMARK    2  A    between atoms: C11_15  and  O3_3 
REMARK    3  A    between atoms: C1_5  and  C3_7 
ROOT
HETATM    1  O1  UNK     1      18.592   0.152  32.390  1.00  0.00    -0.306 OA
HETATM    2  O4  UNK     1      20.994  -3.137  32.520  1.00  0.00    -0.284 OA
HETATM    3  C1  UNK     1      18.702  -0.618  33.537  1.00  0.00     0.123 A 
HETATM    4  C2  UNK     1      20.167  -1.316  31.270  1.00  0.00     0.051 A 
HETATM    5  C4  UNK     1      19.327  -0.205  31.289  1.00  0.00     0.090 A 
HETATM    6  C5  UNK     1      19.470  -1.718  33.647  1.00  0.00     0.152 A 
HETATM    7  C6  UNK     1      20.276  -2.146  32.479  1.00  0.00     0.220 A 
HETATM    8  C8  UNK     1      20.892  -1.632  30.118  1.00  0.00     0.018 A 
HETATM    9  C10 UNK     1      19.204   0.597  30.154  1.00  0.00     0.038 A 
HETATM   10  C12 UNK     1      20.768  -0.829  28.985  1.00  0.00     0.001 A 
HETATM   11  C13 UNK     1      19.926   0.284  29.002  1.00  0.00     0.003 A 
ENDROOT
BRANCH   3  12
HETATM   12  C3  UNK     1      17.864  -0.125  34.643  1.00  0.00     0.003 A 
HETATM   13  C7  UNK     1      18.437   0.614  35.678  1.00  0.00     0.051 A 
HETATM   14  C11 UNK     1      17.643   1.081  36.726  1.00  0.00     0.069 A 
HETATM   15  C15 UNK     1      16.275   0.809  36.739  1.00  0.00     0.037 A 
HETATM   16  C14 UNK     1      15.701   0.071  35.704  1.00  0.00     0.004 A 
HETATM   17  C9  UNK     1      16.495  -0.396  34.656  1.00  0.00     0.014 A 
BRANCH  14  18
HETATM   18  O3  UNK     1      18.203   1.800  37.736  1.00  0.00    -0.356 OA
HETATM   19  C16 UNK     1      17.796   1.479  39.066  1.00  0.00     0.210 C 
ENDBRANCH  14  18
ENDBRANCH   3  12
BRANCH   6  20
HETATM   20  O2  UNK     1      19.531  -2.481  34.793  1.00  0.00    -0.355 OA
HETATM   21  H9  UNK     1      20.408  -2.394  35.200  1.00  0.00     0.218 HD
ENDBRANCH   6  20
TORSDOF 3
ENDMDL
MODEL 4
REMARK VINA RESULT:      -8.2     24.293     26.524
REMARK  3 active torsions:
REMARK  status: ('A' for Active; 'I' for Inactive)
REMARK    1  A    between atoms: C5_9  and  O2_2 
REMARK    2  A    between atoms: C11_15  and  O3_3 
REMARK    3  A    between atoms: C1_5  and  C3_7 
ROOT
HETATM    1  O1  UNK     1      18.791  -0.377  32.724  1.00  0.00    -0.306 OA
HETATM    2  O4  UNK     1      19.002   2.828  30.217  1.00  0.00    -0.284 OA
HETATM    3  C1  UNK     1      18.241   0.848  33.068  1.00  0.00     0.123 A 
HETATM    4  C2  UNK     1      19.505   0.556  30.600  1.00  0.00     0.051 A 
HETATM    5  C4  UNK     1      19.402  -0.500  31.503  1.00  0.00     0.090 A 
HETATM    6  C5  UNK     1      18.280   1.947  32.292  1.00  0.00     0.152 A 
HETATM    7  C6  UNK     1      18.937   1.863  30.966  1.00  0.00     0.220 A 
HETATM    8  C8  UNK     1      20.139   0.373  29.369  1.00  0.00     0.018 A 
HETATM    9  C10 UNK     1      19.935  -1.748  31.180  1.00  0.00     0.038 A 
HETATM   10  C12 UNK     1      20.671  -0.876  29.048  1.00  0.00     0.001 A 
HETATM   11  C13 UNK     1      20.569  -1.935  29.952  1.00  0.00     0.003 A 
ENDROOT
BRANCH   3  12
HETATM   12  C3  UNK     1      17.615   0.843  34.402  1.00  0.00     0.003 A 
HETATM   13  C7  UNK     1      18.310   1.349  35.501  1.00  0.00     0.051 A 
HETATM   14  C11 UNK     1      17.717   1.344  36.764  1.00  0.00     0.069 A 
HETATM   15  C15 UNK     1      16.430   0.833  36.928  1.00  0.00     0.037 A 
HETATM   16  C14 UNK     1      15.735   0.327  35.830  1.00  0.00     0.004 A 
HETATM   17  C9  UNK     1      16.328   0.332  34.567  1.00  0.00     0.014 A 
BRANCH  14  18
HETATM   18  O3  UNK     1      18.395   1.837  37.835  1.00  0.00    -0.356 OA
HETATM   19  C16 UNK     1      17.851   1.570  39.128  1.00  0.00     0.210 C 
ENDBRANCH  14  18
ENDBRANCH   3  12
BRANCH   6  20
HETATM   20  O2  UNK     1      17.751   3.159  32.679  1.00  0.00    -0.355 OA
HETATM   21  H9  UNK     1      18.039   3.371  33.582  1.00  0.00     0.218 HD
ENDBRANCH   6  20
TORSDOF 3
ENDMDL
MODEL 5
REMARK VINA RESULT:      -8.2      1.054      1.128
REMARK  3 active torsions:
REMARK  status: ('A' for Active; 'I' for Inactive)
REMARK    1  A    between atoms: C5_9  and  O2_2 
REMARK    2  A    between atoms: C11_15  and  O3_3 
REMARK    3  A    between atoms: C1_5  and  C3_7 
ROOT
HETATM    1  O1  UNK     1      13.045   8.185   8.158  1.00  0.00    -0.306 OA
HETATM    2  O4  UNK     1      14.844   5.522  10.662  1.00  0.00    -0.284 OA
HETATM    3  C1  UNK     1      12.466   6.959   8.446  1.00  0.00     0.123 A 
HETATM    4  C2  UNK     1      14.905   7.635   9.616  1.00  0.00     0.051 A 
HETATM    5  C4  UNK     1      14.241   8.500   8.749  1.00  0.00     0.090 A 
HETATM    6  C5  UNK     1      13.008   6.032   9.257  1.00  0.00     0.152 A 
HETATM    7  C6  UNK     1      14.304   6.325   9.914  1.00  0.00     0.220 A 
HETATM    8  C8  UNK     1      16.122   8.009  10.190  1.00  0.00     0.018 A 
HETATM    9  C10 UNK     1      14.791   9.746   8.449  1.00  0.00     0.038 A 
HETATM   10  C12 UNK     1      16.671   9.256   9.889  1.00  0.00     0.001 A 
HETATM   11  C13 UNK     1      16.007  10.123   9.020  1.00  0.00     0.003 A 
ENDROOT
BRANCH   3  12
HETATM   12  C3  UNK     1      11.186   6.749   7.747  1.00  0.00     0.003 A 
HETATM   13  C7  UNK     1       9.982   6.965   8.417  1.00  0.00     0.051 A 
HETATM   14  C11 UNK     1       8.770   6.766   7.755  1.00  0.00     0.069 A 
HETATM   15  C15 UNK     1       8.762   6.350   6.424  1.00  0.00     0.037 A 
HETATM   16  C14 UNK     1       9.966   6.133   5.754  1.00  0.00     0.004 A 
HETATM   17  C9  UNK     1      11.178   6.332   6.416  1.00  0.00     0.014 A 
BRANCH  14  18
HETATM   18  O3  UNK     1       7.595   6.977   8.408  1.00  0.00    -0.356 OA
HETATM   19  C16 UNK     1       7.664   7.634   9.673  1.00  0.00     0.210 C 
ENDBRANCH  14  18
ENDBRANCH   3  12
BRANCH   6  20
HETATM   20  O2  UNK     1      12.421   4.808   9.497  1.00  0.00    -0.355 OA
HETATM   21  H9  UNK     1      12.153   4.747  10.428  1.00  0.00     0.218 HD
ENDBRANCH   6  20
TORSDOF 3
ENDMDL
MODEL 6
REMARK VINA RESULT:      -8.0     21.912     23.930
REMARK  3 active torsions:
REMARK  status: ('A' for Active; 'I' for Inactive)
REMARK    1  A    between atoms: C5_9  and  O2_2 
REMARK    2  A    between atoms: C11_15  and  O3_3 
REMARK    3  A    between atoms: C1_5  and  C3_7 
ROOT
HETATM    1  O1  UNK     1      19.623   1.430  31.206  1.00  0.00    -0.306 OA
HETATM    2  O4  UNK     1      18.696  -0.023  27.514  1.00  0.00    -0.284 OA
HETATM    3  C1  UNK     1      19.003   2.222  30.252  1.00  0.00     0.123 A 
HETATM    4  C2  UNK     1      19.616  -0.430  29.647  1.00  0.00     0.051 A 
HETATM    5  C4  UNK     1      19.909   0.127  30.889  1.00  0.00     0.090 A 
HETATM    6  C5  UNK     1      18.675   1.809  29.014  1.00  0.00     0.152 A 
HETATM    7  C6  UNK     1      18.972   0.409  28.625  1.00  0.00     0.220 A 
HETATM    8  C8  UNK     1      19.930  -1.765  29.380  1.00  0.00     0.018 A 
HETATM    9  C10 UNK     1      20.521  -0.648  31.875  1.00  0.00     0.038 A 
HETATM   10  C12 UNK     1      20.542  -2.538  30.367  1.00  0.00     0.001 A 
HETATM   11  C13 UNK     1      20.838  -1.980  31.612  1.00  0.00     0.003 A 
ENDROOT
BRANCH   3  12
HETATM   12  C3  UNK     1      18.752   3.596  30.720  1.00  0.00     0.003 A 
HETATM   13  C7  UNK     1      18.181   3.813  31.974  1.00  0.00     0.051 A 
HETATM   14  C11 UNK     1      17.943   5.115  32.417  1.00  0.00     0.069 A 
HETATM   15  C15 UNK     1      18.276   6.199  31.606  1.00  0.00     0.037 A 
HETATM   16  C14 UNK     1      18.847   5.983  30.352  1.00  0.00     0.004 A 
HETATM   17  C9  UNK     1      19.085   4.681  29.909  1.00  0.00     0.014 A 
BRANCH  14  18
HETATM   18  O3  UNK     1      17.386   5.326  33.640  1.00  0.00    -0.356 OA
HETATM   19  C16 UNK     1      17.202   6.682  34.045  1.00  0.00     0.210 C 
ENDBRANCH  14  18
ENDBRANCH   3  12
BRANCH   6  20
HETATM   20  O2  UNK     1      18.089   2.632  28.077  1.00  0.00    -0.355 OA
HETATM   21  H9  UNK     1      18.370   2.370  27.186  1.00  0.00     0.218 HD
ENDBRANCH   6  20
TORSDOF 3
ENDMDL
MODEL 7
REMARK VINA RESULT:      -8.0     24.675     26.980
REMARK  3 active torsions:
REMARK  status: ('A' for Active; 'I' for Inactive)
REMARK    1  A    between atoms: C5_9  and  O2_2 
REMARK    2  A    between atoms: C11_15  and  O3_3 
REMARK    3  A    between atoms: C1_5  and  C3_7 
ROOT
HETATM    1  O1  UNK     1      19.090  -0.907  32.835  1.00  0.00    -0.306 OA
HETATM    2  O4  UNK     1      18.825   2.611  30.796  1.00  0.00    -0.284 OA
HETATM    3  C1  UNK     1      18.529   0.222  33.411  1.00  0.00     0.123 A 
HETATM    4  C2  UNK     1      19.481   0.346  30.794  1.00  0.00     0.051 A 
HETATM    5  C4  UNK     1      19.546  -0.826  31.545  1.00  0.00     0.090 A 
HETATM    6  C5  UNK     1      18.416   1.415  32.798  1.00  0.00     0.152 A 
HETATM    7  C6  UNK     1      18.902   1.552  31.405  1.00  0.00     0.220 A 
HETATM    8  C8  UNK     1      19.962   0.370  29.482  1.00  0.00     0.018 A 
HETATM    9  C10 UNK     1      20.093  -1.983  30.989  1.00  0.00     0.038 A 
HETATM   10  C12 UNK     1      20.509  -0.788  28.928  1.00  0.00     0.001 A 
HETATM   11  C13 UNK     1      20.574  -1.962  29.680  1.00  0.00     0.003 A 
ENDROOT
BRANCH   3  12
HETATM   12  C3  UNK     1      18.080  -0.001  34.796  1.00  0.00     0.003 A 
HETATM   13  C7  UNK     1      18.809  -0.839  35.641  1.00  0.00     0.051 A 
HETATM   14  C11 UNK     1      18.383  -1.050  36.952  1.00  0.00     0.069 A 
HETATM   15  C15 UNK     1      17.228  -0.424  37.420  1.00  0.00     0.037 A 
HETATM   16  C14 UNK     1      16.498   0.413  36.576  1.00  0.00     0.004 A 
HETATM   17  C9  UNK     1      16.924   0.625  35.264  1.00  0.00     0.014 A 
BRANCH  14  18
HETATM   18  O3  UNK     1      19.094  -1.868  37.775  1.00  0.00    -0.356 OA
HETATM   19  C16 UNK     1      19.862  -2.902  37.159  1.00  0.00     0.210 C 
ENDBRANCH  14  18
ENDBRANCH   3  12
BRANCH   6  20
HETATM   20  O2  UNK     1      17.883   2.528  33.412  1.00  0.00    -0.355 OA
HETATM   21  H9  UNK     1      17.043   2.768  32.988  1.00  0.00     0.218 HD
ENDBRANCH   6  20
TORSDOF 3
ENDMDL
MODEL 8
REMARK VINA RESULT:      -7.8     22.888     24.593
REMARK  3 active torsions:
REMARK  status: ('A' for Active; 'I' for Inactive)
REMARK    1  A    between atoms: C5_9  and  O2_2 
REMARK    2  A    between atoms: C11_15  and  O3_3 
REMARK    3  A    between atoms: C1_5  and  C3_7 
ROOT
HETATM    1  O1  UNK     1      19.306   1.958  30.372  1.00  0.00    -0.306 OA
HETATM    2  O4  UNK     1      18.537  -0.217  33.732  1.00  0.00    -0.284 OA
HETATM    3  C1  UNK     1      18.767   2.545  31.506  1.00  0.00     0.123 A 
HETATM    4  C2  UNK     1      19.359  -0.180  31.522  1.00  0.00     0.051 A 
HETATM    5  C4  UNK     1      19.596   0.618  30.404  1.00  0.00     0.090 A 
HETATM    6  C5  UNK     1      18.483   1.886  32.645  1.00  0.00     0.152 A 
HETATM    7  C6  UNK     1      18.773   0.435  32.723  1.00  0.00     0.220 A 
HETATM    8  C8  UNK     1      19.674  -1.541  31.496  1.00  0.00     0.018 A 
HETATM    9  C10 UNK     1      20.149   0.059  29.252  1.00  0.00     0.038 A 
HETATM   10  C12 UNK     1      20.227  -2.098  30.343  1.00  0.00     0.001 A 
HETATM   11  C13 UNK     1      20.464  -1.300  29.223  1.00  0.00     0.003 A 
ENDROOT
BRANCH   3  12
HETATM   12  C3  UNK     1      18.506   3.985  31.339  1.00  0.00     0.003 A 
HETATM   13  C7  UNK     1      17.669   4.651  32.234  1.00  0.00     0.051 A 
HETATM   14  C11 UNK     1      17.422   6.015  32.075  1.00  0.00     0.069 A 
HETATM   15  C15 UNK     1      18.012   6.713  31.022  1.00  0.00     0.037 A 
HETATM   16  C14 UNK     1      18.850   6.048  30.127  1.00  0.00     0.004 A 
HETATM   17  C9  UNK     1      19.097   4.684  30.286  1.00  0.00     0.014 A 
BRANCH  14  18
HETATM   18  O3  UNK     1      16.604   6.664  32.948  1.00  0.00    -0.356 OA
HETATM   19  C16 UNK     1      17.071   6.815  34.288  1.00  0.00     0.210 C 
ENDBRANCH  14  18
ENDBRANCH   3  12
BRANCH   6  20
HETATM   20  O2  UNK     1      17.917   2.495  33.745  1.00  0.00    -0.355 OA
HETATM   21  H9  UNK     1      18.519   2.431  34.503  1.00  0.00     0.218 HD
ENDBRANCH   6  20
TORSDOF 3
ENDMDL
MODEL 9
REMARK VINA RESULT:      -7.7     23.086     25.187
REMARK  3 active torsions:
REMARK  status: ('A' for Active; 'I' for Inactive)
REMARK    1  A    between atoms: C5_9  and  O2_2 
REMARK    2  A    between atoms: C11_15  and  O3_3 
REMARK    3  A    between atoms: C1_5  and  C3_7 
ROOT
HETATM    1  O1  UNK     1      16.855   7.549  32.336  1.00  0.00    -0.306 OA
HETATM    2  O4  UNK     1      19.643   9.538  34.544  1.00  0.00    -0.284 OA
HETATM    3  C1  UNK     1      18.128   7.035  32.526  1.00  0.00     0.123 A 
HETATM    4  C2  UNK     1      17.445   9.474  33.692  1.00  0.00     0.051 A 
HETATM    5  C4  UNK     1      16.539   8.746  32.923  1.00  0.00     0.090 A 
HETATM    6  C5  UNK     1      19.097   7.641  33.237  1.00  0.00     0.152 A 
HETATM    7  C6  UNK     1      18.802   8.941  33.885  1.00  0.00     0.220 A 
HETATM    8  C8  UNK     1      17.066  10.689  34.267  1.00  0.00     0.018 A 
HETATM    9  C10 UNK     1      15.246   9.231  32.723  1.00  0.00     0.038 A 
HETATM   10  C12 UNK     1      15.773  11.172  34.066  1.00  0.00     0.001 A 
HETATM   11  C13 UNK     1      14.864  10.445  33.295  1.00  0.00     0.003 A 
ENDROOT
BRANCH   3  12
HETATM   12  C3  UNK     1      18.336   5.746  31.844  1.00  0.00     0.003 A 
HETATM   13  C7  UNK     1      17.974   4.555  32.475  1.00  0.00     0.051 A 
HETATM   14  C11 UNK     1      18.171   3.335  31.828  1.00  0.00     0.069 A 
HETATM   15  C15 UNK     1      18.730   3.305  30.551  1.00  0.00     0.037 A 
HETATM   16  C14 UNK     1      19.091   4.494  29.919  1.00  0.00     0.004 A 
HETATM   17  C9  UNK     1      18.895   5.715  30.566  1.00  0.00     0.014 A 
BRANCH  14  18
HETATM   18  O3  UNK     1      17.819   2.174  32.444  1.00  0.00    -0.356 OA
HETATM   19  C16 UNK     1      18.126   2.056  33.833  1.00  0.00     0.210 C 
ENDBRANCH  14  18
ENDBRANCH   3  12
BRANCH   6  20
HETATM   20  O2  UNK     1      20.364   7.117  33.379  1.00  0.00    -0.355 OA
HETATM   21  H9  UNK     1      20.676   7.251  34.289  1.00  0.00     0.218 HD
ENDBRANCH   6  20
TORSDOF 3
ENDMDL
MODEL 10
REMARK VINA RESULT:      -7.6     28.700     31.017
REMARK  3 active torsions:
REMARK  status: ('A' for Active; 'I' for Inactive)
REMARK    1  A    between atoms: C5_9  and  O2_2 
REMARK    2  A    between atoms: C11_15  and  O3_3 
REMARK    3  A    between atoms: C1_5  and  C3_7 
ROOT
HETATM    1  O1  UNK     1      18.909  -2.211  37.404  1.00  0.00    -0.306 OA
HETATM    2  O4  UNK     1      19.377  -0.858  33.589  1.00  0.00    -0.284 OA
HETATM    3  C1  UNK     1      19.544  -2.976  36.438  1.00  0.00     0.123 A 
HETATM    4  C2  UNK     1      18.579  -0.447  35.770  1.00  0.00     0.051 A 
HETATM    5  C4  UNK     1      18.448  -0.968  37.055  1.00  0.00     0.090 A 
HETATM    6  C5  UNK     1      19.727  -2.594  35.160  1.00  0.00     0.152 A 
HETATM    7  C6  UNK     1      19.238  -1.260  34.736  1.00  0.00     0.220 A 
HETATM    8  C8  UNK     1      18.090   0.827  35.472  1.00  0.00     0.018 A 
HETATM    9  C10 UNK     1      17.825  -0.218  38.052  1.00  0.00     0.038 A 
HETATM   10  C12 UNK     1      17.467   1.576  36.470  1.00  0.00     0.001 A 
HETATM   11  C13 UNK     1      17.334   1.055  37.758  1.00  0.00     0.003 A 
ENDROOT
BRANCH   3  12
HETATM   12  C3  UNK     1      19.990  -4.286  36.943  1.00  0.00     0.003 A 
HETATM   13  C7  UNK     1      21.237  -4.410  37.557  1.00  0.00     0.051 A 
HETATM   14  C11 UNK     1      21.659  -5.651  38.036  1.00  0.00     0.069 A 
HETATM   15  C15 UNK     1      20.835  -6.767  37.901  1.00  0.00     0.037 A 
HETATM   16  C14 UNK     1      19.588  -6.644  37.287  1.00  0.00     0.004 A 
HETATM   17  C9  UNK     1      19.166  -5.404  36.808  1.00  0.00     0.014 A 
BRANCH  14  18
HETATM   18  O3  UNK     1      22.875  -5.771  38.634  1.00  0.00    -0.356 OA
HETATM   19  C16 UNK     1      23.187  -7.032  39.225  1.00  0.00     0.210 C 
ENDBRANCH  14  18
ENDBRANCH   3  12
BRANCH   6  20
HETATM   20  O2  UNK     1      20.334  -3.394  34.216  1.00  0.00    -0.355 OA
HETATM   21  H9  UNK     1      19.764  -4.152  34.011  1.00  0.00     0.218 HD
ENDBRANCH   6  20
TORSDOF 3
ENDMDL
