MODEL 1
REMARK VINA RESULT:      -9.5      0.000      0.000
REMARK  5 active torsions:
REMARK  status: ('A' for Active; 'I' for Inactive)
REMARK    1  A    between atoms: C17_22  and  O4_4 
REMARK    2  A    between atoms: C3_8  and  C8_13 
REMARK    3  A    between atoms: C10_15  and  C8_13 
REMARK    4  A    between atoms: C11_16  and  C9_14 
REMARK    5  A    between atoms: C14_19  and  C17_22 
ROOT
HETATM    1  C10 UNK     1      18.409   3.296  30.390  1.00  0.00     0.056 C 
HETATM    2  C11 UNK     1      19.101   4.438  30.274  1.00  0.00     0.015 C 
ENDROOT
BRANCH   1   3
HETATM    3  C8  UNK     1      18.492   2.239  29.325  1.00  0.00     0.182 C 
HETATM    4  O3  UNK     1      18.066   2.462  28.182  1.00  0.00    -0.288 OA
BRANCH   3   5
HETATM    5  C3  UNK     1      19.106   0.962  29.656  1.00  0.00     0.017 A 
HETATM    6  C4  UNK     1      19.282   0.604  30.995  1.00  0.00     0.055 A 
HETATM    7  C1  UNK     1      19.871  -0.615  31.259  1.00  0.00     0.105 A 
HETATM    8  O1  UNK     1      20.123  -1.129  32.495  1.00  0.00    -0.323 OA
HETATM    9  C2  UNK     1      20.275  -1.458  30.250  1.00  0.00     0.105 A 
HETATM   10  C7  UNK     1      20.730  -2.390  32.149  1.00  0.00     0.352 A 
HETATM   11  O2  UNK     1      20.830  -2.605  30.726  1.00  0.00    -0.323 OA
HETATM   12  C5  UNK     1      20.113  -1.128  28.920  1.00  0.00     0.040 A 
HETATM   13  C6  UNK     1      19.519   0.101  28.625  1.00  0.00     0.018 A 
ENDBRANCH   3   5
ENDBRANCH   1   3
BRANCH   2  14
HETATM   14  C9  UNK     1      19.094   5.524  31.271  1.00  0.00    -0.036 A 
HETATM   15  C12 UNK     1      17.923   6.242  31.511  1.00  0.00     0.012 A 
HETATM   16  C15 UNK     1      17.916   7.269  32.455  1.00  0.00     0.018 A 
HETATM   17  C14 UNK     1      19.081   7.578  33.158  1.00  0.00     0.039 A 
HETATM   18  C16 UNK     1      20.252   6.860  32.917  1.00  0.00     0.018 A 
HETATM   19  C13 UNK     1      20.258   5.832  31.974  1.00  0.00     0.012 A 
BRANCH  17  20
HETATM   20  C17 UNK     1      19.074   8.649  34.142  1.00  0.00     0.292 C 
HETATM   21  O5  UNK     1      20.090   9.136  34.655  1.00  0.00    -0.259 OA
BRANCH  20  22
HETATM   22  O4  UNK     1      17.800   9.057  34.433  1.00  0.00    -0.323 OA
HETATM   23  C18 UNK     1      17.461  10.406  34.097  1.00  0.00     0.213 C 
ENDBRANCH  20  22
ENDBRANCH  17  20
ENDBRANCH   2  14
TORSDOF 5
ENDMDL
MODEL 2
REMARK VINA RESULT:      -8.4      1.872      2.986
REMARK  5 active torsions:
REMARK  status: ('A' for Active; 'I' for Inactive)
REMARK    1  A    between atoms: C17_22  and  O4_4 
REMARK    2  A    between atoms: C3_8  and  C8_13 
REMARK    3  A    between atoms: C10_15  and  C8_13 
REMARK    4  A    between atoms: C11_16  and  C9_14 
REMARK    5  A    between atoms: C14_19  and  C17_22 
ROOT
HETATM    1  C10 UNK     1      18.103   4.456  32.536  1.00  0.00     0.056 C 
HETATM    2  C11 UNK     1      18.127   5.172  33.668  1.00  0.00     0.015 C 
ENDROOT
BRANCH   1   3
HETATM    3  C8  UNK     1      18.140   2.954  32.579  1.00  0.00     0.182 C 
HETATM    4  O3  UNK     1      17.903   2.349  33.636  1.00  0.00    -0.288 OA
BRANCH   3   5
HETATM    5  C3  UNK     1      18.431   2.227  31.353  1.00  0.00     0.017 A 
HETATM    6  C4  UNK     1      19.209   1.068  31.403  1.00  0.00     0.055 A 
HETATM    7  C1  UNK     1      19.460   0.415  30.214  1.00  0.00     0.105 A 
HETATM    8  O1  UNK     1      20.195  -0.723  30.068  1.00  0.00    -0.323 OA
HETATM    9  C2  UNK     1      18.968   0.876  29.015  1.00  0.00     0.105 A 
HETATM   10  C7  UNK     1      20.108  -0.924  28.642  1.00  0.00     0.352 A 
HETATM   11  O2  UNK     1      19.332   0.088  27.968  1.00  0.00    -0.323 OA
HETATM   12  C5  UNK     1      18.197   2.019  28.939  1.00  0.00     0.040 A 
HETATM   13  C6  UNK     1      17.928   2.700  30.128  1.00  0.00     0.018 A 
ENDBRANCH   3   5
ENDBRANCH   1   3
BRANCH   2  14
HETATM   14  C9  UNK     1      18.080   6.645  33.726  1.00  0.00    -0.036 A 
HETATM   15  C12 UNK     1      16.896   7.317  33.428  1.00  0.00     0.012 A 
HETATM   16  C15 UNK     1      16.851   8.710  33.484  1.00  0.00     0.018 A 
HETATM   17  C14 UNK     1      17.993   9.431  33.837  1.00  0.00     0.039 A 
HETATM   18  C16 UNK     1      19.177   8.758  34.136  1.00  0.00     0.018 A 
HETATM   19  C13 UNK     1      19.220   7.365  34.081  1.00  0.00     0.012 A 
BRANCH  17  20
HETATM   20  C17 UNK     1      17.946  10.883  33.896  1.00  0.00     0.292 C 
HETATM   21  O5  UNK     1      18.838  11.630  33.471  1.00  0.00    -0.259 OA
BRANCH  20  22
HETATM   22  O4  UNK     1      16.790  11.327  34.478  1.00  0.00    -0.323 OA
HETATM   23  C18 UNK     1      16.856  12.572  35.180  1.00  0.00     0.213 C 
ENDBRANCH  20  22
ENDBRANCH  17  20
ENDBRANCH   2  14
TORSDOF 5
ENDMDL
MODEL 3
REMARK VINA RESULT:      -8.3      6.917     10.221
REMARK  5 active torsions:
REMARK  status: ('A' for Active; 'I' for Inactive)
REMARK    1  A    between atoms: C17_22  and  O4_4 
REMARK    2  A    between atoms: C3_8  and  C8_13 
REMARK    3  A    between atoms: C10_15  and  C8_13 
REMARK    4  A    between atoms: C11_16  and  C9_14 
REMARK    5  A    between atoms: C14_19  and  C17_22 
ROOT
HETATM    1  C10 UNK     1      20.337  -4.454  36.815  1.00  0.00     0.056 C 
HETATM    2  C11 UNK     1      20.189  -3.174  37.183  1.00  0.00     0.015 C 
ENDROOT
BRANCH   1   3
HETATM    3  C8  UNK     1      21.247  -5.372  37.583  1.00  0.00     0.182 C 
HETATM    4  O3  UNK     1      22.382  -4.998  37.916  1.00  0.00    -0.288 OA
BRANCH   3   5
HETATM    5  C3  UNK     1      20.759  -6.692  37.949  1.00  0.00     0.017 A 
HETATM    6  C4  UNK     1      20.796  -7.729  37.014  1.00  0.00     0.055 A 
HETATM    7  C1  UNK     1      20.320  -8.963  37.407  1.00  0.00     0.105 A 
HETATM    8  O1  UNK     1      20.276 -10.084  36.636  1.00  0.00    -0.323 OA
HETATM    9  C2  UNK     1      19.825  -9.178  38.672  1.00  0.00     0.105 A 
HETATM   10  C7  UNK     1      19.697 -11.029  37.559  1.00  0.00     0.352 A 
HETATM   11  O2  UNK     1      19.408 -10.461  38.853  1.00  0.00    -0.323 OA
HETATM   12  C5  UNK     1      19.777  -8.171  39.614  1.00  0.00     0.040 A 
HETATM   13  C6  UNK     1      20.253  -6.912  39.242  1.00  0.00     0.018 A 
ENDBRANCH   3   5
ENDBRANCH   1   3
BRANCH   2  14
HETATM   14  C9  UNK     1      19.311  -2.205  36.503  1.00  0.00    -0.036 A 
HETATM   15  C12 UNK     1      18.272  -1.593  37.204  1.00  0.00     0.012 A 
HETATM   16  C15 UNK     1      17.442  -0.676  36.560  1.00  0.00     0.018 A 
HETATM   17  C14 UNK     1      17.650  -0.371  35.215  1.00  0.00     0.039 A 
HETATM   18  C16 UNK     1      18.689  -0.982  34.514  1.00  0.00     0.018 A 
HETATM   19  C13 UNK     1      19.520  -1.899  35.159  1.00  0.00     0.012 A 
BRANCH  17  20
HETATM   20  C17 UNK     1      16.785   0.586  34.544  1.00  0.00     0.292 C 
HETATM   21  O5  UNK     1      15.548   0.574  34.604  1.00  0.00    -0.259 OA
BRANCH  20  22
HETATM   22  O4  UNK     1      17.507   1.508  33.836  1.00  0.00    -0.323 OA
HETATM   23  C18 UNK     1      18.235   2.480  34.593  1.00  0.00     0.213 C 
ENDBRANCH  20  22
ENDBRANCH  17  20
ENDBRANCH   2  14
TORSDOF 5
ENDMDL
MODEL 4
REMARK VINA RESULT:      -8.3      1.781      9.641
REMARK  5 active torsions:
REMARK  status: ('A' for Active; 'I' for Inactive)
REMARK    1  A    between atoms: C17_22  and  O4_4 
REMARK    2  A    between atoms: C3_8  and  C8_13 
REMARK    3  A    between atoms: C10_15  and  C8_13 
REMARK    4  A    between atoms: C11_16  and  C9_14 
REMARK    5  A    between atoms: C14_19  and  C17_22 
ROOT
HETATM    1  C10 UNK     1      18.829   7.063  33.600  1.00  0.00     0.056 C 
HETATM    2  C11 UNK     1      19.052   6.932  32.285  1.00  0.00     0.015 C 
ENDROOT
BRANCH   1   3
HETATM    3  C8  UNK     1      19.038   8.385  34.284  1.00  0.00     0.182 C 
HETATM    4  O3  UNK     1      20.129   8.657  34.809  1.00  0.00    -0.288 OA
BRANCH   3   5
HETATM    5  C3  UNK     1      17.946   9.346  34.294  1.00  0.00     0.017 A 
HETATM    6  C4  UNK     1      16.636   8.904  34.493  1.00  0.00     0.055 A 
HETATM    7  C1  UNK     1      15.634   9.852  34.492  1.00  0.00     0.105 A 
HETATM    8  O1  UNK     1      14.305   9.610  34.668  1.00  0.00    -0.323 OA
HETATM    9  C2  UNK     1      15.901  11.188  34.303  1.00  0.00     0.105 A 
HETATM   10  C7  UNK     1      13.768  10.945  34.569  1.00  0.00     0.352 A 
HETATM   11  O2  UNK     1      14.775  11.951  34.337  1.00  0.00    -0.323 OA
HETATM   12  C5  UNK     1      17.186  11.650  34.104  1.00  0.00     0.040 A 
HETATM   13  C6  UNK     1      18.219  10.711  34.100  1.00  0.00     0.018 A 
ENDBRANCH   3   5
ENDBRANCH   1   3
BRANCH   2  14
HETATM   14  C9  UNK     1      18.862   5.683  31.525  1.00  0.00    -0.036 A 
HETATM   15  C12 UNK     1      19.243   5.617  30.186  1.00  0.00     0.012 A 
HETATM   16  C15 UNK     1      19.064   4.435  29.467  1.00  0.00     0.018 A 
HETATM   17  C14 UNK     1      18.502   3.319  30.089  1.00  0.00     0.039 A 
HETATM   18  C16 UNK     1      18.121   3.385  31.429  1.00  0.00     0.018 A 
HETATM   19  C13 UNK     1      18.302   4.568  32.147  1.00  0.00     0.012 A 
BRANCH  17  20
HETATM   20  C17 UNK     1      18.315   2.086  29.340  1.00  0.00     0.292 C 
HETATM   21  O5  UNK     1      17.975   2.034  28.151  1.00  0.00    -0.259 OA
BRANCH  20  22
HETATM   22  O4  UNK     1      18.565   0.985  30.113  1.00  0.00    -0.323 OA
HETATM   23  C18 UNK     1      19.795   0.292  29.874  1.00  0.00     0.213 C 
ENDBRANCH  20  22
ENDBRANCH  17  20
ENDBRANCH   2  14
TORSDOF 5
ENDMDL
MODEL 5
REMARK VINA RESULT:      -8.1      1.787      9.782
REMARK  5 active torsions:
REMARK  status: ('A' for Active; 'I' for Inactive)
REMARK    1  A    between atoms: C17_22  and  O4_4 
REMARK    2  A    between atoms: C3_8  and  C8_13 
REMARK    3  A    between atoms: C10_15  and  C8_13 
REMARK    4  A    between atoms: C11_16  and  C9_14 
REMARK    5  A    between atoms: C14_19  and  C17_22 
ROOT
HETATM    1  C10 UNK     1      18.953   7.052  33.604  1.00  0.00     0.056 C 
HETATM    2  C11 UNK     1      18.927   6.949  32.267  1.00  0.00     0.015 C 
ENDROOT
BRANCH   1   3
HETATM    3  C8  UNK     1      19.093   8.394  34.265  1.00  0.00     0.182 C 
HETATM    4  O3  UNK     1      20.187   8.758  34.724  1.00  0.00    -0.288 OA
BRANCH   3   5
HETATM    5  C3  UNK     1      17.930   9.265  34.330  1.00  0.00     0.017 A 
HETATM    6  C4  UNK     1      18.066  10.626  34.046  1.00  0.00     0.055 A 
HETATM    7  C1  UNK     1      16.935  11.412  34.122  1.00  0.00     0.105 A 
HETATM    8  O1  UNK     1      16.876  12.751  33.883  1.00  0.00    -0.323 OA
HETATM    9  C2  UNK     1      15.710  10.888  34.464  1.00  0.00     0.105 A 
HETATM   10  C7  UNK     1      15.476  13.009  34.112  1.00  0.00     0.352 A 
HETATM   11  O2  UNK     1      14.730  11.831  34.482  1.00  0.00    -0.323 OA
HETATM   12  C5  UNK     1      15.549   9.547  34.750  1.00  0.00     0.040 A 
HETATM   13  C6  UNK     1      16.678   8.729  34.680  1.00  0.00     0.018 A 
ENDBRANCH   3   5
ENDBRANCH   1   3
BRANCH   2  14
HETATM   14  C9  UNK     1      18.779   5.681  31.530  1.00  0.00    -0.036 A 
HETATM   15  C12 UNK     1      18.252   4.559  32.171  1.00  0.00     0.012 A 
HETATM   16  C15 UNK     1      18.111   3.360  31.473  1.00  0.00     0.018 A 
HETATM   17  C14 UNK     1      18.497   3.282  30.135  1.00  0.00     0.039 A 
HETATM   18  C16 UNK     1      19.023   4.403  29.494  1.00  0.00     0.018 A 
HETATM   19  C13 UNK     1      19.163   5.603  30.192  1.00  0.00     0.012 A 
BRANCH  17  20
HETATM   20  C17 UNK     1      18.349   2.031  29.407  1.00  0.00     0.292 C 
HETATM   21  O5  UNK     1      18.095   1.951  28.198  1.00  0.00    -0.259 OA
BRANCH  20  22
HETATM   22  O4  UNK     1      18.528   0.949  30.225  1.00  0.00    -0.323 OA
HETATM   23  C18 UNK     1      19.859   0.433  30.334  1.00  0.00     0.213 C 
ENDBRANCH  20  22
ENDBRANCH  17  20
ENDBRANCH   2  14
TORSDOF 5
ENDMDL
MODEL 6
REMARK VINA RESULT:      -7.9      5.395      9.027
REMARK  5 active torsions:
REMARK  status: ('A' for Active; 'I' for Inactive)
REMARK    1  A    between atoms: C17_22  and  O4_4 
REMARK    2  A    between atoms: C3_8  and  C8_13 
REMARK    3  A    between atoms: C10_15  and  C8_13 
REMARK    4  A    between atoms: C11_16  and  C9_14 
REMARK    5  A    between atoms: C14_19  and  C17_22 
ROOT
HETATM    1  C10 UNK     1      20.490  -2.640  35.354  1.00  0.00     0.056 C 
HETATM    2  C11 UNK     1      19.462  -2.169  34.633  1.00  0.00     0.015 C 
ENDROOT
BRANCH   1   3
HETATM    3  C8  UNK     1      20.261  -3.235  36.715  1.00  0.00     0.182 C 
HETATM    4  O3  UNK     1      19.821  -2.536  37.641  1.00  0.00    -0.288 OA
BRANCH   3   5
HETATM    5  C3  UNK     1      20.540  -4.648  36.915  1.00  0.00     0.017 A 
HETATM    6  C4  UNK     1      19.924  -5.598  36.097  1.00  0.00     0.055 A 
HETATM    7  C1  UNK     1      20.218  -6.927  36.325  1.00  0.00     0.105 A 
HETATM    8  O1  UNK     1      19.715  -7.986  35.633  1.00  0.00    -0.323 OA
HETATM    9  C2  UNK     1      21.086  -7.316  37.319  1.00  0.00     0.105 A 
HETATM   10  C7  UNK     1      20.365  -9.085  36.304  1.00  0.00     0.352 A 
HETATM   11  O2  UNK     1      21.236  -8.667  37.375  1.00  0.00    -0.323 OA
HETATM   12  C5  UNK     1      21.708  -6.397  38.140  1.00  0.00     0.040 A 
HETATM   13  C6  UNK     1      21.427  -5.046  37.931  1.00  0.00     0.018 A 
ENDBRANCH   3   5
ENDBRANCH   1   3
BRANCH   2  14
HETATM   14  C9  UNK     1      19.586  -1.583  33.286  1.00  0.00    -0.036 A 
HETATM   15  C12 UNK     1      20.423  -2.176  32.342  1.00  0.00     0.012 A 
HETATM   16  C15 UNK     1      20.539  -1.622  31.067  1.00  0.00     0.018 A 
HETATM   17  C14 UNK     1      19.818  -0.474  30.737  1.00  0.00     0.039 A 
HETATM   18  C16 UNK     1      18.981   0.119  31.682  1.00  0.00     0.018 A 
HETATM   19  C13 UNK     1      18.864  -0.436  32.956  1.00  0.00     0.012 A 
BRANCH  17  20
HETATM   20  C17 UNK     1      19.939   0.104  29.408  1.00  0.00     0.292 C 
HETATM   21  O5  UNK     1      20.488  -0.455  28.449  1.00  0.00    -0.259 OA
BRANCH  20  22
HETATM   22  O4  UNK     1      19.367   1.345  29.344  1.00  0.00    -0.323 OA
HETATM   23  C18 UNK     1      18.143   1.456  28.611  1.00  0.00     0.213 C 
ENDBRANCH  20  22
ENDBRANCH  17  20
ENDBRANCH   2  14
TORSDOF 5
ENDMDL
MODEL 7
REMARK VINA RESULT:      -7.7      3.592      4.387
REMARK  5 active torsions:
REMARK  status: ('A' for Active; 'I' for Inactive)
REMARK    1  A    between atoms: C17_22  and  O4_4 
REMARK    2  A    between atoms: C3_8  and  C8_13 
REMARK    3  A    between atoms: C10_15  and  C8_13 
REMARK    4  A    between atoms: C11_16  and  C9_14 
REMARK    5  A    between atoms: C14_19  and  C17_22 
ROOT
HETATM    1  C10 UNK     1      18.323   3.697  33.694  1.00  0.00     0.056 C 
HETATM    2  C11 UNK     1      17.992   4.671  32.834  1.00  0.00     0.015 C 
ENDROOT
BRANCH   1   3
HETATM    3  C8  UNK     1      18.185   2.252  33.303  1.00  0.00     0.182 C 
HETATM    4  O3  UNK     1      18.100   1.928  32.108  1.00  0.00    -0.288 OA
BRANCH   3   5
HETATM    5  C3  UNK     1      18.182   1.243  34.351  1.00  0.00     0.017 A 
HETATM    6  C4  UNK     1      18.072   1.633  35.688  1.00  0.00     0.055 A 
HETATM    7  C1  UNK     1      18.075   0.641  36.646  1.00  0.00     0.105 A 
HETATM    8  O1  UNK     1      17.979   0.830  37.991  1.00  0.00    -0.323 OA
HETATM    9  C2  UNK     1      18.182  -0.689  36.312  1.00  0.00     0.105 A 
HETATM   10  C7  UNK     1      18.037  -0.531  38.464  1.00  0.00     0.352 A 
HETATM   11  O2  UNK     1      18.166  -1.500  37.404  1.00  0.00    -0.323 OA
HETATM   12  C5  UNK     1      18.292  -1.100  34.999  1.00  0.00     0.040 A 
HETATM   13  C6  UNK     1      18.291  -0.116  34.009  1.00  0.00     0.018 A 
ENDBRANCH   3   5
ENDBRANCH   1   3
BRANCH   2  14
HETATM   14  C9  UNK     1      18.106   6.112  33.122  1.00  0.00    -0.036 A 
HETATM   15  C12 UNK     1      19.136   6.582  33.936  1.00  0.00     0.012 A 
HETATM   16  C15 UNK     1      19.245   7.946  34.207  1.00  0.00     0.018 A 
HETATM   17  C14 UNK     1      18.322   8.840  33.664  1.00  0.00     0.039 A 
HETATM   18  C16 UNK     1      17.291   8.371  32.850  1.00  0.00     0.018 A 
HETATM   19  C13 UNK     1      17.184   7.006  32.578  1.00  0.00     0.012 A 
BRANCH  17  20
HETATM   20  C17 UNK     1      18.435  10.263  33.947  1.00  0.00     0.292 C 
HETATM   21  O5  UNK     1      19.473  10.821  34.322  1.00  0.00    -0.259 OA
BRANCH  20  22
HETATM   22  O4  UNK     1      17.248  10.912  33.743  1.00  0.00    -0.323 OA
HETATM   23  C18 UNK     1      17.084  12.179  34.389  1.00  0.00     0.213 C 
ENDBRANCH  20  22
ENDBRANCH  17  20
ENDBRANCH   2  14
TORSDOF 5
ENDMDL
MODEL 8
REMARK VINA RESULT:      -7.6      6.019     12.655
REMARK  5 active torsions:
REMARK  status: ('A' for Active; 'I' for Inactive)
REMARK    1  A    between atoms: C17_22  and  O4_4 
REMARK    2  A    between atoms: C3_8  and  C8_13 
REMARK    3  A    between atoms: C10_15  and  C8_13 
REMARK    4  A    between atoms: C11_16  and  C9_14 
REMARK    5  A    between atoms: C14_19  and  C17_22 
ROOT
HETATM    1  C10 UNK     1      19.800  -3.826  36.321  1.00  0.00     0.056 C 
HETATM    2  C11 UNK     1      20.084  -4.881  37.098  1.00  0.00     0.015 C 
ENDROOT
BRANCH   1   3
HETATM    3  C8  UNK     1      19.356  -2.525  36.928  1.00  0.00     0.182 C 
HETATM    4  O3  UNK     1      19.392  -2.359  38.157  1.00  0.00    -0.288 OA
BRANCH   3   5
HETATM    5  C3  UNK     1      18.912  -1.458  36.044  1.00  0.00     0.017 A 
HETATM    6  C4  UNK     1      19.326  -1.446  34.710  1.00  0.00     0.055 A 
HETATM    7  C1  UNK     1      18.881  -0.413  33.911  1.00  0.00     0.105 A 
HETATM    8  O1  UNK     1      19.180  -0.236  32.595  1.00  0.00    -0.323 OA
HETATM    9  C2  UNK     1      18.057   0.575  34.397  1.00  0.00     0.105 A 
HETATM   10  C7  UNK     1      18.451   0.974  32.308  1.00  0.00     0.352 A 
HETATM   11  O2  UNK     1      17.736   1.494  33.447  1.00  0.00    -0.323 OA
HETATM   12  C5  UNK     1      17.633   0.586  35.711  1.00  0.00     0.040 A 
HETATM   13  C6  UNK     1      18.070  -0.448  36.541  1.00  0.00     0.018 A 
ENDBRANCH   3   5
ENDBRANCH   1   3
BRANCH   2  14
HETATM   14  C9  UNK     1      20.539  -6.190  36.596  1.00  0.00    -0.036 A 
HETATM   15  C12 UNK     1      20.135  -6.632  35.336  1.00  0.00     0.012 A 
HETATM   16  C15 UNK     1      20.566  -7.871  34.861  1.00  0.00     0.018 A 
HETATM   17  C14 UNK     1      21.401  -8.667  35.646  1.00  0.00     0.039 A 
HETATM   18  C16 UNK     1      21.804  -8.225  36.906  1.00  0.00     0.018 A 
HETATM   19  C13 UNK     1      21.373  -6.985  37.380  1.00  0.00     0.012 A 
BRANCH  17  20
HETATM   20  C17 UNK     1      21.851  -9.958  35.150  1.00  0.00     0.292 C 
HETATM   21  O5  UNK     1      21.790 -10.313  33.966  1.00  0.00    -0.259 OA
BRANCH  20  22
HETATM   22  O4  UNK     1      22.355 -10.736  36.157  1.00  0.00    -0.323 OA
HETATM   23  C18 UNK     1      23.494 -11.543  35.842  1.00  0.00     0.213 C 
ENDBRANCH  20  22
ENDBRANCH  17  20
ENDBRANCH   2  14
TORSDOF 5
ENDMDL
MODEL 9
REMARK VINA RESULT:      -7.6     22.718     24.630
REMARK  5 active torsions:
REMARK  status: ('A' for Active; 'I' for Inactive)
REMARK    1  A    between atoms: C17_22  and  O4_4 
REMARK    2  A    between atoms: C3_8  and  C8_13 
REMARK    3  A    between atoms: C10_15  and  C8_13 
REMARK    4  A    between atoms: C11_16  and  C9_14 
REMARK    5  A    between atoms: C14_19  and  C17_22 
ROOT
HETATM    1  C10 UNK     1      13.441   6.202   8.001  1.00  0.00     0.056 C 
HETATM    2  C11 UNK     1      13.640   6.990   9.067  1.00  0.00     0.015 C 
ENDROOT
BRANCH   1   3
HETATM    3  C8  UNK     1      12.287   5.240   7.965  1.00  0.00     0.182 C 
HETATM    4  O3  UNK     1      12.487   4.016   7.995  1.00  0.00    -0.288 OA
BRANCH   3   5
HETATM    5  C3  UNK     1      10.935   5.774   7.925  1.00  0.00     0.017 A 
HETATM    6  C4  UNK     1      10.268   6.065   9.118  1.00  0.00     0.055 A 
HETATM    7  C1  UNK     1       8.987   6.568   9.028  1.00  0.00     0.105 A 
HETATM    8  O1  UNK     1       8.188   6.907  10.078  1.00  0.00    -0.323 OA
HETATM    9  C2  UNK     1       8.375   6.780   7.815  1.00  0.00     0.105 A 
HETATM   10  C7  UNK     1       7.004   7.357   9.387  1.00  0.00     0.352 A 
HETATM   11  O2  UNK     1       7.116   7.279   7.951  1.00  0.00    -0.323 OA
HETATM   12  C5  UNK     1       9.011   6.501   6.623  1.00  0.00     0.040 A 
HETATM   13  C6  UNK     1      10.309   5.991   6.685  1.00  0.00     0.018 A 
ENDBRANCH   3   5
ENDBRANCH   1   3
BRANCH   2  14
HETATM   14  C9  UNK     1      14.732   7.973   9.186  1.00  0.00    -0.036 A 
HETATM   15  C12 UNK     1      15.904   7.634   9.864  1.00  0.00     0.012 A 
HETATM   16  C15 UNK     1      16.938   8.563   9.977  1.00  0.00     0.018 A 
HETATM   17  C14 UNK     1      16.800   9.831   9.412  1.00  0.00     0.039 A 
HETATM   18  C16 UNK     1      15.629  10.170   8.734  1.00  0.00     0.018 A 
HETATM   19  C13 UNK     1      14.596   9.240   8.621  1.00  0.00     0.012 A 
BRANCH  17  20
HETATM   20  C17 UNK     1      17.879  10.800   9.529  1.00  0.00     0.292 C 
HETATM   21  O5  UNK     1      17.965  11.647  10.428  1.00  0.00    -0.259 OA
BRANCH  20  22
HETATM   22  O4  UNK     1      18.793  10.660   8.521  1.00  0.00    -0.323 OA
HETATM   23  C18 UNK     1      18.982  11.786   7.657  1.00  0.00     0.213 C 
ENDBRANCH  20  22
ENDBRANCH  17  20
ENDBRANCH   2  14
TORSDOF 5
ENDMDL
MODEL 10
REMARK VINA RESULT:      -7.6      6.710     12.528
REMARK  5 active torsions:
REMARK  status: ('A' for Active; 'I' for Inactive)
REMARK    1  A    between atoms: C17_22  and  O4_4 
REMARK    2  A    between atoms: C3_8  and  C8_13 
REMARK    3  A    between atoms: C10_15  and  C8_13 
REMARK    4  A    between atoms: C11_16  and  C9_14 
REMARK    5  A    between atoms: C14_19  and  C17_22 
ROOT
HETATM    1  C10 UNK     1      20.549  -3.419  36.665  1.00  0.00     0.056 C 
HETATM    2  C11 UNK     1      20.065  -4.527  36.088  1.00  0.00     0.015 C 
ENDROOT
BRANCH   1   3
HETATM    3  C8  UNK     1      20.602  -2.121  35.908  1.00  0.00     0.182 C 
HETATM    4  O3  UNK     1      21.691  -1.636  35.565  1.00  0.00    -0.288 OA
BRANCH   3   5
HETATM    5  C3  UNK     1      19.351  -1.464  35.563  1.00  0.00     0.017 A 
HETATM    6  C4  UNK     1      18.515  -0.989  36.576  1.00  0.00     0.055 A 
HETATM    7  C1  UNK     1      17.338  -0.375  36.199  1.00  0.00     0.105 A 
HETATM    8  O1  UNK     1      16.404   0.145  37.042  1.00  0.00    -0.323 OA
HETATM    9  C2  UNK     1      16.989  -0.228  34.877  1.00  0.00     0.105 A 
HETATM   10  C7  UNK     1      15.428   0.637  36.101  1.00  0.00     0.352 A 
HETATM   11  O2  UNK     1      15.793   0.403  34.725  1.00  0.00    -0.323 OA
HETATM   12  C5  UNK     1      17.797  -0.688  33.857  1.00  0.00     0.040 A 
HETATM   13  C6  UNK     1      18.994  -1.314  34.211  1.00  0.00     0.018 A 
ENDBRANCH   3   5
ENDBRANCH   1   3
BRANCH   2  14
HETATM   14  C9  UNK     1      19.960  -5.838  36.753  1.00  0.00    -0.036 A 
HETATM   15  C12 UNK     1      18.787  -6.584  36.644  1.00  0.00     0.012 A 
HETATM   16  C15 UNK     1      18.688  -7.825  37.273  1.00  0.00     0.018 A 
HETATM   17  C14 UNK     1      19.763  -8.320  38.012  1.00  0.00     0.039 A 
HETATM   18  C16 UNK     1      20.936  -7.574  38.122  1.00  0.00     0.018 A 
HETATM   19  C13 UNK     1      21.035  -6.333  37.491  1.00  0.00     0.012 A 
BRANCH  17  20
HETATM   20  C17 UNK     1      19.660  -9.614  38.668  1.00  0.00     0.292 C 
HETATM   21  O5  UNK     1      19.837  -9.801  39.879  1.00  0.00    -0.259 OA
BRANCH  20  22
HETATM   22  O4  UNK     1      19.341 -10.605  37.779  1.00  0.00    -0.323 OA
HETATM   23  C18 UNK     1      20.382 -11.048  36.903  1.00  0.00     0.213 C 
ENDBRANCH  20  22
ENDBRANCH  17  20
ENDBRANCH   2  14
TORSDOF 5
ENDMDL
