MODEL 1
REMARK VINA RESULT:      -7.8      0.000      0.000
REMARK  2 active torsions:
REMARK  status: ('A' for Active; 'I' for Inactive)
REMARK    1  A    between atoms: C1_5  and  C4_8 
REMARK    2  A    between atoms: C2_6  and  C3_7 
ROOT
HETATM    1  N1  UNK     1      20.496   5.686  30.521  1.00  0.00    -0.191 NA
HETATM    2  C3  UNK     1      18.274   5.135  31.717  1.00  0.00     0.055 C 
HETATM    3  C4  UNK     1      17.758   3.901  31.768  1.00  0.00     0.036 C 
HETATM    4  C15 UNK     1      19.496   5.444  31.060  1.00  0.00     0.100 C 
ENDROOT
BRANCH   2   5
HETATM    5  C2  UNK     1      17.558   6.200  32.401  1.00  0.00    -0.015 A 
HETATM    6  C7  UNK     1      17.458   6.192  33.793  1.00  0.00     0.014 A 
HETATM    7  C11 UNK     1      16.772   7.214  34.449  1.00  0.00     0.020 A 
HETATM    8  C14 UNK     1      16.185   8.244  33.714  1.00  0.00     0.011 A 
HETATM    9 Br1  UNK     1      15.255   9.628  34.603  1.00  0.00    -0.051 Br
HETATM   10  C12 UNK     1      16.284   8.253  32.322  1.00  0.00     0.020 A 
HETATM   11  C8  UNK     1      16.971   7.231  31.666  1.00  0.00     0.014 A 
ENDBRANCH   2   5
BRANCH   3  12
HETATM   12  C1  UNK     1      18.349   2.708  31.141  1.00  0.00    -0.013 A 
HETATM   13  C5  UNK     1      18.714   1.596  31.887  1.00  0.00     0.045 A 
HETATM   14 Cl1  UNK     1      18.506   1.523  33.602  1.00  0.00    -0.083 Cl
HETATM   15  C9  UNK     1      19.271   0.490  31.245  1.00  0.00     0.048 A 
HETATM   16  C13 UNK     1      19.457   0.506  29.862  1.00  0.00     0.035 A 
HETATM   17  C10 UNK     1      19.086   1.629  29.122  1.00  0.00     0.024 A 
HETATM   18 Cl2  UNK     1      20.144  -0.858  29.069  1.00  0.00    -0.084 Cl
HETATM   19  C6  UNK     1      18.530   2.735  29.764  1.00  0.00     0.015 A 
ENDBRANCH   3  12
TORSDOF 2
ENDMDL
MODEL 2
REMARK VINA RESULT:      -7.6      9.000     11.112
REMARK  2 active torsions:
REMARK  status: ('A' for Active; 'I' for Inactive)
REMARK    1  A    between atoms: C1_5  and  C4_8 
REMARK    2  A    between atoms: C2_6  and  C3_7 
ROOT
HETATM    1  N1  UNK     1      22.192  -4.843  37.938  1.00  0.00    -0.191 NA
HETATM    2  C3  UNK     1      19.888  -4.435  36.845  1.00  0.00     0.055 C 
HETATM    3  C4  UNK     1      19.023  -5.420  36.573  1.00  0.00     0.036 C 
HETATM    4  C15 UNK     1      21.157  -4.655  37.446  1.00  0.00     0.100 C 
ENDROOT
BRANCH   2   5
HETATM    5  C2  UNK     1      19.484  -3.072  36.537  1.00  0.00    -0.015 A 
HETATM    6  C7  UNK     1      19.839  -2.497  35.317  1.00  0.00     0.014 A 
HETATM    7  C11 UNK     1      19.451  -1.191  35.022  1.00  0.00     0.020 A 
HETATM    8  C14 UNK     1      18.709  -0.458  35.948  1.00  0.00     0.011 A 
HETATM    9 Br1  UNK     1      18.183   1.313  35.549  1.00  0.00    -0.051 Br
HETATM   10  C12 UNK     1      18.353  -1.032  37.169  1.00  0.00     0.020 A 
HETATM   11  C8  UNK     1      18.741  -2.339  37.464  1.00  0.00     0.014 A 
ENDBRANCH   2   5
BRANCH   3  12
HETATM   12  C1  UNK     1      19.261  -6.851  36.823  1.00  0.00    -0.013 A 
HETATM   13  C5  UNK     1      19.867  -7.666  35.878  1.00  0.00     0.045 A 
HETATM   14 Cl1  UNK     1      20.388  -7.071  34.340  1.00  0.00    -0.083 Cl
HETATM   15  C9  UNK     1      20.070  -9.016  36.163  1.00  0.00     0.048 A 
HETATM   16  C13 UNK     1      19.666  -9.539  37.392  1.00  0.00     0.035 A 
HETATM   17  C10 UNK     1      19.057  -8.710  38.335  1.00  0.00     0.024 A 
HETATM   18 Cl2  UNK     1      19.917 -11.204  37.745  1.00  0.00    -0.084 Cl
HETATM   19  C6  UNK     1      18.854  -7.360  38.050  1.00  0.00     0.015 A 
ENDBRANCH   3  12
TORSDOF 2
ENDMDL
MODEL 3
REMARK VINA RESULT:      -7.4      2.571      3.617
REMARK  2 active torsions:
REMARK  status: ('A' for Active; 'I' for Inactive)
REMARK    1  A    between atoms: C1_5  and  C4_8 
REMARK    2  A    between atoms: C2_6  and  C3_7 
ROOT
HETATM    1  N1  UNK     1      14.766   6.924  31.560  1.00  0.00    -0.191 NA
HETATM    2  C3  UNK     1      16.979   7.863  32.504  1.00  0.00     0.055 C 
HETATM    3  C4  UNK     1      18.158   7.243  32.359  1.00  0.00     0.036 C 
HETATM    4  C15 UNK     1      15.759   7.350  31.987  1.00  0.00     0.100 C 
ENDROOT
BRANCH   2   5
HETATM    5  C2  UNK     1      16.965   9.142  33.195  1.00  0.00    -0.015 A 
HETATM    6  C7  UNK     1      18.163   9.727  33.608  1.00  0.00     0.014 A 
HETATM    7  C11 UNK     1      18.149  10.954  34.270  1.00  0.00     0.020 A 
HETATM    8  C14 UNK     1      16.937  11.597  34.521  1.00  0.00     0.011 A 
HETATM    9 Br1  UNK     1      16.918  13.260  35.419  1.00  0.00    -0.051 Br
HETATM   10  C12 UNK     1      15.739  11.014  34.108  1.00  0.00     0.020 A 
HETATM   11  C8  UNK     1      15.753   9.787  33.445  1.00  0.00     0.014 A 
ENDBRANCH   2   5
BRANCH   3  12
HETATM   12  C1  UNK     1      18.358   5.951  31.685  1.00  0.00    -0.013 A 
HETATM   13  C5  UNK     1      18.220   4.746  32.359  1.00  0.00     0.045 A 
HETATM   14 Cl1  UNK     1      17.803   4.666  34.035  1.00  0.00    -0.083 Cl
HETATM   15  C9  UNK     1      18.421   3.548  31.674  1.00  0.00     0.048 A 
HETATM   16  C13 UNK     1      18.758   3.565  30.321  1.00  0.00     0.035 A 
HETATM   17  C10 UNK     1      18.895   4.782  29.653  1.00  0.00     0.024 A 
HETATM   18 Cl2  UNK     1      19.006   2.087  29.475  1.00  0.00    -0.084 Cl
HETATM   19  C6  UNK     1      18.694   5.980  30.337  1.00  0.00     0.015 A 
ENDBRANCH   3  12
TORSDOF 2
ENDMDL
MODEL 4
REMARK VINA RESULT:      -7.1      2.222      2.791
REMARK  2 active torsions:
REMARK  status: ('A' for Active; 'I' for Inactive)
REMARK    1  A    between atoms: C1_5  and  C4_8 
REMARK    2  A    between atoms: C2_6  and  C3_7 
ROOT
HETATM    1  N1  UNK     1      21.275   6.356  32.737  1.00  0.00    -0.191 NA
HETATM    2  C3  UNK     1      18.718   6.708  32.831  1.00  0.00     0.055 C 
HETATM    3  C4  UNK     1      17.836   5.742  32.543  1.00  0.00     0.036 C 
HETATM    4  C15 UNK     1      20.126   6.519  32.780  1.00  0.00     0.100 C 
ENDROOT
BRANCH   2   5
HETATM    5  C2  UNK     1      18.198   7.999  33.251  1.00  0.00    -0.015 A 
HETATM    6  C7  UNK     1      19.061   8.962  33.777  1.00  0.00     0.014 A 
HETATM    7  C11 UNK     1      18.562  10.200  34.179  1.00  0.00     0.020 A 
HETATM    8  C14 UNK     1      17.201  10.477  34.057  1.00  0.00     0.011 A 
HETATM    9 Br1  UNK     1      16.525  12.156  34.602  1.00  0.00    -0.051 Br
HETATM   10  C12 UNK     1      16.337   9.516  33.531  1.00  0.00     0.020 A 
HETATM   11  C8  UNK     1      16.836   8.276  33.129  1.00  0.00     0.014 A 
ENDBRANCH   2   5
BRANCH   3  12
HETATM   12  C1  UNK     1      18.182   4.379  32.109  1.00  0.00    -0.013 A 
HETATM   13  C5  UNK     1      18.639   4.115  30.826  1.00  0.00     0.045 A 
HETATM   14 Cl1  UNK     1      18.836   5.358  29.640  1.00  0.00    -0.083 Cl
HETATM   15  C9  UNK     1      18.954   2.805  30.464  1.00  0.00     0.048 A 
HETATM   16  C13 UNK     1      18.810   1.772  31.390  1.00  0.00     0.035 A 
HETATM   17  C10 UNK     1      18.350   2.048  32.677  1.00  0.00     0.024 A 
HETATM   18 Cl2  UNK     1      19.199   0.155  30.945  1.00  0.00    -0.084 Cl
HETATM   19  C6  UNK     1      18.035   3.358  33.039  1.00  0.00     0.015 A 
ENDBRANCH   3  12
TORSDOF 2
ENDMDL
MODEL 5
REMARK VINA RESULT:      -7.0     22.900     24.273
REMARK  2 active torsions:
REMARK  status: ('A' for Active; 'I' for Inactive)
REMARK    1  A    between atoms: C1_5  and  C4_8 
REMARK    2  A    between atoms: C2_6  and  C3_7 
ROOT
HETATM    1  N1  UNK     1      14.156   6.259  10.556  1.00  0.00    -0.191 NA
HETATM    2  C3  UNK     1      14.134   8.368   9.065  1.00  0.00     0.055 C 
HETATM    3  C4  UNK     1      13.084   8.720   8.312  1.00  0.00     0.036 C 
HETATM    4  C15 UNK     1      14.151   7.208   9.887  1.00  0.00     0.100 C 
ENDROOT
BRANCH   2   5
HETATM    5  C2  UNK     1      15.296   9.241   9.062  1.00  0.00    -0.015 A 
HETATM    6  C7  UNK     1      16.427   8.902   9.805  1.00  0.00     0.014 A 
HETATM    7  C11 UNK     1      17.542   9.741   9.800  1.00  0.00     0.020 A 
HETATM    8  C14 UNK     1      17.526  10.918   9.053  1.00  0.00     0.011 A 
HETATM    9 Br1  UNK     1      19.037  12.054   9.048  1.00  0.00    -0.051 Br
HETATM   10  C12 UNK     1      16.396  11.258   8.310  1.00  0.00     0.020 A 
HETATM   11  C8  UNK     1      15.281  10.420   8.314  1.00  0.00     0.014 A 
ENDBRANCH   2   5
BRANCH   3  12
HETATM   12  C1  UNK     1      11.828   7.961   8.201  1.00  0.00    -0.013 A 
HETATM   13  C5  UNK     1      10.738   8.230   9.017  1.00  0.00     0.045 A 
HETATM   14 Cl1  UNK     1      10.767   9.469  10.223  1.00  0.00    -0.083 Cl
HETATM   15  C9  UNK     1       9.570   7.482   8.872  1.00  0.00     0.048 A 
HETATM   16  C13 UNK     1       9.502   6.472   7.912  1.00  0.00     0.035 A 
HETATM   17  C10 UNK     1      10.604   6.210   7.097  1.00  0.00     0.024 A 
HETATM   18 Cl2  UNK     1       8.061   5.548   7.732  1.00  0.00    -0.084 Cl
HETATM   19  C6  UNK     1      11.772   6.958   7.242  1.00  0.00     0.015 A 
ENDBRANCH   3  12
TORSDOF 2
ENDMDL
MODEL 6
REMARK VINA RESULT:      -6.8     23.091     24.372
REMARK  2 active torsions:
REMARK  status: ('A' for Active; 'I' for Inactive)
REMARK    1  A    between atoms: C1_5  and  C4_8 
REMARK    2  A    between atoms: C2_6  and  C3_7 
ROOT
HETATM    1  N1  UNK     1      14.130   6.076  10.419  1.00  0.00    -0.191 NA
HETATM    2  C3  UNK     1      14.003   8.293   9.102  1.00  0.00     0.055 C 
HETATM    3  C4  UNK     1      12.907   8.692   8.444  1.00  0.00     0.036 C 
HETATM    4  C15 UNK     1      14.078   7.074   9.828  1.00  0.00     0.100 C 
ENDROOT
BRANCH   2   5
HETATM    5  C2  UNK     1      15.158   9.177   9.095  1.00  0.00    -0.015 A 
HETATM    6  C7  UNK     1      15.151  10.329   8.307  1.00  0.00     0.014 A 
HETATM    7  C11 UNK     1      16.259  11.176   8.302  1.00  0.00     0.020 A 
HETATM    8  C14 UNK     1      17.373  10.874   9.084  1.00  0.00     0.011 A 
HETATM    9 Br1  UNK     1      18.874  12.023   9.077  1.00  0.00    -0.051 Br
HETATM   10  C12 UNK     1      17.381   9.723   9.872  1.00  0.00     0.020 A 
HETATM   11  C8  UNK     1      16.273   8.874   9.878  1.00  0.00     0.014 A 
ENDBRANCH   2   5
BRANCH   3  12
HETATM   12  C1  UNK     1      11.651   7.930   8.350  1.00  0.00    -0.013 A 
HETATM   13  C5  UNK     1      11.514   6.851   7.489  1.00  0.00     0.045 A 
HETATM   14 Cl1  UNK     1      12.799   6.316   6.463  1.00  0.00    -0.083 Cl
HETATM   15  C9  UNK     1      10.303   6.161   7.438  1.00  0.00     0.048 A 
HETATM   16  C13 UNK     1       9.239   6.558   8.248  1.00  0.00     0.035 A 
HETATM   17  C10 UNK     1       9.387   7.645   9.110  1.00  0.00     0.024 A 
HETATM   18 Cl2  UNK     1       7.744   5.708   8.186  1.00  0.00    -0.084 Cl
HETATM   19  C6  UNK     1      10.599   8.334   9.162  1.00  0.00     0.015 A 
ENDBRANCH   3  12
TORSDOF 2
ENDMDL
MODEL 7
REMARK VINA RESULT:      -6.7     22.524     24.088
REMARK  2 active torsions:
REMARK  status: ('A' for Active; 'I' for Inactive)
REMARK    1  A    between atoms: C1_5  and  C4_8 
REMARK    2  A    between atoms: C2_6  and  C3_7 
ROOT
HETATM    1  N1  UNK     1      15.243   7.350  11.311  1.00  0.00    -0.191 NA
HETATM    2  C3  UNK     1      14.287   8.634   9.284  1.00  0.00     0.055 C 
HETATM    3  C4  UNK     1      14.767   9.815   8.874  1.00  0.00     0.036 C 
HETATM    4  C15 UNK     1      14.809   7.924  10.399  1.00  0.00     0.100 C 
ENDROOT
BRANCH   2   5
HETATM    5  C2  UNK     1      13.199   8.041   8.523  1.00  0.00    -0.015 A 
HETATM    6  C7  UNK     1      11.878   8.390   8.804  1.00  0.00     0.014 A 
HETATM    7  C11 UNK     1      10.835   7.821   8.073  1.00  0.00     0.020 A 
HETATM    8  C14 UNK     1      11.113   6.903   7.061  1.00  0.00     0.011 A 
HETATM    9 Br1  UNK     1       9.699   6.133   6.070  1.00  0.00    -0.051 Br
HETATM   10  C12 UNK     1      12.433   6.554   6.778  1.00  0.00     0.020 A 
HETATM   11  C8  UNK     1      13.477   7.122   7.510  1.00  0.00     0.014 A 
ENDBRANCH   2   5
BRANCH   3  12
HETATM   12  C1  UNK     1      15.864  10.554   9.518  1.00  0.00    -0.013 A 
HETATM   13  C5  UNK     1      15.636  11.434  10.566  1.00  0.00     0.045 A 
HETATM   14 Cl1  UNK     1      14.053  11.731  11.196  1.00  0.00    -0.083 Cl
HETATM   15  C9  UNK     1      16.710  12.111  11.142  1.00  0.00     0.048 A 
HETATM   16  C13 UNK     1      18.004  11.901  10.666  1.00  0.00     0.035 A 
HETATM   17  C10 UNK     1      18.223  11.014   9.611  1.00  0.00     0.024 A 
HETATM   18 Cl2  UNK     1      19.331  12.735  11.377  1.00  0.00    -0.084 Cl
HETATM   19  C6  UNK     1      17.148  10.337   9.035  1.00  0.00     0.015 A 
ENDBRANCH   3  12
TORSDOF 2
ENDMDL
MODEL 8
REMARK VINA RESULT:      -6.7     22.452     23.917
REMARK  2 active torsions:
REMARK  status: ('A' for Active; 'I' for Inactive)
REMARK    1  A    between atoms: C1_5  and  C4_8 
REMARK    2  A    between atoms: C2_6  and  C3_7 
ROOT
HETATM    1  N1  UNK     1      12.901   8.883  11.947  1.00  0.00    -0.191 NA
HETATM    2  C3  UNK     1      13.880   8.817   9.558  1.00  0.00     0.055 C 
HETATM    3  C4  UNK     1      13.287   8.176   8.542  1.00  0.00     0.036 C 
HETATM    4  C15 UNK     1      13.345   8.855  10.875  1.00  0.00     0.100 C 
ENDROOT
BRANCH   2   5
HETATM    5  C2  UNK     1      15.113   9.535   9.280  1.00  0.00    -0.015 A 
HETATM    6  C7  UNK     1      16.270   9.241  10.002  1.00  0.00     0.014 A 
HETATM    7  C11 UNK     1      17.453   9.930   9.735  1.00  0.00     0.020 A 
HETATM    8  C14 UNK     1      17.479  10.914   8.747  1.00  0.00     0.011 A 
HETATM    9 Br1  UNK     1      19.082  11.847   8.385  1.00  0.00    -0.051 Br
HETATM   10  C12 UNK     1      16.323  11.209   8.025  1.00  0.00     0.020 A 
HETATM   11  C8  UNK     1      15.139  10.519   8.291  1.00  0.00     0.014 A 
ENDBRANCH   2   5
BRANCH   3  12
HETATM   12  C1  UNK     1      12.036   7.407   8.640  1.00  0.00    -0.013 A 
HETATM   13  C5  UNK     1      12.036   6.023   8.744  1.00  0.00     0.045 A 
HETATM   14 Cl1  UNK     1      13.495   5.096   8.768  1.00  0.00    -0.083 Cl
HETATM   15  C9  UNK     1      10.823   5.340   8.834  1.00  0.00     0.048 A 
HETATM   16  C13 UNK     1       9.621   6.048   8.819  1.00  0.00     0.035 A 
HETATM   17  C10 UNK     1       9.632   7.439   8.713  1.00  0.00     0.024 A 
HETATM   18 Cl2  UNK     1       8.123   5.207   8.930  1.00  0.00    -0.084 Cl
HETATM   19  C6  UNK     1      10.845   8.122   8.624  1.00  0.00     0.015 A 
ENDBRANCH   3  12
TORSDOF 2
ENDMDL
MODEL 9
REMARK VINA RESULT:      -6.6     16.428     17.809
REMARK  2 active torsions:
REMARK  status: ('A' for Active; 'I' for Inactive)
REMARK    1  A    between atoms: C1_5  and  C4_8 
REMARK    2  A    between atoms: C2_6  and  C3_7 
ROOT
HETATM    1  N1  UNK     1      28.220 -10.329  39.456  1.00  0.00    -0.191 NA
HETATM    2  C3  UNK     1      27.005  -9.015  37.595  1.00  0.00     0.055 C 
HETATM    3  C4  UNK     1      27.509  -7.908  37.032  1.00  0.00     0.036 C 
HETATM    4  C15 UNK     1      27.670  -9.741  38.620  1.00  0.00     0.100 C 
ENDROOT
BRANCH   2   5
HETATM    5  C2  UNK     1      25.730  -9.508  37.100  1.00  0.00    -0.015 A 
HETATM    6  C7  UNK     1      24.571  -8.753  37.282  1.00  0.00     0.014 A 
HETATM    7  C11 UNK     1      23.348  -9.227  36.807  1.00  0.00     0.020 A 
HETATM    8  C14 UNK     1      23.284 -10.455  36.149  1.00  0.00     0.011 A 
HETATM    9 Br1  UNK     1      21.627 -11.097  35.505  1.00  0.00    -0.051 Br
HETATM   10  C12 UNK     1      24.442 -11.211  35.966  1.00  0.00     0.020 A 
HETATM   11  C8  UNK     1      25.666 -10.737  36.442  1.00  0.00     0.014 A 
ENDBRANCH   2   5
BRANCH   3  12
HETATM   12  C1  UNK     1      28.784  -7.275  37.402  1.00  0.00    -0.013 A 
HETATM   13  C5  UNK     1      29.999  -7.742  36.920  1.00  0.00     0.045 A 
HETATM   14 Cl1  UNK     1      30.111  -9.098  35.852  1.00  0.00    -0.083 Cl
HETATM   15  C9  UNK     1      31.180  -7.107  37.301  1.00  0.00     0.048 A 
HETATM   16  C13 UNK     1      31.137  -6.009  38.161  1.00  0.00     0.035 A 
HETATM   17  C10 UNK     1      29.911  -5.547  38.640  1.00  0.00     0.024 A 
HETATM   18 Cl2  UNK     1      32.594  -5.224  38.631  1.00  0.00    -0.084 Cl
HETATM   19  C6  UNK     1      28.729  -6.183  38.259  1.00  0.00     0.015 A 
ENDBRANCH   3  12
TORSDOF 2
ENDMDL
MODEL 10
REMARK VINA RESULT:      -6.5     15.330     16.883
REMARK  2 active torsions:
REMARK  status: ('A' for Active; 'I' for Inactive)
REMARK    1  A    between atoms: C1_5  and  C4_8 
REMARK    2  A    between atoms: C2_6  and  C3_7 
ROOT
HETATM    1  N1  UNK     1      25.965 -10.944  36.186  1.00  0.00    -0.191 NA
HETATM    2  C3  UNK     1      25.634  -8.814  37.609  1.00  0.00     0.055 C 
HETATM    3  C4  UNK     1      26.648  -8.037  38.009  1.00  0.00     0.036 C 
HETATM    4  C15 UNK     1      25.811  -9.988  36.826  1.00  0.00     0.100 C 
ENDROOT
BRANCH   2   5
HETATM    5  C2  UNK     1      24.284  -8.409  37.969  1.00  0.00    -0.015 A 
HETATM    6  C7  UNK     1      24.068  -7.638  39.111  1.00  0.00     0.014 A 
HETATM    7  C11 UNK     1      22.774  -7.250  39.456  1.00  0.00     0.020 A 
HETATM    8  C14 UNK     1      21.695  -7.633  38.659  1.00  0.00     0.011 A 
HETATM    9 Br1  UNK     1      19.941  -7.106  39.126  1.00  0.00    -0.051 Br
HETATM   10  C12 UNK     1      21.910  -8.404  37.517  1.00  0.00     0.020 A 
HETATM   11  C8  UNK     1      23.205  -8.793  37.172  1.00  0.00     0.014 A 
ENDBRANCH   2   5
BRANCH   3  12
HETATM   12  C1  UNK     1      28.071  -8.289  37.731  1.00  0.00    -0.013 A 
HETATM   13  C5  UNK     1      28.814  -9.187  38.484  1.00  0.00     0.045 A 
HETATM   14 Cl1  UNK     1      28.133 -10.075  39.803  1.00  0.00    -0.083 Cl
HETATM   15  C9  UNK     1      30.160  -9.391  38.180  1.00  0.00     0.048 A 
HETATM   16  C13 UNK     1      30.750  -8.696  37.125  1.00  0.00     0.035 A 
HETATM   17  C10 UNK     1      29.994  -7.796  36.373  1.00  0.00     0.024 A 
HETATM   18 Cl2  UNK     1      32.410  -8.947  36.748  1.00  0.00    -0.084 Cl
HETATM   19  C6  UNK     1      28.648  -7.592  36.678  1.00  0.00     0.015 A 
ENDBRANCH   3  12
TORSDOF 2
ENDMDL
