MODEL 1
REMARK VINA RESULT:      -7.3      0.000      0.000
REMARK  5 active torsions:
REMARK  status: ('A' for Active; 'I' for Inactive)
REMARK       I    between atoms: C2_6  and  N1_4 
REMARK    1  A    between atoms: C4_8  and  N1_4 
REMARK    2  A    between atoms: C5_9  and  N1_4 
REMARK    3  A    between atoms: C1_5  and  C2_6 
REMARK    4  A    between atoms: C11_15  and  C4_8 
REMARK    5  A    between atoms: C12_16  and  C5_9 
ROOT
HETATM    1  O1  UNK     1      18.949   1.207  31.636  1.00  0.00    -0.274 OA
HETATM    2  O3  UNK     1      17.747   2.035  33.394  1.00  0.00    -0.259 OA
HETATM    3  C1  UNK     1      18.149  -0.301  33.386  1.00  0.00     0.108 A 
HETATM    4  C3  UNK     1      19.424  -1.175  31.521  1.00  0.00    -0.001 A 
HETATM    5  C6  UNK     1      18.700  -1.352  32.770  1.00  0.00     0.037 A 
HETATM    6  C7  UNK     1      19.532   0.104  30.982  1.00  0.00     0.089 A 
HETATM    7  C8  UNK     1      18.250   1.068  32.832  1.00  0.00     0.304 A 
HETATM    8  C9  UNK     1      20.015  -2.243  30.843  1.00  0.00     0.014 A 
HETATM    9  C10 UNK     1      20.212   0.344  29.790  1.00  0.00     0.038 A 
HETATM   10  C13 UNK     1      20.701  -2.019  29.645  1.00  0.00     0.001 A 
HETATM   11  C14 UNK     1      20.799  -0.728  29.120  1.00  0.00     0.003 A 
ENDROOT
BRANCH   3  12
HETATM   12  C2  UNK     1      17.440  -0.582  34.640  1.00  0.00     0.260 C 
HETATM   13  O2  UNK     1      16.203  -0.563  34.631  1.00  0.00    -0.267 OA
HETATM   14  N1  UNK     1      18.211  -0.871  35.770  1.00  0.00    -0.341 N 
BRANCH  14  15
HETATM   15  C4  UNK     1      17.609  -1.180  37.065  1.00  0.00     0.153 C 
BRANCH  15  16
HETATM   16  C11 UNK     1      17.763  -0.002  37.968  1.00  0.00    -0.017 C 
HETATM   17  C15 UNK     1      17.292   1.219  37.689  1.00  0.00     0.008 C 
ENDBRANCH  15  16
ENDBRANCH  14  15
BRANCH  14  18
HETATM   18  C5  UNK     1      19.667  -0.882  35.733  1.00  0.00     0.153 C 
BRANCH  18  19
HETATM   19  C12 UNK     1      20.158  -2.202  36.227  1.00  0.00    -0.017 C 
HETATM   20  C16 UNK     1      20.129  -3.327  35.503  1.00  0.00     0.008 C 
ENDBRANCH  18  19
ENDBRANCH  14  18
ENDBRANCH   3  12
TORSDOF 5
ENDMDL
MODEL 2
REMARK VINA RESULT:      -7.0      6.012      8.881
REMARK  5 active torsions:
REMARK  status: ('A' for Active; 'I' for Inactive)
REMARK       I    between atoms: C2_6  and  N1_4 
REMARK    1  A    between atoms: C4_8  and  N1_4 
REMARK    2  A    between atoms: C5_9  and  N1_4 
REMARK    3  A    between atoms: C1_5  and  C2_6 
REMARK    4  A    between atoms: C11_15  and  C4_8 
REMARK    5  A    between atoms: C12_16  and  C5_9 
ROOT
HETATM    1  O1  UNK     1      18.141   7.641  34.312  1.00  0.00    -0.274 OA
HETATM    2  O3  UNK     1      19.665   5.939  34.234  1.00  0.00    -0.259 OA
HETATM    3  C1  UNK     1      17.730   5.696  32.887  1.00  0.00     0.108 A 
HETATM    4  C3  UNK     1      16.117   7.502  32.971  1.00  0.00    -0.001 A 
HETATM    5  C6  UNK     1      16.567   6.211  32.474  1.00  0.00     0.037 A 
HETATM    6  C7  UNK     1      16.917   8.188  33.880  1.00  0.00     0.089 A 
HETATM    7  C8  UNK     1      18.597   6.408  33.854  1.00  0.00     0.304 A 
HETATM    8  C9  UNK     1      14.910   8.077  32.568  1.00  0.00     0.014 A 
HETATM    9  C10 UNK     1      16.546   9.429  34.394  1.00  0.00     0.038 A 
HETATM   10  C13 UNK     1      14.524   9.322  33.075  1.00  0.00     0.001 A 
HETATM   11  C14 UNK     1      15.341   9.996  33.986  1.00  0.00     0.003 A 
ENDROOT
BRANCH   3  12
HETATM   12  C2  UNK     1      18.096   4.389  32.329  1.00  0.00     0.260 C 
HETATM   13  O2  UNK     1      17.911   3.382  33.023  1.00  0.00    -0.267 OA
HETATM   14  N1  UNK     1      18.622   4.362  31.033  1.00  0.00    -0.341 N 
BRANCH  14  15
HETATM   15  C4  UNK     1      19.005   3.116  30.375  1.00  0.00     0.153 C 
BRANCH  15  16
HETATM   16  C11 UNK     1      18.022   2.813  29.293  1.00  0.00    -0.017 C 
HETATM   17  C15 UNK     1      17.977   1.651  28.631  1.00  0.00     0.008 C 
ENDBRANCH  15  16
ENDBRANCH  14  15
BRANCH  14  18
HETATM   18  C5  UNK     1      18.823   5.575  30.252  1.00  0.00     0.153 C 
BRANCH  18  19
HETATM   19  C12 UNK     1      20.286   5.843  30.136  1.00  0.00    -0.017 C 
HETATM   20  C16 UNK     1      21.116   5.921  31.183  1.00  0.00     0.008 C 
ENDBRANCH  18  19
ENDBRANCH  14  18
ENDBRANCH   3  12
TORSDOF 5
ENDMDL
MODEL 3
REMARK VINA RESULT:      -7.0     15.048     17.819
REMARK  5 active torsions:
REMARK  status: ('A' for Active; 'I' for Inactive)
REMARK       I    between atoms: C2_6  and  N1_4 
REMARK    1  A    between atoms: C4_8  and  N1_4 
REMARK    2  A    between atoms: C5_9  and  N1_4 
REMARK    3  A    between atoms: C1_5  and  C2_6 
REMARK    4  A    between atoms: C11_15  and  C4_8 
REMARK    5  A    between atoms: C12_16  and  C5_9 
ROOT
HETATM    1  O1  UNK     1      19.339   1.073  15.862  1.00  0.00    -0.274 OA
HETATM    2  O3  UNK     1      19.502  -0.174  13.954  1.00  0.00    -0.259 OA
HETATM    3  C1  UNK     1      18.914  -1.334  15.936  1.00  0.00     0.108 A 
HETATM    4  C3  UNK     1      18.742  -0.008  17.956  1.00  0.00    -0.001 A 
HETATM    5  C6  UNK     1      18.664  -1.277  17.249  1.00  0.00     0.037 A 
HETATM    6  C7  UNK     1      19.077   1.139  17.244  1.00  0.00     0.089 A 
HETATM    7  C8  UNK     1      19.273  -0.126  15.158  1.00  0.00     0.304 A 
HETATM    8  C9  UNK     1      18.490   0.098  19.326  1.00  0.00     0.014 A 
HETATM    9  C10 UNK     1      19.167   2.385  17.861  1.00  0.00     0.038 A 
HETATM   10  C13 UNK     1      18.577   1.342  19.959  1.00  0.00     0.001 A 
HETATM   11  C14 UNK     1      18.914   2.483  19.227  1.00  0.00     0.003 A 
ENDROOT
BRANCH   3  12
HETATM   12  C2  UNK     1      18.811  -2.659  15.312  1.00  0.00     0.260 C 
HETATM   13  O2  UNK     1      17.829  -2.895  14.598  1.00  0.00    -0.267 OA
HETATM   14  N1  UNK     1      19.842  -3.572  15.556  1.00  0.00    -0.341 N 
BRANCH  14  15
HETATM   15  C4  UNK     1      19.847  -4.912  14.974  1.00  0.00     0.153 C 
BRANCH  15  16
HETATM   16  C11 UNK     1      19.129  -5.845  15.892  1.00  0.00    -0.017 C 
HETATM   17  C15 UNK     1      17.887  -6.292  15.678  1.00  0.00     0.008 C 
ENDBRANCH  15  16
ENDBRANCH  14  15
BRANCH  14  18
HETATM   18  C5  UNK     1      20.979  -3.249  16.406  1.00  0.00     0.153 C 
BRANCH  18  19
HETATM   19  C12 UNK     1      22.224  -3.784  15.780  1.00  0.00    -0.017 C 
HETATM   20  C16 UNK     1      23.457  -3.498  16.211  1.00  0.00     0.008 C 
ENDBRANCH  18  19
ENDBRANCH  14  18
ENDBRANCH   3  12
TORSDOF 5
ENDMDL
MODEL 4
REMARK VINA RESULT:      -6.9      5.898      8.592
REMARK  5 active torsions:
REMARK  status: ('A' for Active; 'I' for Inactive)
REMARK       I    between atoms: C2_6  and  N1_4 
REMARK    1  A    between atoms: C4_8  and  N1_4 
REMARK    2  A    between atoms: C5_9  and  N1_4 
REMARK    3  A    between atoms: C1_5  and  C2_6 
REMARK    4  A    between atoms: C11_15  and  C4_8 
REMARK    5  A    between atoms: C12_16  and  C5_9 
ROOT
HETATM    1  O1  UNK     1      19.130   7.874  33.482  1.00  0.00    -0.274 OA
HETATM    2  O3  UNK     1      20.714   6.347  32.863  1.00  0.00    -0.259 OA
HETATM    3  C1  UNK     1      18.680   6.323  31.645  1.00  0.00     0.108 A 
HETATM    4  C3  UNK     1      17.005   7.944  32.304  1.00  0.00    -0.001 A 
HETATM    5  C6  UNK     1      17.464   6.849  31.463  1.00  0.00     0.037 A 
HETATM    6  C7  UNK     1      17.851   8.432  33.295  1.00  0.00     0.089 A 
HETATM    7  C8  UNK     1      19.597   6.826  32.694  1.00  0.00     0.304 A 
HETATM    8  C9  UNK     1      15.743   8.523  32.150  1.00  0.00     0.014 A 
HETATM    9  C10 UNK     1      17.473   9.479  34.133  1.00  0.00     0.038 A 
HETATM   10  C13 UNK     1      15.349   9.575  32.983  1.00  0.00     0.001 A 
HETATM   11  C14 UNK     1      16.213  10.052  33.972  1.00  0.00     0.003 A 
ENDROOT
BRANCH   3  12
HETATM   12  C2  UNK     1      19.052   5.223  30.748  1.00  0.00     0.260 C 
HETATM   13  O2  UNK     1      19.654   5.497  29.703  1.00  0.00    -0.267 OA
HETATM   14  N1  UNK     1      18.713   3.924  31.140  1.00  0.00    -0.341 N 
BRANCH  14  15
HETATM   15  C4  UNK     1      19.048   2.755  30.331  1.00  0.00     0.153 C 
BRANCH  15  16
HETATM   16  C11 UNK     1      18.005   2.576  29.278  1.00  0.00    -0.017 C 
HETATM   17  C15 UNK     1      17.880   1.471  28.533  1.00  0.00     0.008 C 
ENDBRANCH  15  16
ENDBRANCH  14  15
BRANCH  14  18
HETATM   18  C5  UNK     1      18.002   3.649  32.381  1.00  0.00     0.153 C 
BRANCH  18  19
HETATM   19  C12 UNK     1      18.359   2.279  32.855  1.00  0.00    -0.017 C 
HETATM   20  C16 UNK     1      18.049   1.804  34.066  1.00  0.00     0.008 C 
ENDBRANCH  18  19
ENDBRANCH  14  18
ENDBRANCH   3  12
TORSDOF 5
ENDMDL
MODEL 5
REMARK VINA RESULT:      -6.9      6.393      9.044
REMARK  5 active torsions:
REMARK  status: ('A' for Active; 'I' for Inactive)
REMARK       I    between atoms: C2_6  and  N1_4 
REMARK    1  A    between atoms: C4_8  and  N1_4 
REMARK    2  A    between atoms: C5_9  and  N1_4 
REMARK    3  A    between atoms: C1_5  and  C2_6 
REMARK    4  A    between atoms: C11_15  and  C4_8 
REMARK    5  A    between atoms: C12_16  and  C5_9 
ROOT
HETATM    1  O1  UNK     1      16.708   8.342  32.995  1.00  0.00    -0.274 OA
HETATM    2  O3  UNK     1      15.744   6.453  32.145  1.00  0.00    -0.259 OA
HETATM    3  C1  UNK     1      18.001   6.272  32.843  1.00  0.00     0.108 A 
HETATM    4  C3  UNK     1      19.020   8.277  33.745  1.00  0.00    -0.001 A 
HETATM    5  C6  UNK     1      19.075   6.872  33.369  1.00  0.00     0.037 A 
HETATM    6  C7  UNK     1      17.836   8.980  33.549  1.00  0.00     0.089 A 
HETATM    7  C8  UNK     1      16.730   7.000  32.625  1.00  0.00     0.304 A 
HETATM    8  C9  UNK     1      20.116   8.944  34.296  1.00  0.00     0.014 A 
HETATM    9  C10 UNK     1      17.716  10.326  33.888  1.00  0.00     0.038 A 
HETATM   10  C13 UNK     1      20.012  10.295  34.641  1.00  0.00     0.001 A 
HETATM   11  C14 UNK     1      18.814  10.984  34.438  1.00  0.00     0.003 A 
ENDROOT
BRANCH   3  12
HETATM   12  C2  UNK     1      18.155   4.854  32.497  1.00  0.00     0.260 C 
HETATM   13  O2  UNK     1      17.918   4.009  33.368  1.00  0.00    -0.267 OA
HETATM   14  N1  UNK     1      18.550   4.545  31.191  1.00  0.00    -0.341 N 
BRANCH  14  15
HETATM   15  C4  UNK     1      18.719   3.168  30.735  1.00  0.00     0.153 C 
BRANCH  15  16
HETATM   16  C11 UNK     1      18.240   3.058  29.326  1.00  0.00    -0.017 C 
HETATM   17  C15 UNK     1      17.884   1.906  28.747  1.00  0.00     0.008 C 
ENDBRANCH  15  16
ENDBRANCH  14  15
BRANCH  14  18
HETATM   18  C5  UNK     1      18.820   5.576  30.198  1.00  0.00     0.153 C 
BRANCH  18  19
HETATM   19  C12 UNK     1      20.296   5.720  30.034  1.00  0.00    -0.017 C 
HETATM   20  C16 UNK     1      21.150   5.855  31.055  1.00  0.00     0.008 C 
ENDBRANCH  18  19
ENDBRANCH  14  18
ENDBRANCH   3  12
TORSDOF 5
ENDMDL
MODEL 6
REMARK VINA RESULT:      -6.7      4.377      6.060
REMARK  5 active torsions:
REMARK  status: ('A' for Active; 'I' for Inactive)
REMARK       I    between atoms: C2_6  and  N1_4 
REMARK    1  A    between atoms: C4_8  and  N1_4 
REMARK    2  A    between atoms: C5_9  and  N1_4 
REMARK    3  A    between atoms: C1_5  and  C2_6 
REMARK    4  A    between atoms: C11_15  and  C4_8 
REMARK    5  A    between atoms: C12_16  and  C5_9 
ROOT
HETATM    1  O1  UNK     1      18.722   1.599  33.055  1.00  0.00    -0.274 OA
HETATM    2  O3  UNK     1      18.127   3.193  34.580  1.00  0.00    -0.259 OA
HETATM    3  C1  UNK     1      18.166   3.860  32.306  1.00  0.00     0.108 A 
HETATM    4  C3  UNK     1      18.796   2.167  30.692  1.00  0.00    -0.001 A 
HETATM    5  C6  UNK     1      18.385   3.521  31.031  1.00  0.00     0.037 A 
HETATM    6  C7  UNK     1      18.955   1.236  31.714  1.00  0.00     0.089 A 
HETATM    7  C8  UNK     1      18.328   2.886  33.410  1.00  0.00     0.304 A 
HETATM    8  C9  UNK     1      19.037   1.769  29.375  1.00  0.00     0.014 A 
HETATM    9  C10 UNK     1      19.345  -0.077  31.457  1.00  0.00     0.038 A 
HETATM   10  C13 UNK     1      19.429   0.455  29.101  1.00  0.00     0.001 A 
HETATM   11  C14 UNK     1      19.582  -0.466  30.141  1.00  0.00     0.003 A 
ENDROOT
BRANCH   3  12
HETATM   12  C2  UNK     1      17.755   5.248  32.547  1.00  0.00     0.260 C 
HETATM   13  O2  UNK     1      16.571   5.550  32.357  1.00  0.00    -0.267 OA
HETATM   14  N1  UNK     1      18.731   6.145  32.992  1.00  0.00    -0.341 N 
BRANCH  14  15
HETATM   15  C4  UNK     1      18.429   7.545  33.276  1.00  0.00     0.153 C 
BRANCH  15  16
HETATM   16  C11 UNK     1      19.169   7.965  34.503  1.00  0.00    -0.017 C 
HETATM   17  C15 UNK     1      19.986   9.023  34.555  1.00  0.00     0.008 C 
ENDBRANCH  15  16
ENDBRANCH  14  15
BRANCH  14  18
HETATM   18  C5  UNK     1      20.116   5.744  33.200  1.00  0.00     0.153 C 
BRANCH  18  19
HETATM   19  C12 UNK     1      20.957   6.308  32.104  1.00  0.00    -0.017 C 
HETATM   20  C16 UNK     1      20.933   5.865  30.842  1.00  0.00     0.008 C 
ENDBRANCH  18  19
ENDBRANCH  14  18
ENDBRANCH   3  12
TORSDOF 5
ENDMDL
MODEL 7
REMARK VINA RESULT:      -6.7      3.685      6.403
REMARK  5 active torsions:
REMARK  status: ('A' for Active; 'I' for Inactive)
REMARK       I    between atoms: C2_6  and  N1_4 
REMARK    1  A    between atoms: C4_8  and  N1_4 
REMARK    2  A    between atoms: C5_9  and  N1_4 
REMARK    3  A    between atoms: C1_5  and  C2_6 
REMARK    4  A    between atoms: C11_15  and  C4_8 
REMARK    5  A    between atoms: C12_16  and  C5_9 
ROOT
HETATM    1  O1  UNK     1      19.334  -1.764  34.752  1.00  0.00    -0.274 OA
HETATM    2  O3  UNK     1      20.553  -3.610  34.178  1.00  0.00    -0.259 OA
HETATM    3  C1  UNK     1      19.921  -3.418  36.455  1.00  0.00     0.108 A 
HETATM    4  C3  UNK     1      18.628  -1.460  37.059  1.00  0.00    -0.001 A 
HETATM    5  C6  UNK     1      19.289  -2.711  37.398  1.00  0.00     0.037 A 
HETATM    6  C7  UNK     1      18.666  -1.015  35.741  1.00  0.00     0.089 A 
HETATM    7  C8  UNK     1      19.975  -2.964  35.046  1.00  0.00     0.304 A 
HETATM    8  C9  UNK     1      17.957  -0.690  38.011  1.00  0.00     0.014 A 
HETATM    9  C10 UNK     1      18.054   0.173  35.350  1.00  0.00     0.038 A 
HETATM   10  C13 UNK     1      17.337   0.506  37.634  1.00  0.00     0.001 A 
HETATM   11  C14 UNK     1      17.385   0.935  36.305  1.00  0.00     0.003 A 
ENDROOT
BRANCH   3  12
HETATM   12  C2  UNK     1      20.556  -4.666  36.895  1.00  0.00     0.260 C 
HETATM   13  O2  UNK     1      21.724  -4.618  37.301  1.00  0.00    -0.267 OA
HETATM   14  N1  UNK     1      19.793  -5.836  36.841  1.00  0.00    -0.341 N 
BRANCH  14  15
HETATM   15  C4  UNK     1      20.320  -7.129  37.268  1.00  0.00     0.153 C 
BRANCH  15  16
HETATM   16  C11 UNK     1      20.104  -7.283  38.737  1.00  0.00    -0.017 C 
HETATM   17  C15 UNK     1      21.077  -7.580  39.607  1.00  0.00     0.008 C 
ENDBRANCH  15  16
ENDBRANCH  14  15
BRANCH  14  18
HETATM   18  C5  UNK     1      18.420  -5.845  36.353  1.00  0.00     0.153 C 
BRANCH  18  19
HETATM   19  C12 UNK     1      18.171  -7.122  35.622  1.00  0.00    -0.017 C 
HETATM   20  C16 UNK     1      16.966  -7.507  35.185  1.00  0.00     0.008 C 
ENDBRANCH  18  19
ENDBRANCH  14  18
ENDBRANCH   3  12
TORSDOF 5
ENDMDL
MODEL 8
REMARK VINA RESULT:      -6.7      8.402     11.121
REMARK  5 active torsions:
REMARK  status: ('A' for Active; 'I' for Inactive)
REMARK       I    between atoms: C2_6  and  N1_4 
REMARK    1  A    between atoms: C4_8  and  N1_4 
REMARK    2  A    between atoms: C5_9  and  N1_4 
REMARK    3  A    between atoms: C1_5  and  C2_6 
REMARK    4  A    between atoms: C11_15  and  C4_8 
REMARK    5  A    between atoms: C12_16  and  C5_9 
ROOT
HETATM    1  O1  UNK     1      14.142   9.251  34.639  1.00  0.00    -0.274 OA
HETATM    2  O3  UNK     1      14.157   7.374  33.335  1.00  0.00    -0.259 OA
HETATM    3  C1  UNK     1      15.980   8.866  33.073  1.00  0.00     0.108 A 
HETATM    4  C3  UNK     1      15.961  10.854  34.458  1.00  0.00    -0.001 A 
HETATM    5  C6  UNK     1      16.570  10.008  33.443  1.00  0.00     0.037 A 
HETATM    6  C7  UNK     1      14.758  10.454  35.033  1.00  0.00     0.089 A 
HETATM    7  C8  UNK     1      14.700   8.421  33.671  1.00  0.00     0.304 A 
HETATM    8  C9  UNK     1      16.540  12.054  34.874  1.00  0.00     0.014 A 
HETATM    9  C10 UNK     1      14.123  11.217  36.010  1.00  0.00     0.038 A 
HETATM   10  C13 UNK     1      15.914  12.831  35.854  1.00  0.00     0.001 A 
HETATM   11  C14 UNK     1      14.708  12.413  36.421  1.00  0.00     0.003 A 
ENDROOT
BRANCH   3  12
HETATM   12  C2  UNK     1      16.672   8.082  32.043  1.00  0.00     0.260 C 
HETATM   13  O2  UNK     1      16.374   8.278  30.859  1.00  0.00    -0.267 OA
HETATM   14  N1  UNK     1      17.641   7.167  32.467  1.00  0.00    -0.341 N 
BRANCH  14  15
HETATM   15  C4  UNK     1      18.400   6.347  31.527  1.00  0.00     0.153 C 
BRANCH  15  16
HETATM   16  C11 UNK     1      18.119   4.906  31.799  1.00  0.00    -0.017 C 
HETATM   17  C15 UNK     1      18.579   3.902  31.044  1.00  0.00     0.008 C 
ENDBRANCH  15  16
ENDBRANCH  14  15
BRANCH  14  18
HETATM   18  C5  UNK     1      17.958   6.970  33.875  1.00  0.00     0.153 C 
BRANCH  18  19
HETATM   19  C12 UNK     1      19.376   7.370  34.116  1.00  0.00    -0.017 C 
HETATM   20  C16 UNK     1      19.748   8.590  34.520  1.00  0.00     0.008 C 
ENDBRANCH  18  19
ENDBRANCH  14  18
ENDBRANCH   3  12
TORSDOF 5
ENDMDL
MODEL 9
REMARK VINA RESULT:      -6.7      1.330      2.106
REMARK  5 active torsions:
REMARK  status: ('A' for Active; 'I' for Inactive)
REMARK       I    between atoms: C2_6  and  N1_4 
REMARK    1  A    between atoms: C4_8  and  N1_4 
REMARK    2  A    between atoms: C5_9  and  N1_4 
REMARK    3  A    between atoms: C1_5  and  C2_6 
REMARK    4  A    between atoms: C11_15  and  C4_8 
REMARK    5  A    between atoms: C12_16  and  C5_9 
ROOT
HETATM    1  O1  UNK     1      18.913   1.403  31.388  1.00  0.00    -0.274 OA
HETATM    2  O3  UNK     1      17.679   2.548  32.934  1.00  0.00    -0.259 OA
HETATM    3  C1  UNK     1      18.046   0.245  33.359  1.00  0.00     0.108 A 
HETATM    4  C3  UNK     1      19.356  -0.964  31.719  1.00  0.00    -0.001 A 
HETATM    5  C6  UNK     1      18.598  -0.906  32.959  1.00  0.00     0.037 A 
HETATM    6  C7  UNK     1      19.497   0.195  30.961  1.00  0.00     0.089 A 
HETATM    7  C8  UNK     1      18.182   1.490  32.569  1.00  0.00     0.304 A 
HETATM    8  C9  UNK     1      19.948  -2.144  31.262  1.00  0.00     0.014 A 
HETATM    9  C10 UNK     1      20.211   0.207  29.765  1.00  0.00     0.038 A 
HETATM   10  C13 UNK     1      20.668  -2.147  30.063  1.00  0.00     0.001 A 
HETATM   11  C14 UNK     1      20.799  -0.973  29.317  1.00  0.00     0.003 A 
ENDROOT
BRANCH   3  12
HETATM   12  C2  UNK     1      17.301   0.202  34.623  1.00  0.00     0.260 C 
HETATM   13  O2  UNK     1      16.131  -0.196  34.600  1.00  0.00    -0.267 OA
HETATM   14  N1  UNK     1      17.970   0.605  35.784  1.00  0.00    -0.341 N 
BRANCH  14  15
HETATM   15  C4  UNK     1      17.329   0.588  37.096  1.00  0.00     0.153 C 
BRANCH  15  16
HETATM   16  C11 UNK     1      17.914  -0.517  37.911  1.00  0.00    -0.017 C 
HETATM   17  C15 UNK     1      17.946  -1.796  37.519  1.00  0.00     0.008 C 
ENDBRANCH  15  16
ENDBRANCH  14  15
BRANCH  14  18
HETATM   18  C5  UNK     1      19.350   1.069  35.762  1.00  0.00     0.153 C 
BRANCH  18  19
HETATM   19  C12 UNK     1      19.376   2.535  36.039  1.00  0.00    -0.017 C 
HETATM   20  C16 UNK     1      20.484   3.215  36.356  1.00  0.00     0.008 C 
ENDBRANCH  18  19
ENDBRANCH  14  18
ENDBRANCH   3  12
TORSDOF 5
ENDMDL
MODEL 10
REMARK VINA RESULT:      -6.7     24.893     27.037
REMARK  5 active torsions:
REMARK  status: ('A' for Active; 'I' for Inactive)
REMARK       I    between atoms: C2_6  and  N1_4 
REMARK    1  A    between atoms: C4_8  and  N1_4 
REMARK    2  A    between atoms: C5_9  and  N1_4 
REMARK    3  A    between atoms: C1_5  and  C2_6 
REMARK    4  A    between atoms: C11_15  and  C4_8 
REMARK    5  A    between atoms: C12_16  and  C5_9 
ROOT
HETATM    1  O1  UNK     1      10.816   7.967   9.500  1.00  0.00    -0.274 OA
HETATM    2  O3  UNK     1      12.346   9.060  10.797  1.00  0.00    -0.259 OA
HETATM    3  C1  UNK     1      13.086   8.327   8.668  1.00  0.00     0.108 A 
HETATM    4  C3  UNK     1      11.460   7.169   7.295  1.00  0.00    -0.001 A 
HETATM    5  C6  UNK     1      12.793   7.706   7.519  1.00  0.00     0.037 A 
HETATM    6  C7  UNK     1      10.501   7.312   8.293  1.00  0.00     0.089 A 
HETATM    7  C8  UNK     1      12.082   8.491   9.743  1.00  0.00     0.304 A 
HETATM    8  C9  UNK     1      11.110   6.513   6.113  1.00  0.00     0.014 A 
HETATM    9  C10 UNK     1       9.206   6.821   8.141  1.00  0.00     0.038 A 
HETATM   10  C13 UNK     1       9.814   6.015   5.946  1.00  0.00     0.001 A 
HETATM   11  C14 UNK     1       8.864   6.169   6.958  1.00  0.00     0.003 A 
ENDROOT
BRANCH   3  12
HETATM   12  C2  UNK     1      14.457   8.835   8.799  1.00  0.00     0.260 C 
HETATM   13  O2  UNK     1      14.757   9.874   8.200  1.00  0.00    -0.267 OA
HETATM   14  N1  UNK     1      15.340   8.115   9.610  1.00  0.00    -0.341 N 
BRANCH  14  15
HETATM   15  C4  UNK     1      16.722   8.538   9.823  1.00  0.00     0.153 C 
BRANCH  15  16
HETATM   16  C11 UNK     1      16.726   9.834  10.564  1.00  0.00    -0.017 C 
HETATM   17  C15 UNK     1      17.465  10.892  10.211  1.00  0.00     0.008 C 
ENDBRANCH  15  16
ENDBRANCH  14  15
BRANCH  14  18
HETATM   18  C5  UNK     1      14.942   6.893  10.297  1.00  0.00     0.153 C 
BRANCH  18  19
HETATM   19  C12 UNK     1      15.668   5.737   9.695  1.00  0.00    -0.017 C 
HETATM   20  C16 UNK     1      15.278   4.463   9.823  1.00  0.00     0.008 C 
ENDBRANCH  18  19
ENDBRANCH  14  18
ENDBRANCH   3  12
TORSDOF 5
ENDMDL
