MODEL 1
REMARK VINA RESULT:      -7.9      0.000      0.000
REMARK  1 active torsions:
REMARK  status: ('A' for Active; 'I' for Inactive)
REMARK       I    between atoms: C6_12  and  N1_5 
REMARK    1  A    between atoms: C6_12  and  C8_14 
ROOT
HETATM    1 Cl1  UNK     1      18.751   2.009  21.103  1.00  0.00    -0.084 Cl
HETATM    2  O2  UNK     1      19.235   1.076  15.300  1.00  0.00    -0.274 OA
HETATM    3  O3  UNK     1      19.265  -0.352  13.515  1.00  0.00    -0.259 OA
HETATM    4  C8  UNK     1      18.950  -1.328  15.651  1.00  0.00     0.108 A 
HETATM    5  C9  UNK     1      18.837  -1.149  16.972  1.00  0.00     0.037 A 
HETATM    6  C10 UNK     1      18.919   0.187  17.541  1.00  0.00     0.001 A 
HETATM    7  C11 UNK     1      19.160  -0.191  14.727  1.00  0.00     0.304 A 
HETATM    8  C12 UNK     1      19.115   1.270  16.690  1.00  0.00     0.089 A 
HETATM    9  C13 UNK     1      18.805   0.421  18.914  1.00  0.00     0.038 A 
HETATM   10  C14 UNK     1      19.202   2.576  17.171  1.00  0.00     0.040 A 
HETATM   11  C15 UNK     1      18.890   1.725  19.411  1.00  0.00     0.035 A 
HETATM   12  C16 UNK     1      19.088   2.799  18.540  1.00  0.00     0.026 A 
ENDROOT
BRANCH   4  13
HETATM   13  C6  UNK     1      18.854  -2.723  15.170  1.00  0.00     0.260 C 
HETATM   14  O1  UNK     1      17.733  -3.160  14.905  1.00  0.00    -0.267 OA
HETATM   15  N1  UNK     1      20.047  -3.448  15.047  1.00  0.00    -0.346 N 
HETATM   16  C2  UNK     1      19.974  -4.829  14.571  1.00  0.00     0.128 C 
HETATM   17  C4  UNK     1      21.362  -2.892  15.389  1.00  0.00     0.156 C 
HETATM   18  C1  UNK     1      20.207  -5.826  15.698  1.00  0.00     0.050 C 
HETATM   19  C3  UNK     1      21.682  -6.057  16.031  1.00  0.00     0.273 C 
HETATM   20  N2  UNK     1      22.404  -4.865  16.504  1.00  0.00     0.085 N 
HETATM   21  C5  UNK     1      22.551  -3.855  15.444  1.00  0.00     0.291 C 
HETATM   22  C7  UNK     1      23.730  -5.272  16.988  1.00  0.00     0.309 C 
ENDBRANCH   4  13
TORSDOF 1
ENDMDL
MODEL 2
REMARK VINA RESULT:      -7.8     14.167     15.978
REMARK  1 active torsions:
REMARK  status: ('A' for Active; 'I' for Inactive)
REMARK       I    between atoms: C6_12  and  N1_5 
REMARK    1  A    between atoms: C6_12  and  C8_14 
ROOT
HETATM    1 Cl1  UNK     1       3.695   9.453  11.979  1.00  0.00    -0.084 Cl
HETATM    2  O2  UNK     1       7.692   5.191  11.173  1.00  0.00    -0.274 OA
HETATM    3  O3  UNK     1       9.306   4.201   9.895  1.00  0.00    -0.259 OA
HETATM    4  C8  UNK     1       8.281   6.139   8.998  1.00  0.00     0.108 A 
HETATM    5  C9  UNK     1       7.382   7.119   9.150  1.00  0.00     0.037 A 
HETATM    6  C10 UNK     1       6.569   7.187  10.355  1.00  0.00     0.001 A 
HETATM    7  C11 UNK     1       8.484   5.100  10.032  1.00  0.00     0.304 A 
HETATM    8  C12 UNK     1       6.744   6.221  11.341  1.00  0.00     0.089 A 
HETATM    9  C13 UNK     1       5.620   8.192  10.557  1.00  0.00     0.038 A 
HETATM   10  C14 UNK     1       5.999   6.229  12.518  1.00  0.00     0.040 A 
HETATM   11  C15 UNK     1       4.865   8.214  11.733  1.00  0.00     0.035 A 
HETATM   12  C16 UNK     1       5.054   7.234  12.711  1.00  0.00     0.026 A 
ENDROOT
BRANCH   4  13
HETATM   13  C6  UNK     1       9.057   6.156   7.739  1.00  0.00     0.260 C 
HETATM   14  O1  UNK     1       8.639   5.475   6.802  1.00  0.00    -0.267 OA
HETATM   15  N1  UNK     1      10.211   6.949   7.701  1.00  0.00    -0.346 N 
HETATM   16  C2  UNK     1      10.991   6.982   6.464  1.00  0.00     0.128 C 
HETATM   17  C4  UNK     1      10.682   7.735   8.848  1.00  0.00     0.156 C 
HETATM   18  C1  UNK     1      12.286   6.190   6.594  1.00  0.00     0.050 C 
HETATM   19  C3  UNK     1      13.417   6.955   7.285  1.00  0.00     0.273 C 
HETATM   20  N2  UNK     1      13.140   7.348   8.676  1.00  0.00     0.085 N 
HETATM   21  C5  UNK     1      12.077   8.361   8.760  1.00  0.00     0.291 C 
HETATM   22  C7  UNK     1      14.374   7.872   9.278  1.00  0.00     0.309 C 
ENDBRANCH   4  13
TORSDOF 1
ENDMDL
MODEL 3
REMARK VINA RESULT:      -7.7     17.332     19.758
REMARK  1 active torsions:
REMARK  status: ('A' for Active; 'I' for Inactive)
REMARK       I    between atoms: C6_12  and  N1_5 
REMARK    1  A    between atoms: C6_12  and  C8_14 
ROOT
HETATM    1 Cl1  UNK     1      17.890   0.065  38.034  1.00  0.00    -0.084 Cl
HETATM    2  O2  UNK     1      17.943   2.164  32.522  1.00  0.00    -0.274 OA
HETATM    3  O3  UNK     1      18.302   3.880  31.056  1.00  0.00    -0.259 OA
HETATM    4  C8  UNK     1      18.678   4.346  33.348  1.00  0.00     0.108 A 
HETATM    5  C9  UNK     1      18.676   3.900  34.610  1.00  0.00     0.037 A 
HETATM    6  C10 UNK     1      18.297   2.526  34.901  1.00  0.00     0.001 A 
HETATM    7  C11 UNK     1      18.302   3.474  32.213  1.00  0.00     0.304 A 
HETATM    8  C12 UNK     1      17.940   1.688  33.848  1.00  0.00     0.089 A 
HETATM    9  C13 UNK     1      18.281   2.017  36.202  1.00  0.00     0.038 A 
HETATM   10  C14 UNK     1      17.568   0.362  34.059  1.00  0.00     0.040 A 
HETATM   11  C15 UNK     1      17.910   0.688  36.429  1.00  0.00     0.035 A 
HETATM   12  C16 UNK     1      17.554  -0.137  35.359  1.00  0.00     0.026 A 
ENDROOT
BRANCH   4  13
HETATM   13  C6  UNK     1      19.077   5.757  33.156  1.00  0.00     0.260 C 
HETATM   14  O1  UNK     1      20.277   6.026  33.227  1.00  0.00    -0.267 OA
HETATM   15  N1  UNK     1      18.061   6.687  32.902  1.00  0.00    -0.346 N 
HETATM   16  C2  UNK     1      18.435   8.087  32.706  1.00  0.00     0.128 C 
HETATM   17  C4  UNK     1      16.640   6.325  32.840  1.00  0.00     0.156 C 
HETATM   18  C1  UNK     1      18.069   8.942  33.912  1.00  0.00     0.050 C 
HETATM   19  C3  UNK     1      16.602   9.376  33.945  1.00  0.00     0.273 C 
HETATM   20  N2  UNK     1      15.631   8.273  34.028  1.00  0.00     0.085 N 
HETATM   21  C5  UNK     1      15.616   7.462  32.800  1.00  0.00     0.291 C 
HETATM   22  C7  UNK     1      14.294   8.832  34.271  1.00  0.00     0.309 C 
ENDBRANCH   4  13
TORSDOF 1
ENDMDL
MODEL 4
REMARK VINA RESULT:      -7.7     12.416     14.744
REMARK  1 active torsions:
REMARK  status: ('A' for Active; 'I' for Inactive)
REMARK       I    between atoms: C6_12  and  N1_5 
REMARK    1  A    between atoms: C6_12  and  C8_14 
ROOT
HETATM    1 Cl1  UNK     1      16.649  10.912  10.242  1.00  0.00    -0.084 Cl
HETATM    2  O2  UNK     1      14.600   5.509   9.062  1.00  0.00    -0.274 OA
HETATM    3  O3  UNK     1      13.065   4.144   8.061  1.00  0.00    -0.259 OA
HETATM    4  C8  UNK     1      12.770   6.475   7.759  1.00  0.00     0.108 A 
HETATM    5  C9  UNK     1      13.209   7.714   8.009  1.00  0.00     0.037 A 
HETATM    6  C10 UNK     1      14.399   7.920   8.821  1.00  0.00     0.001 A 
HETATM    7  C11 UNK     1      13.465   5.281   8.288  1.00  0.00     0.304 A 
HETATM    8  C12 UNK     1      15.069   6.811   9.328  1.00  0.00     0.089 A 
HETATM    9  C13 UNK     1      14.895   9.195   9.107  1.00  0.00     0.038 A 
HETATM   10  C14 UNK     1      16.214   6.940  10.111  1.00  0.00     0.040 A 
HETATM   11  C15 UNK     1      16.043   9.339   9.891  1.00  0.00     0.035 A 
HETATM   12  C16 UNK     1      16.700   8.214  10.392  1.00  0.00     0.026 A 
ENDROOT
BRANCH   4  13
HETATM   13  C6  UNK     1      11.553   6.370   6.925  1.00  0.00     0.260 C 
HETATM   14  O1  UNK     1      11.663   6.611   5.722  1.00  0.00    -0.267 OA
HETATM   15  N1  UNK     1      10.362   6.001   7.564  1.00  0.00    -0.346 N 
HETATM   16  C2  UNK     1       9.148   5.889   6.756  1.00  0.00     0.128 C 
HETATM   17  C4  UNK     1      10.273   5.738   9.006  1.00  0.00     0.156 C 
HETATM   18  C1  UNK     1       8.197   7.053   7.005  1.00  0.00     0.050 C 
HETATM   19  C3  UNK     1       7.334   6.896   8.260  1.00  0.00     0.273 C 
HETATM   20  N2  UNK     1       8.086   6.820   9.523  1.00  0.00     0.085 N 
HETATM   21  C5  UNK     1       8.879   5.584   9.618  1.00  0.00     0.291 C 
HETATM   22  C7  UNK     1       7.141   6.891  10.645  1.00  0.00     0.309 C 
ENDBRANCH   4  13
TORSDOF 1
ENDMDL
MODEL 5
REMARK VINA RESULT:      -7.5     17.198     20.732
REMARK  1 active torsions:
REMARK  status: ('A' for Active; 'I' for Inactive)
REMARK       I    between atoms: C6_12  and  N1_5 
REMARK    1  A    between atoms: C6_12  and  C8_14 
ROOT
HETATM    1 Cl1  UNK     1      22.444   5.757  32.606  1.00  0.00    -0.084 Cl
HETATM    2  O2  UNK     1      16.976   7.005  30.781  1.00  0.00    -0.274 OA
HETATM    3  O3  UNK     1      14.868   7.773  31.213  1.00  0.00    -0.259 OA
HETATM    4  C8  UNK     1      16.385   7.756  33.032  1.00  0.00     0.108 A 
HETATM    5  C9  UNK     1      17.617   7.483  33.477  1.00  0.00     0.037 A 
HETATM    6  C10 UNK     1      18.620   6.942  32.573  1.00  0.00     0.001 A 
HETATM    7  C11 UNK     1      15.996   7.524  31.623  1.00  0.00     0.304 A 
HETATM    8  C12 UNK     1      18.276   6.716  31.243  1.00  0.00     0.089 A 
HETATM    9  C13 UNK     1      19.918   6.643  32.993  1.00  0.00     0.038 A 
HETATM   10  C14 UNK     1      19.189   6.201  30.326  1.00  0.00     0.040 A 
HETATM   11  C15 UNK     1      20.845   6.126  32.084  1.00  0.00     0.035 A 
HETATM   12  C16 UNK     1      20.481   5.905  30.753  1.00  0.00     0.026 A 
ENDROOT
BRANCH   4  13
HETATM   13  C6  UNK     1      15.437   8.302  34.028  1.00  0.00     0.260 C 
HETATM   14  O1  UNK     1      14.529   7.565  34.416  1.00  0.00    -0.267 OA
HETATM   15  N1  UNK     1      15.642   9.618  34.462  1.00  0.00    -0.346 N 
HETATM   16  C2  UNK     1      14.718  10.175  35.449  1.00  0.00     0.128 C 
HETATM   17  C4  UNK     1      16.730  10.468  33.961  1.00  0.00     0.156 C 
HETATM   18  C1  UNK     1      13.766  11.185  34.822  1.00  0.00     0.050 C 
HETATM   19  C3  UNK     1      14.366  12.582  34.648  1.00  0.00     0.273 C 
HETATM   20  N2  UNK     1      15.535  12.648  33.757  1.00  0.00     0.085 N 
HETATM   21  C5  UNK     1      16.700  11.954  34.327  1.00  0.00     0.291 C 
HETATM   22  C7  UNK     1      15.869  14.057  33.511  1.00  0.00     0.309 C 
ENDBRANCH   4  13
TORSDOF 1
ENDMDL
MODEL 6
REMARK VINA RESULT:      -7.3     17.856     19.485
REMARK  1 active torsions:
REMARK  status: ('A' for Active; 'I' for Inactive)
REMARK       I    between atoms: C6_12  and  N1_5 
REMARK    1  A    between atoms: C6_12  and  C8_14 
ROOT
HETATM    1 Cl1  UNK     1      20.954  -1.976  29.966  1.00  0.00    -0.084 Cl
HETATM    2  O2  UNK     1      18.319  -1.143  35.176  1.00  0.00    -0.274 OA
HETATM    3  O3  UNK     1      18.104  -1.650  37.394  1.00  0.00    -0.259 OA
HETATM    4  C8  UNK     1      19.761  -2.839  36.189  1.00  0.00     0.108 A 
HETATM    5  C9  UNK     1      20.378  -3.052  35.021  1.00  0.00     0.037 A 
HETATM    6  C10 UNK     1      19.987  -2.300  33.838  1.00  0.00     0.001 A 
HETATM    7  C11 UNK     1      18.672  -1.846  36.325  1.00  0.00     0.304 A 
HETATM    8  C12 UNK     1      18.966  -1.361  33.944  1.00  0.00     0.089 A 
HETATM    9  C13 UNK     1      20.604  -2.488  32.598  1.00  0.00     0.038 A 
HETATM   10  C14 UNK     1      18.545  -0.608  32.849  1.00  0.00     0.040 A 
HETATM   11  C15 UNK     1      20.192  -1.740  31.492  1.00  0.00     0.035 A 
HETATM   12  C16 UNK     1      19.165  -0.802  31.617  1.00  0.00     0.026 A 
ENDROOT
BRANCH   4  13
HETATM   13  C6  UNK     1      20.230  -3.652  37.332  1.00  0.00     0.260 C 
HETATM   14  O1  UNK     1      20.696  -3.056  38.304  1.00  0.00    -0.267 OA
HETATM   15  N1  UNK     1      20.106  -5.044  37.229  1.00  0.00    -0.346 N 
HETATM   16  C2  UNK     1      20.560  -5.866  38.350  1.00  0.00     0.128 C 
HETATM   17  C4  UNK     1      19.557  -5.714  36.044  1.00  0.00     0.156 C 
HETATM   18  C1  UNK     1      21.868  -6.578  38.031  1.00  0.00     0.050 C 
HETATM   19  C3  UNK     1      21.697  -7.858  37.209  1.00  0.00     0.273 C 
HETATM   20  N2  UNK     1      21.106  -7.662  35.876  1.00  0.00     0.085 N 
HETATM   21  C5  UNK     1      19.700  -7.236  35.955  1.00  0.00     0.291 C 
HETATM   22  C7  UNK     1      21.201  -8.920  35.123  1.00  0.00     0.309 C 
ENDBRANCH   4  13
TORSDOF 1
ENDMDL
MODEL 7
REMARK VINA RESULT:      -7.3     13.107     15.208
REMARK  1 active torsions:
REMARK  status: ('A' for Active; 'I' for Inactive)
REMARK       I    between atoms: C6_12  and  N1_5 
REMARK    1  A    between atoms: C6_12  and  C8_14 
ROOT
HETATM    1 Cl1  UNK     1       7.164   7.666   8.699  1.00  0.00    -0.084 Cl
HETATM    2  O2  UNK     1      12.574   5.716   7.389  1.00  0.00    -0.274 OA
HETATM    3  O3  UNK     1      14.826   5.702   7.776  1.00  0.00    -0.259 OA
HETATM    4  C8  UNK     1      13.517   7.098   9.172  1.00  0.00     0.108 A 
HETATM    5  C9  UNK     1      12.303   7.560   9.494  1.00  0.00     0.037 A 
HETATM    6  C10 UNK     1      11.130   7.112   8.759  1.00  0.00     0.001 A 
HETATM    7  C11 UNK     1      13.715   6.127   8.074  1.00  0.00     0.304 A 
HETATM    8  C12 UNK     1      11.293   6.198   7.723  1.00  0.00     0.089 A 
HETATM    9  C13 UNK     1       9.843   7.566   9.061  1.00  0.00     0.038 A 
HETATM   10  C14 UNK     1      10.211   5.728   6.981  1.00  0.00     0.040 A 
HETATM   11  C15 UNK     1       8.748   7.103   8.325  1.00  0.00     0.035 A 
HETATM   12  C16 UNK     1       8.932   6.186   7.288  1.00  0.00     0.026 A 
ENDROOT
BRANCH   4  13
HETATM   13  C6  UNK     1      14.646   7.615   9.977  1.00  0.00     0.260 C 
HETATM   14  O1  UNK     1      14.965   6.983  10.984  1.00  0.00    -0.267 OA
HETATM   15  N1  UNK     1      15.273   8.786   9.532  1.00  0.00    -0.346 N 
HETATM   16  C2  UNK     1      16.393   9.311  10.312  1.00  0.00     0.128 C 
HETATM   17  C4  UNK     1      14.849   9.517   8.332  1.00  0.00     0.156 C 
HETATM   18  C1  UNK     1      15.998  10.556  11.096  1.00  0.00     0.050 C 
HETATM   19  C3  UNK     1      16.016  11.844  10.269  1.00  0.00     0.273 C 
HETATM   20  N2  UNK     1      15.076  11.867   9.137  1.00  0.00     0.085 N 
HETATM   21  C5  UNK     1      15.453  10.903   8.091  1.00  0.00     0.291 C 
HETATM   22  C7  UNK     1      15.042  13.223   8.574  1.00  0.00     0.309 C 
ENDBRANCH   4  13
TORSDOF 1
ENDMDL
MODEL 8
REMARK VINA RESULT:      -7.2     23.291     24.411
REMARK  1 active torsions:
REMARK  status: ('A' for Active; 'I' for Inactive)
REMARK       I    between atoms: C6_12  and  N1_5 
REMARK    1  A    between atoms: C6_12  and  C8_14 
ROOT
HETATM    1 Cl1  UNK     1      26.813 -10.215  36.146  1.00  0.00    -0.084 Cl
HETATM    2  O2  UNK     1      28.515  -5.703  39.541  1.00  0.00    -0.274 OA
HETATM    3  O3  UNK     1      29.779  -3.826  39.860  1.00  0.00    -0.259 OA
HETATM    4  C8  UNK     1      30.010  -4.920  37.772  1.00  0.00     0.108 A 
HETATM    5  C9  UNK     1      29.645  -5.933  36.977  1.00  0.00     0.037 A 
HETATM    6  C10 UNK     1      28.670  -6.910  37.436  1.00  0.00     0.001 A 
HETATM    7  C11 UNK     1      29.446  -4.753  39.129  1.00  0.00     0.304 A 
HETATM    8  C12 UNK     1      28.126  -6.771  38.709  1.00  0.00     0.089 A 
HETATM    9  C13 UNK     1      28.258  -7.983  36.641  1.00  0.00     0.038 A 
HETATM   10  C14 UNK     1      27.186  -7.671  39.209  1.00  0.00     0.040 A 
HETATM   11  C15 UNK     1      27.316  -8.894  37.128  1.00  0.00     0.035 A 
HETATM   12  C16 UNK     1      26.782  -8.738  38.410  1.00  0.00     0.026 A 
ENDROOT
BRANCH   4  13
HETATM   13  C6  UNK     1      31.008  -3.981  37.215  1.00  0.00     0.260 C 
HETATM   14  O1  UNK     1      30.627  -2.845  36.931  1.00  0.00    -0.267 OA
HETATM   15  N1  UNK     1      32.317  -4.452  37.052  1.00  0.00    -0.346 N 
HETATM   16  C2  UNK     1      33.320  -3.538  36.505  1.00  0.00     0.128 C 
HETATM   17  C4  UNK     1      32.726  -5.821  37.388  1.00  0.00     0.156 C 
HETATM   18  C1  UNK     1      33.674  -3.886  35.066  1.00  0.00     0.050 C 
HETATM   19  C3  UNK     1      34.690  -5.023  34.931  1.00  0.00     0.273 C 
HETATM   20  N2  UNK     1      34.247  -6.317  35.475  1.00  0.00     0.085 N 
HETATM   21  C5  UNK     1      34.115  -6.282  36.940  1.00  0.00     0.291 C 
HETATM   22  C7  UNK     1      35.214  -7.353  35.088  1.00  0.00     0.309 C 
ENDBRANCH   4  13
TORSDOF 1
ENDMDL
MODEL 9
REMARK VINA RESULT:      -7.2     21.782     23.873
REMARK  1 active torsions:
REMARK  status: ('A' for Active; 'I' for Inactive)
REMARK       I    between atoms: C6_12  and  N1_5 
REMARK    1  A    between atoms: C6_12  and  C8_14 
ROOT
HETATM    1 Cl1  UNK     1      28.074  -7.233  39.703  1.00  0.00    -0.084 Cl
HETATM    2  O2  UNK     1      31.754  -3.741  36.695  1.00  0.00    -0.274 OA
HETATM    3  O3  UNK     1      33.704  -3.438  35.542  1.00  0.00    -0.259 OA
HETATM    4  C8  UNK     1      33.296  -5.614  36.385  1.00  0.00     0.108 A 
HETATM    5  C9  UNK     1      32.483  -6.432  37.063  1.00  0.00     0.037 A 
HETATM    6  C10 UNK     1      31.229  -5.933  37.607  1.00  0.00     0.001 A 
HETATM    7  C11 UNK     1      32.960  -4.190  36.162  1.00  0.00     0.304 A 
HETATM    8  C12 UNK     1      30.893  -4.598  37.409  1.00  0.00     0.089 A 
HETATM    9  C13 UNK     1      30.349  -6.751  38.321  1.00  0.00     0.038 A 
HETATM   10  C14 UNK     1      29.707  -4.058  37.903  1.00  0.00     0.040 A 
HETATM   11  C15 UNK     1      29.156  -6.223  38.823  1.00  0.00     0.035 A 
HETATM   12  C16 UNK     1      28.836  -4.879  38.614  1.00  0.00     0.026 A 
ENDROOT
BRANCH   4  13
HETATM   13  C6  UNK     1      34.547  -6.215  35.873  1.00  0.00     0.260 C 
HETATM   14  O1  UNK     1      35.592  -5.953  36.469  1.00  0.00    -0.267 OA
HETATM   15  N1  UNK     1      34.452  -7.043  34.747  1.00  0.00    -0.346 N 
HETATM   16  C2  UNK     1      35.677  -7.649  34.227  1.00  0.00     0.128 C 
HETATM   17  C4  UNK     1      33.186  -7.316  34.056  1.00  0.00     0.156 C 
HETATM   18  C1  UNK     1      36.130  -6.983  32.934  1.00  0.00     0.050 C 
HETATM   19  C3  UNK     1      35.397  -7.481  31.686  1.00  0.00     0.273 C 
HETATM   20  N2  UNK     1      33.946  -7.236  31.681  1.00  0.00     0.085 N 
HETATM   21  C5  UNK     1      33.251  -8.033  32.705  1.00  0.00     0.291 C 
HETATM   22  C7  UNK     1      33.412  -7.561  30.352  1.00  0.00     0.309 C 
ENDBRANCH   4  13
TORSDOF 1
ENDMDL
MODEL 10
REMARK VINA RESULT:      -7.2     12.480     14.273
REMARK  1 active torsions:
REMARK  status: ('A' for Active; 'I' for Inactive)
REMARK       I    between atoms: C6_12  and  N1_5 
REMARK    1  A    between atoms: C6_12  and  C8_14 
ROOT
HETATM    1 Cl1  UNK     1      19.220  12.409   7.695  1.00  0.00    -0.084 Cl
HETATM    2  O2  UNK     1      15.066  10.716  11.524  1.00  0.00    -0.274 OA
HETATM    3  O3  UNK     1      13.659   9.114  12.346  1.00  0.00    -0.259 OA
HETATM    4  C8  UNK     1      15.038   8.484  10.526  1.00  0.00     0.108 A 
HETATM    5  C9  UNK     1      15.980   8.837   9.643  1.00  0.00     0.037 A 
HETATM    6  C10 UNK     1      16.528  10.185   9.655  1.00  0.00     0.001 A 
HETATM    7  C11 UNK     1      14.523   9.434  11.536  1.00  0.00     0.304 A 
HETATM    8  C12 UNK     1      16.058  11.094  10.598  1.00  0.00     0.089 A 
HETATM    9  C13 UNK     1      17.513  10.598   8.754  1.00  0.00     0.038 A 
HETATM   10  C14 UNK     1      16.542  12.399  10.664  1.00  0.00     0.040 A 
HETATM   11  C15 UNK     1      18.008  11.904   8.808  1.00  0.00     0.035 A 
HETATM   12  C16 UNK     1      17.523  12.802   9.762  1.00  0.00     0.026 A 
ENDROOT
BRANCH   4  13
HETATM   13  C6  UNK     1      14.544   7.093  10.431  1.00  0.00     0.260 C 
HETATM   14  O1  UNK     1      15.238   6.206  10.929  1.00  0.00    -0.267 OA
HETATM   15  N1  UNK     1      13.320   6.885   9.784  1.00  0.00    -0.346 N 
HETATM   16  C2  UNK     1      12.812   5.517   9.683  1.00  0.00     0.128 C 
HETATM   17  C4  UNK     1      12.531   7.972   9.190  1.00  0.00     0.156 C 
HETATM   18  C1  UNK     1      12.949   4.969   8.268  1.00  0.00     0.050 C 
HETATM   19  C3  UNK     1      11.836   5.414   7.317  1.00  0.00     0.273 C 
HETATM   20  N2  UNK     1      11.757   6.866   7.092  1.00  0.00     0.085 N 
HETATM   21  C5  UNK     1      11.342   7.589   8.305  1.00  0.00     0.291 C 
HETATM   22  C7  UNK     1      10.803   7.130   6.007  1.00  0.00     0.309 C 
ENDBRANCH   4  13
TORSDOF 1
ENDMDL
