MODEL 1
REMARK VINA RESULT:      -7.3      0.000      0.000
REMARK  8 active torsions:
REMARK  status: ('A' for Active; 'I' for Inactive)
REMARK    1  A    between atoms: C2_8  and  S1_4 
REMARK    2  A    between atoms: C6_12  and  S1_4 
REMARK    3  A    between atoms: C1_7  and  N1_6 
REMARK       I    between atoms: C5_11  and  N1_6 
REMARK    4  A    between atoms: C1_7  and  C2_8 
REMARK    5  A    between atoms: C3_9  and  C4_10 
REMARK    6  A    between atoms: C3_9  and  C5_11 
REMARK    7  A    between atoms: C6_12  and  C7_13 
REMARK    8  A    between atoms: C8_14  and  C9_15 
ROOT
HETATM    1  O1  UNK     1      33.114  -8.473  33.988  1.00  0.00    -0.268 OA
HETATM    2  N1  UNK     1      32.743  -6.206  34.238  1.00  0.00    -0.356 N 
HETATM    3  C5  UNK     1      32.378  -7.494  33.880  1.00  0.00     0.252 C 
HETATM    4  H5  UNK     1      32.102  -5.429  34.124  1.00  0.00     0.162 HD
ENDROOT
BRANCH   3   5
HETATM    5  C3  UNK     1      30.975  -7.614  33.342  1.00  0.00     0.043 C 
HETATM    6  C8  UNK     1      30.829  -7.418  32.015  1.00  0.00     0.031 C 
BRANCH   5   7
HETATM    7  C4  UNK     1      29.827  -7.907  34.221  1.00  0.00    -0.021 A 
HETATM    8  C10 UNK     1      29.086  -6.859  34.738  1.00  0.00     0.012 A 
HETATM    9  C16 UNK     1      28.000  -7.136  35.568  1.00  0.00     0.001 A 
HETATM   10  C20 UNK     1      27.672  -8.458  35.871  1.00  0.00     0.000 A 
HETATM   11  C17 UNK     1      28.430  -9.502  35.342  1.00  0.00     0.001 A 
HETATM   12  C11 UNK     1      29.516  -9.225  34.511  1.00  0.00     0.012 A 
ENDBRANCH   5   7
BRANCH   6  13
HETATM   13  C9  UNK     1      29.559  -7.452  31.275  1.00  0.00    -0.013 A 
HETATM   14  C14 UNK     1      28.831  -6.298  31.019  1.00  0.00     0.044 A 
HETATM   15 Cl3  UNK     1      29.356  -4.737  31.545  1.00  0.00    -0.083 Cl
HETATM   16  C22 UNK     1      27.631  -6.384  30.313  1.00  0.00     0.024 A 
HETATM   17  C24 UNK     1      27.170  -7.623  29.869  1.00  0.00     0.002 A 
HETATM   18  C23 UNK     1      27.909  -8.777  30.131  1.00  0.00     0.001 A 
HETATM   19  C15 UNK     1      29.109  -8.692  30.837  1.00  0.00     0.013 A 
ENDBRANCH   6  13
ENDBRANCH   3   5
BRANCH   2  20
HETATM   20  C1  UNK     1      34.046  -5.896  34.781  1.00  0.00     0.133 C 
BRANCH  20  21
HETATM   21  C2  UNK     1      33.989  -4.912  35.941  1.00  0.00     0.093 C 
BRANCH  21  22
HETATM   22  S1  UNK     1      32.282  -4.459  36.375  1.00  0.00    -0.163 SA
BRANCH  22  23
HETATM   23  C6  UNK     1      32.278  -5.070  38.076  1.00  0.00     0.116 C 
BRANCH  23  24
HETATM   24  C7  UNK     1      31.165  -6.052  38.324  1.00  0.00    -0.005 A 
HETATM   25  C12 UNK     1      29.941  -5.602  38.811  1.00  0.00     0.042 A 
HETATM   26 Cl1  UNK     1      29.655  -3.932  39.145  1.00  0.00    -0.084 Cl
HETATM   27  C18 UNK     1      28.909  -6.513  39.041  1.00  0.00     0.024 A 
HETATM   28  C21 UNK     1      29.105  -7.869  38.782  1.00  0.00     0.003 A 
HETATM   29  C19 UNK     1      30.333  -8.315  38.294  1.00  0.00     0.024 A 
HETATM   30  C13 UNK     1      31.365  -7.405  38.064  1.00  0.00     0.042 A 
HETATM   31 Cl2  UNK     1      32.868  -8.001  37.456  1.00  0.00    -0.084 Cl
ENDBRANCH  23  24
ENDBRANCH  22  23
ENDBRANCH  21  22
ENDBRANCH  20  21
ENDBRANCH   2  20
TORSDOF 8
ENDMDL
MODEL 2
REMARK VINA RESULT:      -7.2      9.937     13.074
REMARK  8 active torsions:
REMARK  status: ('A' for Active; 'I' for Inactive)
REMARK    1  A    between atoms: C2_8  and  S1_4 
REMARK    2  A    between atoms: C6_12  and  S1_4 
REMARK    3  A    between atoms: C1_7  and  N1_6 
REMARK       I    between atoms: C5_11  and  N1_6 
REMARK    4  A    between atoms: C1_7  and  C2_8 
REMARK    5  A    between atoms: C3_9  and  C4_10 
REMARK    6  A    between atoms: C3_9  and  C5_11 
REMARK    7  A    between atoms: C6_12  and  C7_13 
REMARK    8  A    between atoms: C8_14  and  C9_15 
ROOT
HETATM    1  O1  UNK     1      21.414  -2.706  36.089  1.00  0.00    -0.268 OA
HETATM    2  N1  UNK     1      19.112  -2.553  36.225  1.00  0.00    -0.356 N 
HETATM    3  C5  UNK     1      20.326  -3.205  36.373  1.00  0.00     0.252 C 
HETATM    4  H5  UNK     1      18.240  -3.010  36.468  1.00  0.00     0.162 HD
ENDROOT
BRANCH   3   5
HETATM    5  C3  UNK     1      20.216  -4.602  36.929  1.00  0.00     0.043 C 
HETATM    6  C8  UNK     1      21.024  -4.891  37.970  1.00  0.00     0.031 C 
BRANCH   5   7
HETATM    7  C4  UNK     1      19.295  -5.600  36.351  1.00  0.00    -0.021 A 
HETATM    8  C10 UNK     1      19.766  -6.480  35.393  1.00  0.00     0.012 A 
HETATM    9  C16 UNK     1      18.895  -7.424  34.848  1.00  0.00     0.001 A 
HETATM   10  C20 UNK     1      17.565  -7.472  35.269  1.00  0.00     0.000 A 
HETATM   11  C17 UNK     1      17.108  -6.577  36.235  1.00  0.00     0.001 A 
HETATM   12  C11 UNK     1      17.979  -5.633  36.781  1.00  0.00     0.012 A 
ENDBRANCH   5   7
BRANCH   6  13
HETATM   13  C9  UNK     1      21.114  -6.190  38.654  1.00  0.00    -0.013 A 
HETATM   14  C14 UNK     1      22.322  -6.683  39.128  1.00  0.00     0.044 A 
HETATM   15 Cl3  UNK     1      23.808  -5.815  38.955  1.00  0.00    -0.083 Cl
HETATM   16  C22 UNK     1      22.356  -7.922  39.769  1.00  0.00     0.024 A 
HETATM   17  C24 UNK     1      21.182  -8.656  39.930  1.00  0.00     0.002 A 
HETATM   18  C23 UNK     1      19.972  -8.151  39.450  1.00  0.00     0.001 A 
HETATM   19  C15 UNK     1      19.938  -6.913  38.809  1.00  0.00     0.013 A 
ENDBRANCH   6  13
ENDBRANCH   3   5
BRANCH   2  20
HETATM   20  C1  UNK     1      19.017  -1.205  35.715  1.00  0.00     0.133 C 
BRANCH  20  21
HETATM   21  C2  UNK     1      17.623  -0.856  35.210  1.00  0.00     0.093 C 
BRANCH  21  22
HETATM   22  S1  UNK     1      17.512  -0.926  33.396  1.00  0.00    -0.163 SA
BRANCH  22  23
HETATM   23  C6  UNK     1      18.997   0.027  33.009  1.00  0.00     0.116 C 
BRANCH  23  24
HETATM   24  C7  UNK     1      19.489  -0.231  31.611  1.00  0.00    -0.005 A 
HETATM   25  C12 UNK     1      19.237   0.698  30.606  1.00  0.00     0.042 A 
HETATM   26 Cl1  UNK     1      18.366   2.157  30.915  1.00  0.00    -0.084 Cl
HETATM   27  C18 UNK     1      19.694   0.458  29.310  1.00  0.00     0.024 A 
HETATM   28  C21 UNK     1      20.401  -0.709  29.024  1.00  0.00     0.003 A 
HETATM   29  C19 UNK     1      20.651  -1.638  30.034  1.00  0.00     0.024 A 
HETATM   30  C13 UNK     1      20.194  -1.398  31.330  1.00  0.00     0.042 A 
HETATM   31 Cl2  UNK     1      20.529  -2.574  32.551  1.00  0.00    -0.084 Cl
ENDBRANCH  23  24
ENDBRANCH  22  23
ENDBRANCH  21  22
ENDBRANCH  20  21
ENDBRANCH   2  20
TORSDOF 8
ENDMDL
MODEL 3
REMARK VINA RESULT:      -7.1      2.232      3.245
REMARK  8 active torsions:
REMARK  status: ('A' for Active; 'I' for Inactive)
REMARK    1  A    between atoms: C2_8  and  S1_4 
REMARK    2  A    between atoms: C6_12  and  S1_4 
REMARK    3  A    between atoms: C1_7  and  N1_6 
REMARK       I    between atoms: C5_11  and  N1_6 
REMARK    4  A    between atoms: C1_7  and  C2_8 
REMARK    5  A    between atoms: C3_9  and  C4_10 
REMARK    6  A    between atoms: C3_9  and  C5_11 
REMARK    7  A    between atoms: C6_12  and  C7_13 
REMARK    8  A    between atoms: C8_14  and  C9_15 
ROOT
HETATM    1  O1  UNK     1      32.008  -5.144  34.200  1.00  0.00    -0.268 OA
HETATM    2  N1  UNK     1      30.605  -5.226  36.034  1.00  0.00    -0.356 N 
HETATM    3  C5  UNK     1      30.966  -5.526  34.731  1.00  0.00     0.252 C 
HETATM    4  H5  UNK     1      29.731  -5.559  36.426  1.00  0.00     0.162 HD
ENDROOT
BRANCH   3   5
HETATM    5  C3  UNK     1      29.969  -6.382  33.992  1.00  0.00     0.043 C 
HETATM    6  C8  UNK     1      29.839  -6.138  32.672  1.00  0.00     0.031 C 
BRANCH   5   7
HETATM    7  C4  UNK     1      29.168  -7.412  34.681  1.00  0.00    -0.021 A 
HETATM    8  C10 UNK     1      28.260  -7.026  35.652  1.00  0.00     0.012 A 
HETATM    9  C16 UNK     1      27.501  -8.000  36.302  1.00  0.00     0.001 A 
HETATM   10  C20 UNK     1      27.664  -9.346  35.973  1.00  0.00     0.000 A 
HETATM   11  C17 UNK     1      28.584  -9.717  34.993  1.00  0.00     0.001 A 
HETATM   12  C11 UNK     1      29.342  -8.744  34.342  1.00  0.00     0.012 A 
ENDBRANCH   5   7
BRANCH   6  13
HETATM   13  C9  UNK     1      28.911  -6.821  31.758  1.00  0.00    -0.013 A 
HETATM   14  C14 UNK     1      29.308  -7.908  30.992  1.00  0.00     0.044 A 
HETATM   15 Cl3  UNK     1      30.916  -8.543  31.051  1.00  0.00    -0.083 Cl
HETATM   16  C22 UNK     1      28.390  -8.521  30.139  1.00  0.00     0.024 A 
HETATM   17  C24 UNK     1      27.084  -8.042  30.060  1.00  0.00     0.002 A 
HETATM   18  C23 UNK     1      26.694  -6.949  30.835  1.00  0.00     0.001 A 
HETATM   19  C15 UNK     1      27.611  -6.335  31.687  1.00  0.00     0.013 A 
ENDBRANCH   6  13
ENDBRANCH   3   5
BRANCH   2  20
HETATM   20  C1  UNK     1      31.438  -4.423  36.901  1.00  0.00     0.133 C 
BRANCH  20  21
HETATM   21  C2  UNK     1      31.698  -5.077  38.251  1.00  0.00     0.093 C 
BRANCH  21  22
HETATM   22  S1  UNK     1      31.085  -6.788  38.315  1.00  0.00    -0.163 SA
BRANCH  22  23
HETATM   23  C6  UNK     1      32.676  -7.638  38.210  1.00  0.00     0.116 C 
BRANCH  23  24
HETATM   24  C7  UNK     1      32.996  -8.074  36.807  1.00  0.00    -0.005 A 
HETATM   25  C12 UNK     1      33.925  -7.362  36.055  1.00  0.00     0.042 A 
HETATM   26 Cl1  UNK     1      34.734  -5.974  36.689  1.00  0.00    -0.084 Cl
HETATM   27  C18 UNK     1      34.222  -7.768  34.754  1.00  0.00     0.024 A 
HETATM   28  C21 UNK     1      33.589  -8.884  34.209  1.00  0.00     0.003 A 
HETATM   29  C19 UNK     1      32.657  -9.596  34.966  1.00  0.00     0.024 A 
HETATM   30  C13 UNK     1      32.361  -9.190  36.268  1.00  0.00     0.042 A 
HETATM   31 Cl2  UNK     1      31.203 -10.102  37.170  1.00  0.00    -0.084 Cl
ENDBRANCH  23  24
ENDBRANCH  22  23
ENDBRANCH  21  22
ENDBRANCH  20  21
ENDBRANCH   2  20
TORSDOF 8
ENDMDL
MODEL 4
REMARK VINA RESULT:      -7.1      2.542      5.441
REMARK  8 active torsions:
REMARK  status: ('A' for Active; 'I' for Inactive)
REMARK    1  A    between atoms: C2_8  and  S1_4 
REMARK    2  A    between atoms: C6_12  and  S1_4 
REMARK    3  A    between atoms: C1_7  and  N1_6 
REMARK       I    between atoms: C5_11  and  N1_6 
REMARK    4  A    between atoms: C1_7  and  C2_8 
REMARK    5  A    between atoms: C3_9  and  C4_10 
REMARK    6  A    between atoms: C3_9  and  C5_11 
REMARK    7  A    between atoms: C6_12  and  C7_13 
REMARK    8  A    between atoms: C8_14  and  C9_15 
ROOT
HETATM    1  O1  UNK     1      28.722  -9.119  32.969  1.00  0.00    -0.268 OA
HETATM    2  N1  UNK     1      29.104  -8.717  35.213  1.00  0.00    -0.356 N 
HETATM    3  C5  UNK     1      29.372  -8.575  33.860  1.00  0.00     0.252 C 
HETATM    4  H5  UNK     1      29.674  -8.252  35.911  1.00  0.00     0.162 HD
ENDROOT
BRANCH   3   5
HETATM    5  C3  UNK     1      30.542  -7.676  33.551  1.00  0.00     0.043 C 
HETATM    6  C8  UNK     1      31.311  -7.320  34.601  1.00  0.00     0.031 C 
BRANCH   5   7
HETATM    7  C4  UNK     1      30.815  -7.197  32.182  1.00  0.00    -0.021 A 
HETATM    8  C10 UNK     1      31.750  -7.861  31.407  1.00  0.00     0.012 A 
HETATM    9  C16 UNK     1      32.007  -7.410  30.113  1.00  0.00     0.001 A 
HETATM   10  C20 UNK     1      31.326  -6.299  29.613  1.00  0.00     0.000 A 
HETATM   11  C17 UNK     1      30.388  -5.642  30.408  1.00  0.00     0.001 A 
HETATM   12  C11 UNK     1      30.130  -6.094  31.703  1.00  0.00     0.012 A 
ENDBRANCH   5   7
BRANCH   6  13
HETATM   13  C9  UNK     1      32.480  -6.430  34.548  1.00  0.00    -0.013 A 
HETATM   14  C14 UNK     1      33.768  -6.925  34.397  1.00  0.00     0.044 A 
HETATM   15 Cl3  UNK     1      34.099  -8.616  34.258  1.00  0.00    -0.083 Cl
HETATM   16  C22 UNK     1      34.845  -6.039  34.353  1.00  0.00     0.024 A 
HETATM   17  C24 UNK     1      34.624  -4.667  34.462  1.00  0.00     0.002 A 
HETATM   18  C23 UNK     1      33.325  -4.179  34.613  1.00  0.00     0.001 A 
HETATM   19  C15 UNK     1      32.249  -5.064  34.657  1.00  0.00     0.013 A 
ENDBRANCH   6  13
ENDBRANCH   3   5
BRANCH   2  20
HETATM   20  C1  UNK     1      28.016  -9.532  35.703  1.00  0.00     0.133 C 
BRANCH  20  21
HETATM   21  C2  UNK     1      27.384  -8.981  36.973  1.00  0.00     0.093 C 
BRANCH  21  22
HETATM   22  S1  UNK     1      27.735  -7.211  37.204  1.00  0.00    -0.163 SA
BRANCH  22  23
HETATM   23  C6  UNK     1      28.719  -7.336  38.714  1.00  0.00     0.116 C 
BRANCH  23  24
HETATM   24  C7  UNK     1      30.149  -6.925  38.495  1.00  0.00    -0.005 A 
HETATM   25  C12 UNK     1      31.122  -7.895  38.273  1.00  0.00     0.042 A 
HETATM   26 Cl1  UNK     1      30.735  -9.578  38.239  1.00  0.00    -0.084 Cl
HETATM   27  C18 UNK     1      32.449  -7.513  38.070  1.00  0.00     0.024 A 
HETATM   28  C21 UNK     1      32.797  -6.163  38.091  1.00  0.00     0.003 A 
HETATM   29  C19 UNK     1      31.819  -5.194  38.315  1.00  0.00     0.024 A 
HETATM   30  C13 UNK     1      30.492  -5.576  38.517  1.00  0.00     0.042 A 
HETATM   31 Cl2  UNK     1      29.313  -4.342  38.788  1.00  0.00    -0.084 Cl
ENDBRANCH  23  24
ENDBRANCH  22  23
ENDBRANCH  21  22
ENDBRANCH  20  21
ENDBRANCH   2  20
TORSDOF 8
ENDMDL
MODEL 5
REMARK VINA RESULT:      -7.0      1.381      2.223
REMARK  8 active torsions:
REMARK  status: ('A' for Active; 'I' for Inactive)
REMARK    1  A    between atoms: C2_8  and  S1_4 
REMARK    2  A    between atoms: C6_12  and  S1_4 
REMARK    3  A    between atoms: C1_7  and  N1_6 
REMARK       I    between atoms: C5_11  and  N1_6 
REMARK    4  A    between atoms: C1_7  and  C2_8 
REMARK    5  A    between atoms: C3_9  and  C4_10 
REMARK    6  A    between atoms: C3_9  and  C5_11 
REMARK    7  A    between atoms: C6_12  and  C7_13 
REMARK    8  A    between atoms: C8_14  and  C9_15 
ROOT
HETATM    1  O1  UNK     1      32.332 -10.374  34.048  1.00  0.00    -0.268 OA
HETATM    2  N1  UNK     1      32.897  -8.135  34.125  1.00  0.00    -0.356 N 
HETATM    3  C5  UNK     1      32.029  -9.192  33.903  1.00  0.00     0.252 C 
HETATM    4  H5  UNK     1      32.601  -7.175  33.984  1.00  0.00     0.162 HD
ENDROOT
BRANCH   3   5
HETATM    5  C3  UNK     1      30.646  -8.777  33.468  1.00  0.00     0.043 C 
HETATM    6  C8  UNK     1      30.507  -8.448  32.167  1.00  0.00     0.031 C 
BRANCH   5   7
HETATM    7  C4  UNK     1      29.518  -8.714  34.417  1.00  0.00    -0.021 A 
HETATM    8  C10 UNK     1      29.218  -7.511  35.032  1.00  0.00     0.012 A 
HETATM    9  C16 UNK     1      28.150  -7.451  35.928  1.00  0.00     0.001 A 
HETATM   10  C20 UNK     1      27.399  -8.597  36.196  1.00  0.00     0.000 A 
HETATM   11  C17 UNK     1      27.716  -9.800  35.568  1.00  0.00     0.001 A 
HETATM   12  C11 UNK     1      28.784  -9.860  34.671  1.00  0.00     0.012 A 
ENDBRANCH   5   7
BRANCH   6  13
HETATM   13  C9  UNK     1      29.268  -7.985  31.524  1.00  0.00    -0.013 A 
HETATM   14  C14 UNK     1      28.927  -6.641  31.478  1.00  0.00     0.044 A 
HETATM   15 Cl3  UNK     1      29.925  -5.409  32.167  1.00  0.00    -0.083 Cl
HETATM   16  C22 UNK     1      27.739  -6.253  30.857  1.00  0.00     0.024 A 
HETATM   17  C24 UNK     1      26.904  -7.213  30.288  1.00  0.00     0.002 A 
HETATM   18  C23 UNK     1      27.256  -8.563  30.339  1.00  0.00     0.001 A 
HETATM   19  C15 UNK     1      28.443  -8.951  30.960  1.00  0.00     0.013 A 
ENDBRANCH   6  13
ENDBRANCH   3   5
BRANCH   2  20
HETATM   20  C1  UNK     1      34.262  -8.335  34.554  1.00  0.00     0.133 C 
BRANCH  20  21
HETATM   21  C2  UNK     1      34.948  -7.044  34.981  1.00  0.00     0.093 C 
BRANCH  21  22
HETATM   22  S1  UNK     1      33.820  -5.619  34.934  1.00  0.00    -0.163 SA
BRANCH  22  23
HETATM   23  C6  UNK     1      33.793  -5.252  36.703  1.00  0.00     0.116 C 
BRANCH  23  24
HETATM   24  C7  UNK     1      32.399  -5.288  37.269  1.00  0.00    -0.005 A 
HETATM   25  C12 UNK     1      31.922  -6.454  37.860  1.00  0.00     0.042 A 
HETATM   26 Cl1  UNK     1      32.890  -7.881  37.964  1.00  0.00    -0.084 Cl
HETATM   27  C18 UNK     1      30.630  -6.487  38.385  1.00  0.00     0.024 A 
HETATM   28  C21 UNK     1      29.821  -5.353  38.319  1.00  0.00     0.003 A 
HETATM   29  C19 UNK     1      30.303  -4.186  37.726  1.00  0.00     0.024 A 
HETATM   30  C13 UNK     1      31.595  -4.154  37.200  1.00  0.00     0.042 A 
HETATM   31 Cl2  UNK     1      32.152  -2.686  36.478  1.00  0.00    -0.084 Cl
ENDBRANCH  23  24
ENDBRANCH  22  23
ENDBRANCH  21  22
ENDBRANCH  20  21
ENDBRANCH   2  20
TORSDOF 8
ENDMDL
MODEL 6
REMARK VINA RESULT:      -7.0      1.815      2.454
REMARK  8 active torsions:
REMARK  status: ('A' for Active; 'I' for Inactive)
REMARK    1  A    between atoms: C2_8  and  S1_4 
REMARK    2  A    between atoms: C6_12  and  S1_4 
REMARK    3  A    between atoms: C1_7  and  N1_6 
REMARK       I    between atoms: C5_11  and  N1_6 
REMARK    4  A    between atoms: C1_7  and  C2_8 
REMARK    5  A    between atoms: C3_9  and  C4_10 
REMARK    6  A    between atoms: C3_9  and  C5_11 
REMARK    7  A    between atoms: C6_12  and  C7_13 
REMARK    8  A    between atoms: C8_14  and  C9_15 
ROOT
HETATM    1  O1  UNK     1      31.722  -4.348  33.973  1.00  0.00    -0.268 OA
HETATM    2  N1  UNK     1      33.014  -6.255  33.788  1.00  0.00    -0.356 N 
HETATM    3  C5  UNK     1      31.825  -5.546  33.719  1.00  0.00     0.252 C 
HETATM    4  H5  UNK     1      33.046  -7.246  33.575  1.00  0.00     0.162 HD
ENDROOT
BRANCH   3   5
HETATM    5  C3  UNK     1      30.636  -6.370  33.292  1.00  0.00     0.043 C 
HETATM    6  C8  UNK     1      30.299  -6.293  31.988  1.00  0.00     0.031 C 
BRANCH   5   7
HETATM    7  C4  UNK     1      29.875  -7.194  34.251  1.00  0.00    -0.021 A 
HETATM    8  C10 UNK     1      28.652  -6.739  34.712  1.00  0.00     0.012 A 
HETATM    9  C16 UNK     1      27.932  -7.518  35.617  1.00  0.00     0.001 A 
HETATM   10  C20 UNK     1      28.447  -8.741  36.049  1.00  0.00     0.000 A 
HETATM   11  C17 UNK     1      29.681  -9.184  35.575  1.00  0.00     0.001 A 
HETATM   12  C11 UNK     1      30.401  -8.405  34.668  1.00  0.00     0.012 A 
ENDBRANCH   5   7
BRANCH   6  13
HETATM   13  C9  UNK     1      29.164  -6.978  31.351  1.00  0.00    -0.013 A 
HETATM   14  C14 UNK     1      29.257  -8.290  30.910  1.00  0.00     0.044 A 
HETATM   15 Cl3  UNK     1      30.705  -9.221  31.073  1.00  0.00    -0.083 Cl
HETATM   16  C22 UNK     1      28.152  -8.895  30.311  1.00  0.00     0.024 A 
HETATM   17  C24 UNK     1      26.964  -8.182  30.159  1.00  0.00     0.002 A 
HETATM   18  C23 UNK     1      26.880  -6.863  30.606  1.00  0.00     0.001 A 
HETATM   19  C15 UNK     1      27.984  -6.258  31.204  1.00  0.00     0.013 A 
ENDBRANCH   6  13
ENDBRANCH   3   5
BRANCH   2  20
HETATM   20  C1  UNK     1      34.261  -5.634  34.171  1.00  0.00     0.133 C 
BRANCH  20  21
HETATM   21  C2  UNK     1      35.012  -6.416  35.240  1.00  0.00     0.093 C 
BRANCH  21  22
HETATM   22  S1  UNK     1      33.899  -7.428  36.261  1.00  0.00    -0.163 SA
BRANCH  22  23
HETATM   23  C6  UNK     1      33.613  -6.237  37.589  1.00  0.00     0.116 C 
BRANCH  23  24
HETATM   24  C7  UNK     1      32.153  -5.916  37.759  1.00  0.00    -0.005 A 
HETATM   25  C12 UNK     1      31.291  -6.871  38.289  1.00  0.00     0.042 A 
HETATM   26 Cl1  UNK     1      31.849  -8.434  38.764  1.00  0.00    -0.084 Cl
HETATM   27  C18 UNK     1      29.937  -6.572  38.447  1.00  0.00     0.024 A 
HETATM   28  C21 UNK     1      29.451  -5.319  38.075  1.00  0.00     0.003 A 
HETATM   29  C19 UNK     1      30.319  -4.365  37.543  1.00  0.00     0.024 A 
HETATM   30  C13 UNK     1      31.673  -4.664  37.386  1.00  0.00     0.042 A 
HETATM   31 Cl2  UNK     1      32.711  -3.451  36.726  1.00  0.00    -0.084 Cl
ENDBRANCH  23  24
ENDBRANCH  22  23
ENDBRANCH  21  22
ENDBRANCH  20  21
ENDBRANCH   2  20
TORSDOF 8
ENDMDL
MODEL 7
REMARK VINA RESULT:      -7.0      2.217      3.784
REMARK  8 active torsions:
REMARK  status: ('A' for Active; 'I' for Inactive)
REMARK    1  A    between atoms: C2_8  and  S1_4 
REMARK    2  A    between atoms: C6_12  and  S1_4 
REMARK    3  A    between atoms: C1_7  and  N1_6 
REMARK       I    between atoms: C5_11  and  N1_6 
REMARK    4  A    between atoms: C1_7  and  C2_8 
REMARK    5  A    between atoms: C3_9  and  C4_10 
REMARK    6  A    between atoms: C3_9  and  C5_11 
REMARK    7  A    between atoms: C6_12  and  C7_13 
REMARK    8  A    between atoms: C8_14  and  C9_15 
ROOT
HETATM    1  O1  UNK     1      28.515  -8.711  36.966  1.00  0.00    -0.268 OA
HETATM    2  N1  UNK     1      28.154  -6.430  36.870  1.00  0.00    -0.356 N 
HETATM    3  C5  UNK     1      28.461  -7.665  36.321  1.00  0.00     0.252 C 
HETATM    4  H5  UNK     1      28.128  -5.594  36.297  1.00  0.00     0.162 HD
ENDROOT
BRANCH   3   5
HETATM    5  C3  UNK     1      28.725  -7.635  34.837  1.00  0.00     0.043 C 
HETATM    6  C8  UNK     1      28.227  -6.575  34.167  1.00  0.00     0.031 C 
BRANCH   5   7
HETATM    7  C4  UNK     1      29.464  -8.716  34.156  1.00  0.00    -0.021 A 
HETATM    8  C10 UNK     1      28.759  -9.737  33.544  1.00  0.00     0.012 A 
HETATM    9  C16 UNK     1      29.458 -10.758  32.900  1.00  0.00     0.001 A 
HETATM   10  C20 UNK     1      30.854 -10.741  32.877  1.00  0.00     0.000 A 
HETATM   11  C17 UNK     1      31.548  -9.704  33.499  1.00  0.00     0.001 A 
HETATM   12  C11 UNK     1      30.849  -8.683  34.144  1.00  0.00     0.012 A 
ENDBRANCH   5   7
BRANCH   6  13
HETATM   13  C9  UNK     1      28.330  -6.348  32.718  1.00  0.00    -0.013 A 
HETATM   14  C14 UNK     1      29.449  -5.755  32.149  1.00  0.00     0.044 A 
HETATM   15 Cl3  UNK     1      30.804  -5.241  33.092  1.00  0.00    -0.083 Cl
HETATM   16  C22 UNK     1      29.498  -5.560  30.768  1.00  0.00     0.024 A 
HETATM   17  C24 UNK     1      28.428  -5.960  29.970  1.00  0.00     0.002 A 
HETATM   18  C23 UNK     1      27.307  -6.555  30.551  1.00  0.00     0.001 A 
HETATM   19  C15 UNK     1      27.258  -6.749  31.931  1.00  0.00     0.013 A 
ENDBRANCH   6  13
ENDBRANCH   3   5
BRANCH   2  20
HETATM   20  C1  UNK     1      27.863  -6.262  38.275  1.00  0.00     0.133 C 
BRANCH  20  21
HETATM   21  C2  UNK     1      28.925  -5.457  39.011  1.00  0.00     0.093 C 
BRANCH  21  22
HETATM   22  S1  UNK     1      29.938  -4.459  37.878  1.00  0.00    -0.163 SA
BRANCH  22  23
HETATM   23  C6  UNK     1      31.567  -5.004  38.439  1.00  0.00     0.116 C 
BRANCH  23  24
HETATM   24  C7  UNK     1      32.393  -5.571  37.318  1.00  0.00    -0.005 A 
HETATM   25  C12 UNK     1      32.872  -4.731  36.317  1.00  0.00     0.042 A 
HETATM   26 Cl1  UNK     1      32.544  -3.035  36.321  1.00  0.00    -0.084 Cl
HETATM   27  C18 UNK     1      33.639  -5.258  35.277  1.00  0.00     0.024 A 
HETATM   28  C21 UNK     1      33.924  -6.622  35.243  1.00  0.00     0.003 A 
HETATM   29  C19 UNK     1      33.442  -7.461  36.248  1.00  0.00     0.024 A 
HETATM   30  C13 UNK     1      32.675  -6.934  37.287  1.00  0.00     0.042 A 
HETATM   31 Cl2  UNK     1      32.101  -8.009  38.512  1.00  0.00    -0.084 Cl
ENDBRANCH  23  24
ENDBRANCH  22  23
ENDBRANCH  21  22
ENDBRANCH  20  21
ENDBRANCH   2  20
TORSDOF 8
ENDMDL
MODEL 8
REMARK VINA RESULT:      -7.0      2.336      3.326
REMARK  8 active torsions:
REMARK  status: ('A' for Active; 'I' for Inactive)
REMARK    1  A    between atoms: C2_8  and  S1_4 
REMARK    2  A    between atoms: C6_12  and  S1_4 
REMARK    3  A    between atoms: C1_7  and  N1_6 
REMARK       I    between atoms: C5_11  and  N1_6 
REMARK    4  A    between atoms: C1_7  and  C2_8 
REMARK    5  A    between atoms: C3_9  and  C4_10 
REMARK    6  A    between atoms: C3_9  and  C5_11 
REMARK    7  A    between atoms: C6_12  and  C7_13 
REMARK    8  A    between atoms: C8_14  and  C9_15 
ROOT
HETATM    1  O1  UNK     1      33.893  -8.246  30.181  1.00  0.00    -0.268 OA
HETATM    2  N1  UNK     1      34.177  -6.937  32.064  1.00  0.00    -0.356 N 
HETATM    3  C5  UNK     1      33.420  -7.642  31.141  1.00  0.00     0.252 C 
HETATM    4  H5  UNK     1      33.738  -6.449  32.837  1.00  0.00     0.162 HD
ENDROOT
BRANCH   3   5
HETATM    5  C3  UNK     1      31.936  -7.622  31.412  1.00  0.00     0.043 C 
HETATM    6  C8  UNK     1      31.137  -7.536  30.329  1.00  0.00     0.031 C 
BRANCH   5   7
HETATM    7  C4  UNK     1      31.395  -7.671  32.784  1.00  0.00    -0.021 A 
HETATM    8  C10 UNK     1      31.084  -6.488  33.431  1.00  0.00     0.012 A 
HETATM    9  C16 UNK     1      30.571  -6.534  34.727  1.00  0.00     0.001 A 
HETATM   10  C20 UNK     1      30.378  -7.764  35.358  1.00  0.00     0.000 A 
HETATM   11  C17 UNK     1      30.697  -8.946  34.691  1.00  0.00     0.001 A 
HETATM   12  C11 UNK     1      31.210  -8.900  33.394  1.00  0.00     0.012 A 
ENDBRANCH   5   7
BRANCH   6  13
HETATM   13  C9  UNK     1      29.668  -7.470  30.347  1.00  0.00    -0.013 A 
HETATM   14  C14 UNK     1      28.992  -6.260  30.433  1.00  0.00     0.044 A 
HETATM   15 Cl3  UNK     1      29.818  -4.744  30.524  1.00  0.00    -0.083 Cl
HETATM   16  C22 UNK     1      27.597  -6.250  30.447  1.00  0.00     0.024 A 
HETATM   17  C24 UNK     1      26.891  -7.450  30.376  1.00  0.00     0.002 A 
HETATM   18  C23 UNK     1      27.579  -8.661  30.289  1.00  0.00     0.001 A 
HETATM   19  C15 UNK     1      28.974  -8.671  30.275  1.00  0.00     0.013 A 
ENDBRANCH   6  13
ENDBRANCH   3   5
BRANCH   2  20
HETATM   20  C1  UNK     1      35.616  -6.850  31.975  1.00  0.00     0.133 C 
BRANCH  20  21
HETATM   21  C2  UNK     1      36.308  -7.035  33.318  1.00  0.00     0.093 C 
BRANCH  21  22
HETATM   22  S1  UNK     1      35.138  -7.469  34.641  1.00  0.00    -0.163 SA
BRANCH  22  23
HETATM   23  C6  UNK     1      35.471  -6.081  35.747  1.00  0.00     0.116 C 
BRANCH  23  24
HETATM   24  C7  UNK     1      34.209  -5.396  36.196  1.00  0.00    -0.005 A 
HETATM   25  C12 UNK     1      33.479  -5.919  37.260  1.00  0.00     0.042 A 
HETATM   26 Cl1  UNK     1      33.981  -7.347  38.091  1.00  0.00    -0.084 Cl
HETATM   27  C18 UNK     1      32.309  -5.284  37.676  1.00  0.00     0.024 A 
HETATM   28  C21 UNK     1      31.873  -4.128  37.028  1.00  0.00     0.003 A 
HETATM   29  C19 UNK     1      32.608  -3.608  35.962  1.00  0.00     0.024 A 
HETATM   30  C13 UNK     1      33.778  -4.243  35.545  1.00  0.00     0.042 A 
HETATM   31 Cl2  UNK     1      34.658  -3.563  34.223  1.00  0.00    -0.084 Cl
ENDBRANCH  23  24
ENDBRANCH  22  23
ENDBRANCH  21  22
ENDBRANCH  20  21
ENDBRANCH   2  20
TORSDOF 8
ENDMDL
MODEL 9
REMARK VINA RESULT:      -7.0      0.893      2.135
REMARK  8 active torsions:
REMARK  status: ('A' for Active; 'I' for Inactive)
REMARK    1  A    between atoms: C2_8  and  S1_4 
REMARK    2  A    between atoms: C6_12  and  S1_4 
REMARK    3  A    between atoms: C1_7  and  N1_6 
REMARK       I    between atoms: C5_11  and  N1_6 
REMARK    4  A    between atoms: C1_7  and  C2_8 
REMARK    5  A    between atoms: C3_9  and  C4_10 
REMARK    6  A    between atoms: C3_9  and  C5_11 
REMARK    7  A    between atoms: C6_12  and  C7_13 
REMARK    8  A    between atoms: C8_14  and  C9_15 
ROOT
HETATM    1  O1  UNK     1      33.718  -8.268  34.381  1.00  0.00    -0.268 OA
HETATM    2  N1  UNK     1      32.985  -6.085  34.185  1.00  0.00    -0.356 N 
HETATM    3  C5  UNK     1      32.885  -7.453  33.989  1.00  0.00     0.252 C 
HETATM    4  H5  UNK     1      32.273  -5.452  33.836  1.00  0.00     0.162 HD
ENDROOT
BRANCH   3   5
HETATM    5  C3  UNK     1      31.644  -7.884  33.249  1.00  0.00     0.043 C 
HETATM    6  C8  UNK     1      31.741  -7.930  31.904  1.00  0.00     0.031 C 
BRANCH   5   7
HETATM    7  C4  UNK     1      30.391  -8.213  33.956  1.00  0.00    -0.021 A 
HETATM    8  C10 UNK     1      30.092  -9.538  34.221  1.00  0.00     0.012 A 
HETATM    9  C16 UNK     1      28.909  -9.849  34.891  1.00  0.00     0.001 A 
HETATM   10  C20 UNK     1      28.040  -8.829  35.283  1.00  0.00     0.000 A 
HETATM   11  C17 UNK     1      28.357  -7.500  35.007  1.00  0.00     0.001 A 
HETATM   12  C11 UNK     1      29.541  -7.188  34.338  1.00  0.00     0.012 A 
ENDBRANCH   5   7
BRANCH   6  13
HETATM   13  C9  UNK     1      30.659  -8.289  30.975  1.00  0.00    -0.013 A 
HETATM   14  C14 UNK     1      29.744  -7.349  30.521  1.00  0.00     0.044 A 
HETATM   15 Cl3  UNK     1      29.803  -5.691  31.007  1.00  0.00    -0.083 Cl
HETATM   16  C22 UNK     1      28.734  -7.740  29.641  1.00  0.00     0.024 A 
HETATM   17  C24 UNK     1      28.649  -9.067  29.223  1.00  0.00     0.002 A 
HETATM   18  C23 UNK     1      29.574 -10.005  29.685  1.00  0.00     0.001 A 
HETATM   19  C15 UNK     1      30.583  -9.614  30.565  1.00  0.00     0.013 A 
ENDBRANCH   6  13
ENDBRANCH   3   5
BRANCH   2  20
HETATM   20  C1  UNK     1      34.100  -5.485  34.881  1.00  0.00     0.133 C 
BRANCH  20  21
HETATM   21  C2  UNK     1      33.684  -4.732  36.137  1.00  0.00     0.093 C 
BRANCH  21  22
HETATM   22  S1  UNK     1      31.885  -4.779  36.401  1.00  0.00    -0.163 SA
BRANCH  22  23
HETATM   23  C6  UNK     1      31.886  -5.454  38.077  1.00  0.00     0.116 C 
BRANCH  23  24
HETATM   24  C7  UNK     1      30.666  -6.288  38.354  1.00  0.00    -0.005 A 
HETATM   25  C12 UNK     1      30.681  -7.652  38.076  1.00  0.00     0.042 A 
HETATM   26 Cl1  UNK     1      32.075  -8.427  37.412  1.00  0.00    -0.084 Cl
HETATM   27  C18 UNK     1      29.549  -8.425  38.334  1.00  0.00     0.024 A 
HETATM   28  C21 UNK     1      28.407  -7.832  38.870  1.00  0.00     0.003 A 
HETATM   29  C19 UNK     1      28.395  -6.465  39.147  1.00  0.00     0.024 A 
HETATM   30  C13 UNK     1      29.527  -5.692  38.889  1.00  0.00     0.042 A 
HETATM   31 Cl2  UNK     1      29.470  -4.003  39.251  1.00  0.00    -0.084 Cl
ENDBRANCH  23  24
ENDBRANCH  22  23
ENDBRANCH  21  22
ENDBRANCH  20  21
ENDBRANCH   2  20
TORSDOF 8
ENDMDL
MODEL 10
REMARK VINA RESULT:      -7.0      2.524      6.869
REMARK  8 active torsions:
REMARK  status: ('A' for Active; 'I' for Inactive)
REMARK    1  A    between atoms: C2_8  and  S1_4 
REMARK    2  A    between atoms: C6_12  and  S1_4 
REMARK    3  A    between atoms: C1_7  and  N1_6 
REMARK       I    between atoms: C5_11  and  N1_6 
REMARK    4  A    between atoms: C1_7  and  C2_8 
REMARK    5  A    between atoms: C3_9  and  C4_10 
REMARK    6  A    between atoms: C3_9  and  C5_11 
REMARK    7  A    between atoms: C6_12  and  C7_13 
REMARK    8  A    between atoms: C8_14  and  C9_15 
ROOT
HETATM    1  O1  UNK     1      28.161  -7.128  34.780  1.00  0.00    -0.268 OA
HETATM    2  N1  UNK     1      29.547  -8.972  34.644  1.00  0.00    -0.356 N 
HETATM    3  C5  UNK     1      29.242  -7.670  35.004  1.00  0.00     0.252 C 
HETATM    4  H5  UNK     1      30.456  -9.373  34.846  1.00  0.00     0.162 HD
ENDROOT
BRANCH   3   5
HETATM    5  C3  UNK     1      30.357  -6.947  35.718  1.00  0.00     0.043 C 
HETATM    6  C8  UNK     1      31.606  -7.197  35.274  1.00  0.00     0.031 C 
BRANCH   5   7
HETATM    7  C4  UNK     1      30.095  -6.038  36.851  1.00  0.00    -0.021 A 
HETATM    8  C10 UNK     1      29.487  -6.535  37.990  1.00  0.00     0.012 A 
HETATM    9  C16 UNK     1      29.241  -5.675  39.061  1.00  0.00     0.001 A 
HETATM   10  C20 UNK     1      29.605  -4.331  38.975  1.00  0.00     0.000 A 
HETATM   11  C17 UNK     1      30.216  -3.848  37.819  1.00  0.00     0.001 A 
HETATM   12  C11 UNK     1      30.464  -4.707  36.748  1.00  0.00     0.012 A 
ENDBRANCH   5   7
BRANCH   6  13
HETATM   13  C9  UNK     1      32.845  -6.636  35.832  1.00  0.00    -0.013 A 
HETATM   14  C14 UNK     1      33.357  -7.063  37.050  1.00  0.00     0.044 A 
HETATM   15 Cl3  UNK     1      32.584  -8.282  38.002  1.00  0.00    -0.083 Cl
HETATM   16  C22 UNK     1      34.537  -6.499  37.536  1.00  0.00     0.024 A 
HETATM   17  C24 UNK     1      35.193  -5.513  36.801  1.00  0.00     0.002 A 
HETATM   18  C23 UNK     1      34.671  -5.091  35.578  1.00  0.00     0.001 A 
HETATM   19  C15 UNK     1      33.492  -5.655  35.091  1.00  0.00     0.013 A 
ENDBRANCH   6  13
ENDBRANCH   3   5
BRANCH   2  20
HETATM   20  C1  UNK     1      28.602  -9.825  33.959  1.00  0.00     0.133 C 
BRANCH  20  21
HETATM   21  C2  UNK     1      29.241 -10.661  32.860  1.00  0.00     0.093 C 
BRANCH  21  22
HETATM   22  S1  UNK     1      30.897 -10.057  32.412  1.00  0.00    -0.163 SA
BRANCH  22  23
HETATM   23  C6  UNK     1      30.437  -9.100  30.951  1.00  0.00     0.116 C 
BRANCH  23  24
HETATM   24  C7  UNK     1      29.978  -7.711  31.303  1.00  0.00    -0.005 A 
HETATM   25  C12 UNK     1      30.901  -6.770  31.749  1.00  0.00     0.042 A 
HETATM   26 Cl1  UNK     1      32.577  -7.148  31.915  1.00  0.00    -0.084 Cl
HETATM   27  C18 UNK     1      30.474  -5.482  32.075  1.00  0.00     0.024 A 
HETATM   28  C21 UNK     1      29.128  -5.141  31.953  1.00  0.00     0.003 A 
HETATM   29  C19 UNK     1      28.206  -6.088  31.506  1.00  0.00     0.024 A 
HETATM   30  C13 UNK     1      28.633  -7.376  31.180  1.00  0.00     0.042 A 
HETATM   31 Cl2  UNK     1      27.458  -8.516  30.628  1.00  0.00    -0.084 Cl
ENDBRANCH  23  24
ENDBRANCH  22  23
ENDBRANCH  21  22
ENDBRANCH  20  21
ENDBRANCH   2  20
TORSDOF 8
ENDMDL
