MODEL 1
REMARK VINA RESULT:      -9.4      0.000      0.000
REMARK  3 active torsions:
REMARK  status: ('A' for Active; 'I' for Inactive)
REMARK    1  A    between atoms: C5_9  and  N1_3 
REMARK    2  A    between atoms: C7_11  and  N2_4 
REMARK    3  A    between atoms: C5_9  and  C8_12 
ROOT
HETATM    1  N1  UNK     1      18.050   5.701  33.411  1.00  0.00     0.096 N 
HETATM    2  N2  UNK     1      18.378   3.582  31.518  1.00  0.00    -0.373 N 
HETATM    3  C1  UNK     1      18.351   4.980  31.045  1.00  0.00     0.108 C 
HETATM    4  C2  UNK     1      17.556   5.851  32.036  1.00  0.00     0.297 C 
HETATM    5  C3  UNK     1      17.910   4.303  33.834  1.00  0.00     0.292 C 
HETATM    6  C4  UNK     1      18.711   3.364  32.930  1.00  0.00     0.154 C 
HETATM    7  C6  UNK     1      19.779   5.502  30.845  1.00  0.00     0.034 C 
ENDROOT
BRANCH   1   8
HETATM    8  C5  UNK     1      17.321   6.588  34.318  1.00  0.00     0.312 C 
BRANCH   8   9
HETATM    9  C8  UNK     1      17.856   7.976  34.296  1.00  0.00    -0.011 A 
HETATM   10  C12 UNK     1      19.182   8.141  34.399  1.00  0.00     0.092 A 
HETATM   11  C18 UNK     1      19.831   9.462  34.385  1.00  0.00     0.288 A 
HETATM   12  O1  UNK     1      18.999  10.564  34.257  1.00  0.00    -0.275 OA
HETATM   13  O2  UNK     1      21.049   9.575  34.482  1.00  0.00    -0.260 OA
HETATM   14  C13 UNK     1      17.602  10.423  34.145  1.00  0.00     0.091 A 
HETATM   15  C9  UNK     1      17.000   9.163  34.161  1.00  0.00     0.012 A 
HETATM   16  C19 UNK     1      16.862  11.600  34.022  1.00  0.00     0.045 A 
HETATM   17  C14 UNK     1      15.605   9.107  34.047  1.00  0.00    -0.048 A 
HETATM   18  C20 UNK     1      14.850  10.280  33.922  1.00  0.00     0.014 A 
HETATM   19  C22 UNK     1      14.798   7.848  34.047  1.00  0.00     0.049 C 
HETATM   20  C21 UNK     1      15.478  11.524  33.910  1.00  0.00    -0.059 A 
HETATM   21  C24 UNK     1      14.669  12.769  33.778  1.00  0.00     0.048 C 
ENDBRANCH   8   9
ENDBRANCH   1   8
BRANCH   2  22
HETATM   22  C7  UNK     1      18.574   2.551  30.592  1.00  0.00     0.031 A 
HETATM   23  C10 UNK     1      19.415   1.484  30.905  1.00  0.00     0.036 A 
HETATM   24  C15 UNK     1      19.611   0.456  29.982  1.00  0.00    -0.060 A 
HETATM   25  C17 UNK     1      18.965   0.497  28.746  1.00  0.00     0.007 A 
HETATM   26  C23 UNK     1      20.509  -0.686  30.316  1.00  0.00     0.048 C 
HETATM   27  C16 UNK     1      18.124   1.565  28.433  1.00  0.00     0.003 A 
HETATM   28  C11 UNK     1      17.929   2.592  29.356  1.00  0.00     0.029 A 
ENDBRANCH   2  22
TORSDOF 3
ENDMDL
MODEL 2
REMARK VINA RESULT:      -9.1      2.661      9.117
REMARK  3 active torsions:
REMARK  status: ('A' for Active; 'I' for Inactive)
REMARK    1  A    between atoms: C5_9  and  N1_3 
REMARK    2  A    between atoms: C7_11  and  N2_4 
REMARK    3  A    between atoms: C5_9  and  C8_12 
ROOT
HETATM    1  N1  UNK     1      17.887   5.488  32.473  1.00  0.00     0.096 N 
HETATM    2  N2  UNK     1      17.744   8.229  33.276  1.00  0.00    -0.373 N 
HETATM    3  C1  UNK     1      16.554   7.369  33.419  1.00  0.00     0.108 C 
HETATM    4  C2  UNK     1      16.616   6.219  32.396  1.00  0.00     0.297 C 
HETATM    5  C3  UNK     1      18.998   6.402  32.184  1.00  0.00     0.292 C 
HETATM    6  C4  UNK     1      19.045   7.556  33.187  1.00  0.00     0.154 C 
HETATM    7  C6  UNK     1      16.444   6.846  34.857  1.00  0.00     0.034 C 
ENDROOT
BRANCH   1   8
HETATM    8  C5  UNK     1      17.890   4.364  31.536  1.00  0.00     0.312 C 
BRANCH   8   9
HETATM    9  C8  UNK     1      18.228   3.078  32.205  1.00  0.00    -0.011 A 
HETATM   10  C12 UNK     1      18.059   2.995  33.532  1.00  0.00     0.092 A 
HETATM   11  C18 UNK     1      18.351   1.777  34.305  1.00  0.00     0.288 A 
HETATM   12  O1  UNK     1      18.822   0.685  33.593  1.00  0.00    -0.275 OA
HETATM   13  O2  UNK     1      18.185   1.739  35.520  1.00  0.00    -0.260 OA
HETATM   14  C13 UNK     1      19.009   0.741  32.197  1.00  0.00     0.091 A 
HETATM   15  C9  UNK     1      18.728   1.904  31.477  1.00  0.00     0.012 A 
HETATM   16  C19 UNK     1      19.489  -0.418  31.584  1.00  0.00     0.045 A 
HETATM   17  C14 UNK     1      18.942   1.878  30.093  1.00  0.00    -0.048 A 
HETATM   18  C20 UNK     1      19.422   0.723  29.464  1.00  0.00     0.014 A 
HETATM   19  C22 UNK     1      18.695   3.030  29.171  1.00  0.00     0.049 C 
HETATM   20  C21 UNK     1      19.695  -0.422  30.208  1.00  0.00    -0.059 A 
HETATM   21  C24 UNK     1      20.207  -1.649  29.533  1.00  0.00     0.048 C 
ENDBRANCH   8   9
ENDBRANCH   1   8
BRANCH   2  22
HETATM   22  C7  UNK     1      17.681   9.561  33.704  1.00  0.00     0.031 A 
HETATM   23  C10 UNK     1      16.444  10.168  33.914  1.00  0.00     0.036 A 
HETATM   24  C15 UNK     1      16.382  11.495  34.339  1.00  0.00    -0.060 A 
HETATM   25  C17 UNK     1      17.557  12.215  34.554  1.00  0.00     0.007 A 
HETATM   26  C23 UNK     1      15.058  12.145  34.565  1.00  0.00     0.048 C 
HETATM   27  C16 UNK     1      18.795  11.606  34.343  1.00  0.00     0.003 A 
HETATM   28  C11 UNK     1      18.857  10.280  33.917  1.00  0.00     0.029 A 
ENDBRANCH   2  22
TORSDOF 3
ENDMDL
MODEL 3
REMARK VINA RESULT:      -9.0     17.128     18.942
REMARK  3 active torsions:
REMARK  status: ('A' for Active; 'I' for Inactive)
REMARK    1  A    between atoms: C5_9  and  N1_3 
REMARK    2  A    between atoms: C7_11  and  N2_4 
REMARK    3  A    between atoms: C5_9  and  C8_12 
ROOT
HETATM    1  N1  UNK     1      28.857  -8.249  37.986  1.00  0.00     0.096 N 
HETATM    2  N2  UNK     1      26.562  -9.678  37.055  1.00  0.00    -0.373 N 
HETATM    3  C1  UNK     1      27.073  -9.933  38.415  1.00  0.00     0.108 C 
HETATM    4  C2  UNK     1      28.576  -9.603  38.478  1.00  0.00     0.297 C 
HETATM    5  C3  UNK     1      28.434  -8.138  36.585  1.00  0.00     0.292 C 
HETATM    6  C4  UNK     1      26.936  -8.403  36.432  1.00  0.00     0.154 C 
HETATM    7  C6  UNK     1      26.269  -9.131  39.446  1.00  0.00     0.034 C 
ENDROOT
BRANCH   1   8
HETATM    8  C5  UNK     1      30.281  -7.939  38.118  1.00  0.00     0.312 C 
BRANCH   8   9
HETATM    9  C8  UNK     1      30.542  -6.474  38.087  1.00  0.00    -0.011 A 
HETATM   10  C12 UNK     1      29.859  -5.695  38.937  1.00  0.00     0.092 A 
HETATM   11  C18 UNK     1      30.033  -4.235  39.006  1.00  0.00     0.288 A 
HETATM   12  O1  UNK     1      30.955  -3.675  38.136  1.00  0.00    -0.275 OA
HETATM   13  O2  UNK     1      29.388  -3.554  39.797  1.00  0.00    -0.260 OA
HETATM   14  C13 UNK     1      31.690  -4.468  37.231  1.00  0.00     0.091 A 
HETATM   15  C9  UNK     1      31.513  -5.853  37.177  1.00  0.00     0.012 A 
HETATM   16  C19 UNK     1      32.591  -3.799  36.401  1.00  0.00     0.045 A 
HETATM   17  C14 UNK     1      32.281  -6.569  36.249  1.00  0.00    -0.048 A 
HETATM   18  C20 UNK     1      33.189  -5.911  35.411  1.00  0.00     0.014 A 
HETATM   19  C22 UNK     1      32.220  -8.051  36.056  1.00  0.00     0.049 C 
HETATM   20  C21 UNK     1      33.342  -4.528  35.487  1.00  0.00    -0.059 A 
HETATM   21  C24 UNK     1      34.310  -3.833  34.591  1.00  0.00     0.048 C 
ENDBRANCH   8   9
ENDBRANCH   1   8
BRANCH   2  22
HETATM   22  C7  UNK     1      25.417 -10.353  36.616  1.00  0.00     0.031 A 
HETATM   23  C10 UNK     1      24.201  -9.678  36.524  1.00  0.00     0.036 A 
HETATM   24  C15 UNK     1      23.060 -10.352  36.087  1.00  0.00    -0.060 A 
HETATM   25  C17 UNK     1      23.136 -11.702  35.744  1.00  0.00     0.007 A 
HETATM   26  C23 UNK     1      21.759  -9.629  35.987  1.00  0.00     0.048 C 
HETATM   27  C16 UNK     1      24.353 -12.377  35.837  1.00  0.00     0.003 A 
HETATM   28  C11 UNK     1      25.493 -11.704  36.274  1.00  0.00     0.029 A 
ENDBRANCH   2  22
TORSDOF 3
ENDMDL
MODEL 4
REMARK VINA RESULT:      -8.8      2.728      8.831
REMARK  3 active torsions:
REMARK  status: ('A' for Active; 'I' for Inactive)
REMARK    1  A    between atoms: C5_9  and  N1_3 
REMARK    2  A    between atoms: C7_11  and  N2_4 
REMARK    3  A    between atoms: C5_9  and  C8_12 
ROOT
HETATM    1  N1  UNK     1      17.283   6.868  33.125  1.00  0.00     0.096 N 
HETATM    2  N2  UNK     1      15.556   9.074  33.696  1.00  0.00    -0.373 N 
HETATM    3  C1  UNK     1      15.375   8.317  32.442  1.00  0.00     0.108 C 
HETATM    4  C2  UNK     1      16.708   7.662  32.033  1.00  0.00     0.297 C 
HETATM    5  C3  UNK     1      17.550   7.737  34.277  1.00  0.00     0.292 C 
HETATM    6  C4  UNK     1      16.267   8.396  34.786  1.00  0.00     0.154 C 
HETATM    7  C6  UNK     1      14.256   7.281  32.602  1.00  0.00     0.034 C 
ENDROOT
BRANCH   1   8
HETATM    8  C5  UNK     1      18.512   6.206  32.687  1.00  0.00     0.312 C 
BRANCH   8   9
HETATM    9  C8  UNK     1      18.438   4.727  32.839  1.00  0.00    -0.011 A 
HETATM   10  C12 UNK     1      18.289   4.229  34.075  1.00  0.00     0.092 A 
HETATM   11  C18 UNK     1      18.197   2.787  34.354  1.00  0.00     0.288 A 
HETATM   12  O1  UNK     1      18.273   1.934  33.264  1.00  0.00    -0.275 OA
HETATM   13  O2  UNK     1      18.061   2.367  35.499  1.00  0.00    -0.260 OA
HETATM   14  C13 UNK     1      18.430   2.428  31.953  1.00  0.00     0.091 A 
HETATM   15  C9  UNK     1      18.515   3.799  31.703  1.00  0.00     0.012 A 
HETATM   16  C19 UNK     1      18.495   1.479  30.931  1.00  0.00     0.045 A 
HETATM   17  C14 UNK     1      18.671   4.208  30.372  1.00  0.00    -0.048 A 
HETATM   18  C20 UNK     1      18.738   3.268  29.337  1.00  0.00     0.014 A 
HETATM   19  C22 UNK     1      18.782   5.632  29.926  1.00  0.00     0.049 C 
HETATM   20  C21 UNK     1      18.651   1.906  29.617  1.00  0.00    -0.059 A 
HETATM   21  C24 UNK     1      18.723   0.909  28.511  1.00  0.00     0.048 C 
ENDBRANCH   8   9
ENDBRANCH   1   8
BRANCH   2  22
HETATM   22  C7  UNK     1      14.686  10.131  33.988  1.00  0.00     0.031 A 
HETATM   23  C10 UNK     1      14.467  10.509  35.312  1.00  0.00     0.036 A 
HETATM   24  C15 UNK     1      13.599  11.561  35.603  1.00  0.00    -0.060 A 
HETATM   25  C17 UNK     1      12.950  12.236  34.569  1.00  0.00     0.007 A 
HETATM   26  C23 UNK     1      13.365  11.966  37.019  1.00  0.00     0.048 C 
HETATM   27  C16 UNK     1      13.169  11.857  33.244  1.00  0.00     0.003 A 
HETATM   28  C11 UNK     1      14.036  10.805  32.954  1.00  0.00     0.029 A 
ENDBRANCH   2  22
TORSDOF 3
ENDMDL
MODEL 5
REMARK VINA RESULT:      -8.7     21.248     24.082
REMARK  3 active torsions:
REMARK  status: ('A' for Active; 'I' for Inactive)
REMARK    1  A    between atoms: C5_9  and  N1_3 
REMARK    2  A    between atoms: C7_11  and  N2_4 
REMARK    3  A    between atoms: C5_9  and  C8_12 
ROOT
HETATM    1  N1  UNK     1       6.623   5.639  11.259  1.00  0.00     0.096 N 
HETATM    2  N2  UNK     1       8.427   5.923   9.058  1.00  0.00    -0.373 N 
HETATM    3  C1  UNK     1       7.459   6.999   9.346  1.00  0.00     0.108 C 
HETATM    4  C2  UNK     1       6.234   6.416  10.076  1.00  0.00     0.297 C 
HETATM    5  C3  UNK     1       7.475   4.516  10.851  1.00  0.00     0.292 C 
HETATM    6  C4  UNK     1       8.747   5.005  10.157  1.00  0.00     0.154 C 
HETATM    7  C6  UNK     1       8.127   8.115  10.157  1.00  0.00     0.034 C 
ENDROOT
BRANCH   1   8
HETATM    8  C5  UNK     1       5.438   5.154  11.968  1.00  0.00     0.312 C 
BRANCH   8   9
HETATM    9  C8  UNK     1       5.511   5.418  13.430  1.00  0.00    -0.011 A 
HETATM   10  C12 UNK     1       5.626   6.692  13.834  1.00  0.00     0.092 A 
HETATM   11  C18 UNK     1       5.702   7.081  15.251  1.00  0.00     0.288 A 
HETATM   12  O1  UNK     1       5.648   6.057  16.184  1.00  0.00    -0.275 OA
HETATM   13  O2  UNK     1       5.807   8.258  15.584  1.00  0.00    -0.260 OA
HETATM   14  C13 UNK     1       5.527   4.709  15.790  1.00  0.00     0.091 A 
HETATM   15  C9  UNK     1       5.457   4.354  14.441  1.00  0.00     0.012 A 
HETATM   16  C19 UNK     1       5.483   3.760  16.813  1.00  0.00     0.045 A 
HETATM   17  C14 UNK     1       5.338   2.993  14.133  1.00  0.00    -0.048 A 
HETATM   18  C20 UNK     1       5.293   2.030  15.149  1.00  0.00     0.014 A 
HETATM   19  C22 UNK     1       5.252   2.437  12.747  1.00  0.00     0.049 C 
HETATM   20  C21 UNK     1       5.365   2.414  16.486  1.00  0.00    -0.059 A 
HETATM   21  C24 UNK     1       5.317   1.384  17.563  1.00  0.00     0.048 C 
ENDBRANCH   8   9
ENDBRANCH   1   8
BRANCH   2  22
HETATM   22  C7  UNK     1       9.332   6.082   8.002  1.00  0.00     0.031 A 
HETATM   23  C10 UNK     1      10.703   6.096   8.254  1.00  0.00     0.036 A 
HETATM   24  C15 UNK     1      11.604   6.256   7.202  1.00  0.00    -0.060 A 
HETATM   25  C17 UNK     1      11.134   6.401   5.897  1.00  0.00     0.007 A 
HETATM   26  C23 UNK     1      13.071   6.270   7.471  1.00  0.00     0.048 C 
HETATM   27  C16 UNK     1       9.762   6.387   5.645  1.00  0.00     0.003 A 
HETATM   28  C11 UNK     1       8.861   6.228   6.697  1.00  0.00     0.029 A 
ENDBRANCH   2  22
TORSDOF 3
ENDMDL
MODEL 6
REMARK VINA RESULT:      -8.7      8.646     11.879
REMARK  3 active torsions:
REMARK  status: ('A' for Active; 'I' for Inactive)
REMARK    1  A    between atoms: C5_9  and  N1_3 
REMARK    2  A    between atoms: C7_11  and  N2_4 
REMARK    3  A    between atoms: C5_9  and  C8_12 
ROOT
HETATM    1  N1  UNK     1      20.263  -4.042  36.799  1.00  0.00     0.096 N 
HETATM    2  N2  UNK     1      20.453  -6.895  36.744  1.00  0.00    -0.373 N 
HETATM    3  C1  UNK     1      20.932  -6.158  37.930  1.00  0.00     0.108 C 
HETATM    4  C2  UNK     1      21.337  -4.728  37.526  1.00  0.00     0.297 C 
HETATM    5  C3  UNK     1      19.952  -4.780  35.569  1.00  0.00     0.292 C 
HETATM    6  C4  UNK     1      19.490  -6.206  35.877  1.00  0.00     0.154 C 
HETATM    7  C6  UNK     1      19.860  -6.159  39.027  1.00  0.00     0.034 C 
ENDROOT
BRANCH   1   8
HETATM    8  C5  UNK     1      20.651  -2.666  36.487  1.00  0.00     0.312 C 
BRANCH   8   9
HETATM    9  C8  UNK     1      19.782  -2.061  35.441  1.00  0.00    -0.011 A 
HETATM   10  C12 UNK     1      20.136  -2.222  34.158  1.00  0.00     0.092 A 
HETATM   11  C18 UNK     1      19.357  -1.677  33.035  1.00  0.00     0.288 A 
HETATM   12  O1  UNK     1      18.209  -0.969  33.357  1.00  0.00    -0.275 OA
HETATM   13  O2  UNK     1      19.712  -1.844  31.872  1.00  0.00    -0.260 OA
HETATM   14  C13 UNK     1      17.810  -0.784  34.696  1.00  0.00     0.091 A 
HETATM   15  C9  UNK     1      18.560  -1.307  35.752  1.00  0.00     0.012 A 
HETATM   16  C19 UNK     1      16.638  -0.055  34.904  1.00  0.00     0.045 A 
HETATM   17  C14 UNK     1      18.097  -1.078  37.054  1.00  0.00    -0.048 A 
HETATM   18  C20 UNK     1      16.922  -0.349  37.278  1.00  0.00     0.014 A 
HETATM   19  C22 UNK     1      18.773  -1.562  38.297  1.00  0.00     0.049 C 
HETATM   20  C21 UNK     1      16.195   0.161  36.205  1.00  0.00    -0.059 A 
HETATM   21  C24 UNK     1      14.946   0.938  36.450  1.00  0.00     0.048 C 
ENDBRANCH   8   9
ENDBRANCH   1   8
BRANCH   2  22
HETATM   22  C7  UNK     1      20.515  -8.293  36.736  1.00  0.00     0.031 A 
HETATM   23  C10 UNK     1      21.655  -8.938  36.259  1.00  0.00     0.036 A 
HETATM   24  C15 UNK     1      21.716 -10.331  36.250  1.00  0.00    -0.060 A 
HETATM   25  C17 UNK     1      20.637 -11.080  36.720  1.00  0.00     0.007 A 
HETATM   26  C23 UNK     1      22.936 -11.022  35.740  1.00  0.00     0.048 C 
HETATM   27  C16 UNK     1      19.496 -10.434  37.198  1.00  0.00     0.003 A 
HETATM   28  C11 UNK     1      19.435  -9.041  37.205  1.00  0.00     0.029 A 
ENDBRANCH   2  22
TORSDOF 3
ENDMDL
MODEL 7
REMARK VINA RESULT:      -8.6     13.103     17.586
REMARK  3 active torsions:
REMARK  status: ('A' for Active; 'I' for Inactive)
REMARK    1  A    between atoms: C5_9  and  N1_3 
REMARK    2  A    between atoms: C7_11  and  N2_4 
REMARK    3  A    between atoms: C5_9  and  C8_12 
ROOT
HETATM    1  N1  UNK     1      25.222  -8.470  37.877  1.00  0.00     0.096 N 
HETATM    2  N2  UNK     1      28.064  -8.232  38.079  1.00  0.00    -0.373 N 
HETATM    3  C1  UNK     1      27.480  -9.431  37.449  1.00  0.00     0.108 C 
HETATM    4  C2  UNK     1      26.060  -9.669  37.998  1.00  0.00     0.297 C 
HETATM    5  C3  UNK     1      25.819  -7.373  38.647  1.00  0.00     0.292 C 
HETATM    6  C4  UNK     1      27.220  -7.033  38.137  1.00  0.00     0.154 C 
HETATM    7  C6  UNK     1      27.484  -9.288  35.922  1.00  0.00     0.034 C 
ENDROOT
BRANCH   1   8
HETATM    8  C5  UNK     1      23.863  -8.745  38.344  1.00  0.00     0.312 C 
BRANCH   8   9
HETATM    9  C8  UNK     1      22.861  -8.645  37.248  1.00  0.00    -0.011 A 
HETATM   10  C12 UNK     1      22.813  -9.636  36.347  1.00  0.00     0.092 A 
HETATM   11  C18 UNK     1      21.864  -9.654  35.222  1.00  0.00     0.288 A 
HETATM   12  O1  UNK     1      20.995  -8.579  35.122  1.00  0.00    -0.275 OA
HETATM   13  O2  UNK     1      21.850 -10.579  34.416  1.00  0.00    -0.260 OA
HETATM   14  C13 UNK     1      21.020  -7.523  36.055  1.00  0.00     0.091 A 
HETATM   15  C9  UNK     1      21.927  -7.519  37.117  1.00  0.00     0.012 A 
HETATM   16  C19 UNK     1      20.100  -6.492  35.856  1.00  0.00     0.045 A 
HETATM   17  C14 UNK     1      21.889  -6.431  37.999  1.00  0.00    -0.048 A 
HETATM   18  C20 UNK     1      20.971  -5.390  37.813  1.00  0.00     0.014 A 
HETATM   19  C22 UNK     1      22.784  -6.264  39.185  1.00  0.00     0.049 C 
HETATM   20  C21 UNK     1      20.079  -5.421  36.744  1.00  0.00    -0.059 A 
HETATM   21  C24 UNK     1      19.104  -4.309  36.550  1.00  0.00     0.048 C 
ENDBRANCH   8   9
ENDBRANCH   1   8
BRANCH   2  22
HETATM   22  C7  UNK     1      29.457  -8.102  38.144  1.00  0.00     0.031 A 
HETATM   23  C10 UNK     1      30.036  -6.838  38.244  1.00  0.00     0.036 A 
HETATM   24  C15 UNK     1      31.423  -6.710  38.307  1.00  0.00    -0.060 A 
HETATM   25  C17 UNK     1      32.231  -7.847  38.271  1.00  0.00     0.007 A 
HETATM   26  C23 UNK     1      32.044  -5.358  38.415  1.00  0.00     0.048 C 
HETATM   27  C16 UNK     1      31.651  -9.111  38.171  1.00  0.00     0.003 A 
HETATM   28  C11 UNK     1      30.264  -9.239  38.107  1.00  0.00     0.029 A 
ENDBRANCH   2  22
TORSDOF 3
ENDMDL
MODEL 8
REMARK VINA RESULT:      -8.4     17.526     20.060
REMARK  3 active torsions:
REMARK  status: ('A' for Active; 'I' for Inactive)
REMARK    1  A    between atoms: C5_9  and  N1_3 
REMARK    2  A    between atoms: C7_11  and  N2_4 
REMARK    3  A    between atoms: C5_9  and  C8_12 
ROOT
HETATM    1  N1  UNK     1      31.255  -6.002  35.594  1.00  0.00     0.096 N 
HETATM    2  N2  UNK     1      33.777  -6.963  34.647  1.00  0.00    -0.373 N 
HETATM    3  C1  UNK     1      33.181  -5.761  34.031  1.00  0.00     0.108 C 
HETATM    4  C2  UNK     1      31.650  -5.797  34.195  1.00  0.00     0.297 C 
HETATM    5  C3  UNK     1      31.784  -7.285  36.070  1.00  0.00     0.292 C 
HETATM    6  C4  UNK     1      33.311  -7.322  35.991  1.00  0.00     0.154 C 
HETATM    7  C6  UNK     1      33.789  -4.493  34.641  1.00  0.00     0.034 C 
ENDROOT
BRANCH   1   8
HETATM    8  C5  UNK     1      29.799  -5.966  35.727  1.00  0.00     0.312 C 
BRANCH   8   9
HETATM    9  C8  UNK     1      29.366  -5.932  37.151  1.00  0.00    -0.011 A 
HETATM   10  C12 UNK     1      29.616  -4.821  37.858  1.00  0.00     0.092 A 
HETATM   11  C18 UNK     1      29.233  -4.665  39.270  1.00  0.00     0.288 A 
HETATM   12  O1  UNK     1      28.585  -5.738  39.864  1.00  0.00    -0.275 OA
HETATM   13  O2  UNK     1      29.478  -3.632  39.886  1.00  0.00    -0.260 OA
HETATM   14  C13 UNK     1      28.308  -6.918  39.146  1.00  0.00     0.091 A 
HETATM   15  C9  UNK     1      28.678  -7.053  37.806  1.00  0.00     0.012 A 
HETATM   16  C19 UNK     1      27.652  -7.935  39.843  1.00  0.00     0.045 A 
HETATM   17  C14 UNK     1      28.367  -8.259  37.164  1.00  0.00    -0.048 A 
HETATM   18  C20 UNK     1      27.710  -9.286  37.851  1.00  0.00     0.014 A 
HETATM   19  C22 UNK     1      28.690  -8.573  35.738  1.00  0.00     0.049 C 
HETATM   20  C21 UNK     1      27.354  -9.124  39.188  1.00  0.00    -0.059 A 
HETATM   21  C24 UNK     1      26.654 -10.222  39.914  1.00  0.00     0.048 C 
ENDBRANCH   8   9
ENDBRANCH   1   8
BRANCH   2  22
HETATM   22  C7  UNK     1      35.028  -7.409  34.204  1.00  0.00     0.031 A 
HETATM   23  C10 UNK     1      35.119  -8.222  33.076  1.00  0.00     0.036 A 
HETATM   24  C15 UNK     1      36.366  -8.667  32.636  1.00  0.00    -0.060 A 
HETATM   25  C17 UNK     1      37.521  -8.298  33.325  1.00  0.00     0.007 A 
HETATM   26  C23 UNK     1      36.465  -9.537  31.428  1.00  0.00     0.048 C 
HETATM   27  C16 UNK     1      37.429  -7.484  34.455  1.00  0.00     0.003 A 
HETATM   28  C11 UNK     1      36.183  -7.040  34.895  1.00  0.00     0.029 A 
ENDBRANCH   2  22
TORSDOF 3
ENDMDL
MODEL 9
REMARK VINA RESULT:      -8.2     17.986     21.260
REMARK  3 active torsions:
REMARK  status: ('A' for Active; 'I' for Inactive)
REMARK    1  A    between atoms: C5_9  and  N1_3 
REMARK    2  A    between atoms: C7_11  and  N2_4 
REMARK    3  A    between atoms: C5_9  and  C8_12 
ROOT
HETATM    1  N1  UNK     1      33.540  -7.934  34.124  1.00  0.00     0.096 N 
HETATM    2  N2  UNK     1      31.801  -6.599  35.960  1.00  0.00    -0.373 N 
HETATM    3  C1  UNK     1      32.806  -7.550  36.474  1.00  0.00     0.108 C 
HETATM    4  C2  UNK     1      33.152  -8.581  35.383  1.00  0.00     0.297 C 
HETATM    5  C3  UNK     1      32.426  -7.118  33.627  1.00  0.00     0.292 C 
HETATM    6  C4  UNK     1      32.044  -6.028  34.630  1.00  0.00     0.154 C 
HETATM    7  C6  UNK     1      34.050  -6.799  36.963  1.00  0.00     0.034 C 
ENDROOT
BRANCH   1   8
HETATM    8  C5  UNK     1      33.926  -8.936  33.129  1.00  0.00     0.312 C 
BRANCH   8   9
HETATM    9  C8  UNK     1      33.880  -8.397  31.743  1.00  0.00    -0.011 A 
HETATM   10  C12 UNK     1      34.803  -7.491  31.389  1.00  0.00     0.092 A 
HETATM   11  C18 UNK     1      34.865  -6.890  30.047  1.00  0.00     0.288 A 
HETATM   12  O1  UNK     1      33.908  -7.303  29.133  1.00  0.00    -0.275 OA
HETATM   13  O2  UNK     1      35.725  -6.063  29.759  1.00  0.00    -0.260 OA
HETATM   14  C13 UNK     1      32.926  -8.254  29.475  1.00  0.00     0.091 A 
HETATM   15  C9  UNK     1      32.879  -8.816  30.753  1.00  0.00     0.012 A 
HETATM   16  C19 UNK     1      32.012  -8.595  28.477  1.00  0.00     0.045 A 
HETATM   17  C14 UNK     1      31.870  -9.753  31.014  1.00  0.00    -0.048 A 
HETATM   18  C20 UNK     1      30.947 -10.105  30.021  1.00  0.00     0.014 A 
HETATM   19  C22 UNK     1      31.672 -10.450  32.322  1.00  0.00     0.049 C 
HETATM   20  C21 UNK     1      31.018  -9.527  28.756  1.00  0.00    -0.059 A 
HETATM   21  C24 UNK     1      30.032  -9.906  27.704  1.00  0.00     0.048 C 
ENDBRANCH   8   9
ENDBRANCH   1   8
BRANCH   2  22
HETATM   22  C7  UNK     1      30.976  -5.921  36.865  1.00  0.00     0.031 A 
HETATM   23  C10 UNK     1      30.076  -6.632  37.656  1.00  0.00     0.036 A 
HETATM   24  C15 UNK     1      29.253  -5.956  38.557  1.00  0.00    -0.060 A 
HETATM   25  C17 UNK     1      29.332  -4.568  38.667  1.00  0.00     0.007 A 
HETATM   26  C23 UNK     1      28.290  -6.717  39.405  1.00  0.00     0.048 C 
HETATM   27  C16 UNK     1      30.233  -3.856  37.874  1.00  0.00     0.003 A 
HETATM   28  C11 UNK     1      31.054  -4.532  36.973  1.00  0.00     0.029 A 
ENDBRANCH   2  22
TORSDOF 3
ENDMDL
MODEL 10
REMARK VINA RESULT:      -8.2     17.964     19.932
REMARK  3 active torsions:
REMARK  status: ('A' for Active; 'I' for Inactive)
REMARK    1  A    between atoms: C5_9  and  N1_3 
REMARK    2  A    between atoms: C7_11  and  N2_4 
REMARK    3  A    between atoms: C5_9  and  C8_12 
ROOT
HETATM    1  N1  UNK     1      32.598  -6.974  36.010  1.00  0.00     0.096 N 
HETATM    2  N2  UNK     1      33.090  -7.257  33.207  1.00  0.00    -0.373 N 
HETATM    3  C1  UNK     1      31.715  -7.008  33.681  1.00  0.00     0.108 C 
HETATM    4  C2  UNK     1      31.561  -7.519  35.126  1.00  0.00     0.297 C 
HETATM    5  C3  UNK     1      33.921  -7.389  35.529  1.00  0.00     0.292 C 
HETATM    6  C4  UNK     1      34.183  -6.881  34.111  1.00  0.00     0.154 C 
HETATM    7  C6  UNK     1      31.372  -5.518  33.564  1.00  0.00     0.034 C 
ENDROOT
BRANCH   1   8
HETATM    8  C5  UNK     1      32.388  -7.423  37.387  1.00  0.00     0.312 C 
BRANCH   8   9
HETATM    9  C8  UNK     1      31.150  -6.850  37.982  1.00  0.00    -0.011 A 
HETATM   10  C12 UNK     1      31.063  -5.517  38.088  1.00  0.00     0.092 A 
HETATM   11  C18 UNK     1      29.889  -4.831  38.653  1.00  0.00     0.288 A 
HETATM   12  O1  UNK     1      28.845  -5.634  39.084  1.00  0.00    -0.275 OA
HETATM   13  O2  UNK     1      29.845  -3.607  38.735  1.00  0.00    -0.260 OA
HETATM   14  C13 UNK     1      28.907  -7.039  38.984  1.00  0.00     0.091 A 
HETATM   15  C9  UNK     1      30.028  -7.675  38.447  1.00  0.00     0.012 A 
HETATM   16  C19 UNK     1      27.799  -7.748  39.450  1.00  0.00     0.045 A 
HETATM   17  C14 UNK     1      30.012  -9.075  38.384  1.00  0.00    -0.048 A 
HETATM   18  C20 UNK     1      28.907  -9.800  38.847  1.00  0.00     0.014 A 
HETATM   19  C22 UNK     1      31.123  -9.917  37.841  1.00  0.00     0.049 C 
HETATM   20  C21 UNK     1      27.803  -9.137  39.379  1.00  0.00    -0.059 A 
HETATM   21  C24 UNK     1      26.630  -9.914  39.872  1.00  0.00     0.048 C 
ENDBRANCH   8   9
ENDBRANCH   1   8
BRANCH   2  22
HETATM   22  C7  UNK     1      33.331  -7.360  31.832  1.00  0.00     0.031 A 
HETATM   23  C10 UNK     1      32.266  -7.505  30.945  1.00  0.00     0.036 A 
HETATM   24  C15 UNK     1      32.507  -7.608  29.576  1.00  0.00    -0.060 A 
HETATM   25  C17 UNK     1      33.815  -7.566  29.093  1.00  0.00     0.007 A 
HETATM   26  C23 UNK     1      31.367  -7.764  28.626  1.00  0.00     0.048 C 
HETATM   27  C16 UNK     1      34.881  -7.420  29.980  1.00  0.00     0.003 A 
HETATM   28  C11 UNK     1      34.640  -7.318  31.350  1.00  0.00     0.029 A 
ENDBRANCH   2  22
TORSDOF 3
ENDMDL
