MODEL 1
REMARK VINA RESULT:      -8.8      0.000      0.000
REMARK  5 active torsions:
REMARK  status: ('A' for Active; 'I' for Inactive)
REMARK       I    between atoms: C11_17  and  N1_4 
REMARK    1  A    between atoms: C6_12  and  N1_4 
REMARK    2  A    between atoms: C3_9  and  C7_13 
REMARK    3  A    between atoms: C11_17  and  C4_10 
REMARK    4  A    between atoms: C6_12  and  C9_15 
REMARK    5  A    between atoms: C16_22  and  C7_13 
ROOT
HETATM    1  O1  UNK     1      18.842   0.521  32.345  1.00  0.00    -0.273 OA
HETATM    2  O3  UNK     1      17.956   2.622  32.478  1.00  0.00    -0.259 OA
HETATM    3  C1  UNK     1      19.501  -0.468  31.587  1.00  0.00     0.096 A 
HETATM    4  C2  UNK     1      19.862  -0.222  30.267  1.00  0.00    -0.000 A 
HETATM    5  C3  UNK     1      19.771  -1.686  32.208  1.00  0.00    -0.020 A 
HETATM    6  C4  UNK     1      18.923   2.007  30.404  1.00  0.00     0.108 A 
HETATM    7  C5  UNK     1      19.548   1.072  29.679  1.00  0.00     0.037 A 
HETATM    8  C8  UNK     1      20.515  -1.227  29.549  1.00  0.00     0.014 A 
HETATM    9  C10 UNK     1      20.423  -2.682  31.485  1.00  0.00     0.010 A 
HETATM   10  C12 UNK     1      18.529   1.768  31.811  1.00  0.00     0.304 A 
HETATM   11  C13 UNK     1      20.794  -2.454  30.158  1.00  0.00     0.002 A 
ENDROOT
BRANCH   6  12
HETATM   12  C11 UNK     1      18.651   3.279  29.725  1.00  0.00     0.258 C 
HETATM   13  O2  UNK     1      18.094   3.302  28.628  1.00  0.00    -0.267 OA
HETATM   14  N1  UNK     1      19.083   4.377  30.446  1.00  0.00    -0.352 N 
HETATM   15  H8  UNK     1      19.547   4.252  31.340  1.00  0.00     0.163 HD
BRANCH  14  16
HETATM   16  C6  UNK     1      18.927   5.737  29.980  1.00  0.00     0.164 C 
BRANCH  16  17
HETATM   17  C9  UNK     1      18.393   6.641  31.052  1.00  0.00    -0.004 A 
HETATM   18  C14 UNK     1      18.926   6.840  32.282  1.00  0.00     0.122 A 
HETATM   19  N2  UNK     1      18.093   7.738  32.884  1.00  0.00    -0.285 N 
HETATM   20  C17 UNK     1      18.231   8.275  34.216  1.00  0.00     0.179 C 
HETATM   21  N3  UNK     1      17.063   8.124  32.111  1.00  0.00    -0.185 NA
HETATM   22  C15 UNK     1      17.258   7.440  30.981  1.00  0.00     0.149 A 
ENDBRANCH  16  17
ENDBRANCH  14  16
ENDBRANCH   6  12
BRANCH   5  23
HETATM   23  C7  UNK     1      19.380  -1.939  33.625  1.00  0.00     0.067 C 
BRANCH  23  24
HETATM   24  C16 UNK     1      20.508  -2.491  34.458  1.00  0.00    -0.032 C 
HETATM   25  C18 UNK     1      20.614  -2.328  35.782  1.00  0.00     0.007 C 
ENDBRANCH  23  24
ENDBRANCH   5  23
TORSDOF 5
ENDMDL
MODEL 2
REMARK VINA RESULT:      -8.6      4.573      8.763
REMARK  5 active torsions:
REMARK  status: ('A' for Active; 'I' for Inactive)
REMARK       I    between atoms: C11_17  and  N1_4 
REMARK    1  A    between atoms: C6_12  and  N1_4 
REMARK    2  A    between atoms: C3_9  and  C7_13 
REMARK    3  A    between atoms: C11_17  and  C4_10 
REMARK    4  A    between atoms: C6_12  and  C9_15 
REMARK    5  A    between atoms: C16_22  and  C7_13 
ROOT
HETATM    1  O1  UNK     1      18.637   1.038  32.481  1.00  0.00    -0.273 OA
HETATM    2  O3  UNK     1      17.773   1.288  34.580  1.00  0.00    -0.259 OA
HETATM    3  C1  UNK     1      19.265   0.219  31.521  1.00  0.00     0.096 A 
HETATM    4  C2  UNK     1      19.589  -1.099  31.820  1.00  0.00    -0.000 A 
HETATM    5  C3  UNK     1      19.544   0.780  30.276  1.00  0.00    -0.020 A 
HETATM    6  C4  UNK     1      18.672  -0.839  34.048  1.00  0.00     0.108 A 
HETATM    7  C5  UNK     1      19.270  -1.621  33.141  1.00  0.00     0.037 A 
HETATM    8  C8  UNK     1      20.209  -1.880  30.842  1.00  0.00     0.014 A 
HETATM    9  C10 UNK     1      20.163  -0.006  29.306  1.00  0.00     0.010 A 
HETATM   10  C12 UNK     1      18.319   0.568  33.752  1.00  0.00     0.304 A 
HETATM   11  C13 UNK     1      20.496  -1.333  29.588  1.00  0.00     0.002 A 
ENDROOT
BRANCH   6  12
HETATM   12  C11 UNK     1      18.391  -1.454  35.350  1.00  0.00     0.258 C 
HETATM   13  O2  UNK     1      17.376  -1.163  35.981  1.00  0.00    -0.267 OA
HETATM   14  N1  UNK     1      19.370  -2.349  35.744  1.00  0.00    -0.352 N 
HETATM   15  H8  UNK     1      20.181  -2.511  35.157  1.00  0.00     0.163 HD
BRANCH  14  16
HETATM   16  C6  UNK     1      19.314  -3.079  36.991  1.00  0.00     0.164 C 
BRANCH  16  17
HETATM   17  C9  UNK     1      20.046  -4.386  36.911  1.00  0.00    -0.004 A 
HETATM   18  C14 UNK     1      19.755  -5.428  36.096  1.00  0.00     0.122 A 
HETATM   19  N2  UNK     1      20.693  -6.375  36.389  1.00  0.00    -0.285 N 
HETATM   20  C17 UNK     1      20.811  -7.680  35.783  1.00  0.00     0.179 C 
HETATM   21  N3  UNK     1      21.564  -5.999  37.340  1.00  0.00    -0.185 NA
HETATM   22  C15 UNK     1      21.155  -4.768  37.657  1.00  0.00     0.149 A 
ENDBRANCH  16  17
ENDBRANCH  14  16
ENDBRANCH   6  12
BRANCH   5  23
HETATM   23  C7  UNK     1      19.193   2.196  29.964  1.00  0.00     0.067 C 
BRANCH  23  24
HETATM   24  C16 UNK     1      17.981   2.320  29.077  1.00  0.00    -0.032 C 
HETATM   25  C18 UNK     1      17.617   1.405  28.170  1.00  0.00     0.007 C 
ENDBRANCH  23  24
ENDBRANCH   5  23
TORSDOF 5
ENDMDL
MODEL 3
REMARK VINA RESULT:      -8.4      6.004     10.820
REMARK  5 active torsions:
REMARK  status: ('A' for Active; 'I' for Inactive)
REMARK       I    between atoms: C11_17  and  N1_4 
REMARK    1  A    between atoms: C6_12  and  N1_4 
REMARK    2  A    between atoms: C3_9  and  C7_13 
REMARK    3  A    between atoms: C11_17  and  C4_10 
REMARK    4  A    between atoms: C6_12  and  C9_15 
REMARK    5  A    between atoms: C16_22  and  C7_13 
ROOT
HETATM    1  O1  UNK     1      19.339  -1.159  34.688  1.00  0.00    -0.273 OA
HETATM    2  O3  UNK     1      20.505  -3.065  34.215  1.00  0.00    -0.259 OA
HETATM    3  C1  UNK     1      18.606  -0.388  35.612  1.00  0.00     0.096 A 
HETATM    4  C2  UNK     1      18.389  -0.852  36.905  1.00  0.00    -0.000 A 
HETATM    5  C3  UNK     1      18.114   0.843  35.182  1.00  0.00    -0.020 A 
HETATM    6  C4  UNK     1      19.626  -2.875  36.407  1.00  0.00     0.108 A 
HETATM    7  C5  UNK     1      18.930  -2.147  37.288  1.00  0.00     0.037 A 
HETATM    8  C8  UNK     1      17.659  -0.058  37.792  1.00  0.00     0.014 A 
HETATM    9  C10 UNK     1      17.387   1.628  36.073  1.00  0.00     0.010 A 
HETATM   10  C12 UNK     1      19.869  -2.401  35.026  1.00  0.00     0.304 A 
HETATM   11  C13 UNK     1      17.159   1.179  37.376  1.00  0.00     0.002 A 
ENDROOT
BRANCH   6  12
HETATM   12  C11 UNK     1      20.131  -4.167  36.887  1.00  0.00     0.258 C 
HETATM   13  O2  UNK     1      21.306  -4.300  37.224  1.00  0.00    -0.267 OA
HETATM   14  N1  UNK     1      19.159  -5.151  36.902  1.00  0.00    -0.352 N 
HETATM   15  H8  UNK     1      18.217  -4.944  36.589  1.00  0.00     0.163 HD
BRANCH  14  16
HETATM   16  C6  UNK     1      19.418  -6.506  37.334  1.00  0.00     0.164 C 
BRANCH  16  17
HETATM   17  C9  UNK     1      20.101  -7.315  36.269  1.00  0.00    -0.004 A 
HETATM   18  C14 UNK     1      20.639  -8.550  36.412  1.00  0.00     0.122 A 
HETATM   19  N2  UNK     1      21.136  -8.860  35.179  1.00  0.00    -0.285 N 
HETATM   20  C17 UNK     1      21.814 -10.080  34.811  1.00  0.00     0.179 C 
HETATM   21  N3  UNK     1      20.947  -7.897  34.261  1.00  0.00    -0.185 NA
HETATM   22  C15 UNK     1      20.307  -6.946  34.945  1.00  0.00     0.149 A 
ENDBRANCH  16  17
ENDBRANCH  14  16
ENDBRANCH   6  12
BRANCH   5  23
HETATM   23  C7  UNK     1      18.353   1.333  33.792  1.00  0.00     0.067 C 
BRANCH  23  24
HETATM   24  C16 UNK     1      18.242   2.830  33.669  1.00  0.00    -0.032 C 
HETATM   25  C18 UNK     1      18.100   3.480  32.509  1.00  0.00     0.007 C 
ENDBRANCH  23  24
ENDBRANCH   5  23
TORSDOF 5
ENDMDL
MODEL 4
REMARK VINA RESULT:      -8.1      6.001      9.559
REMARK  5 active torsions:
REMARK  status: ('A' for Active; 'I' for Inactive)
REMARK       I    between atoms: C11_17  and  N1_4 
REMARK    1  A    between atoms: C6_12  and  N1_4 
REMARK    2  A    between atoms: C3_9  and  C7_13 
REMARK    3  A    between atoms: C11_17  and  C4_10 
REMARK    4  A    between atoms: C6_12  and  C9_15 
REMARK    5  A    between atoms: C16_22  and  C7_13 
ROOT
HETATM    1  O1  UNK     1      20.484  -7.095  35.870  1.00  0.00    -0.273 OA
HETATM    2  O3  UNK     1      20.295  -5.114  34.749  1.00  0.00    -0.259 OA
HETATM    3  C1  UNK     1      20.462  -7.801  37.090  1.00  0.00     0.096 A 
HETATM    4  C2  UNK     1      20.229  -7.135  38.288  1.00  0.00    -0.000 A 
HETATM    5  C3  UNK     1      20.682  -9.177  37.045  1.00  0.00    -0.020 A 
HETATM    6  C4  UNK     1      20.029  -5.032  37.102  1.00  0.00     0.108 A 
HETATM    7  C5  UNK     1      20.008  -5.697  38.263  1.00  0.00     0.037 A 
HETATM    8  C8  UNK     1      20.215  -7.870  39.476  1.00  0.00     0.014 A 
HETATM    9  C10 UNK     1      20.665  -9.902  38.234  1.00  0.00     0.010 A 
HETATM   10  C12 UNK     1      20.275  -5.720  35.815  1.00  0.00     0.304 A 
HETATM   11  C13 UNK     1      20.433  -9.250  39.448  1.00  0.00     0.002 A 
ENDROOT
BRANCH   6  12
HETATM   12  C11 UNK     1      19.795  -3.585  37.179  1.00  0.00     0.258 C 
HETATM   13  O2  UNK     1      20.628  -2.837  37.691  1.00  0.00    -0.267 OA
HETATM   14  N1  UNK     1      18.583  -3.206  36.633  1.00  0.00    -0.352 N 
HETATM   15  H8  UNK     1      17.956  -3.904  36.246  1.00  0.00     0.163 HD
BRANCH  14  16
HETATM   16  C6  UNK     1      18.130  -1.833  36.595  1.00  0.00     0.164 C 
BRANCH  16  17
HETATM   17  C9  UNK     1      18.251  -1.239  35.222  1.00  0.00    -0.004 A 
HETATM   18  C14 UNK     1      19.022  -1.699  34.206  1.00  0.00     0.122 A 
HETATM   19  N2  UNK     1      18.795  -0.833  33.175  1.00  0.00    -0.285 N 
HETATM   20  C17 UNK     1      19.388  -0.893  31.861  1.00  0.00     0.179 C 
HETATM   21  N3  UNK     1      17.927   0.148  33.472  1.00  0.00    -0.185 NA
HETATM   22  C15 UNK     1      17.597  -0.112  34.740  1.00  0.00     0.149 A 
ENDBRANCH  16  17
ENDBRANCH  14  16
ENDBRANCH   6  12
BRANCH   5  23
HETATM   23  C7  UNK     1      20.931  -9.882  35.754  1.00  0.00     0.067 C 
BRANCH  23  24
HETATM   24  C16 UNK     1      22.388 -10.191  35.524  1.00  0.00    -0.032 C 
HETATM   25  C18 UNK     1      22.946 -11.387  35.743  1.00  0.00     0.007 C 
ENDBRANCH  23  24
ENDBRANCH   5  23
TORSDOF 5
ENDMDL
MODEL 5
REMARK VINA RESULT:      -8.1     15.250     17.687
REMARK  5 active torsions:
REMARK  status: ('A' for Active; 'I' for Inactive)
REMARK       I    between atoms: C11_17  and  N1_4 
REMARK    1  A    between atoms: C6_12  and  N1_4 
REMARK    2  A    between atoms: C3_9  and  C7_13 
REMARK    3  A    between atoms: C11_17  and  C4_10 
REMARK    4  A    between atoms: C6_12  and  C9_15 
REMARK    5  A    between atoms: C16_22  and  C7_13 
ROOT
HETATM    1  O1  UNK     1      19.878  -1.426  13.148  1.00  0.00    -0.273 OA
HETATM    2  O3  UNK     1      19.442   0.199  14.692  1.00  0.00    -0.259 OA
HETATM    3  C1  UNK     1      19.792  -2.778  12.757  1.00  0.00     0.096 A 
HETATM    4  C2  UNK     1      19.184  -3.715  13.585  1.00  0.00    -0.000 A 
HETATM    5  C3  UNK     1      20.337  -3.130  11.524  1.00  0.00    -0.020 A 
HETATM    6  C4  UNK     1      18.720  -1.994  15.225  1.00  0.00     0.108 A 
HETATM    7  C5  UNK     1      18.637  -3.279  14.860  1.00  0.00     0.037 A 
HETATM    8  C8  UNK     1      19.118  -5.045  13.162  1.00  0.00     0.014 A 
HETATM    9  C10 UNK     1      20.267  -4.459  11.110  1.00  0.00     0.010 A 
HETATM   10  C12 UNK     1      19.364  -0.979  14.361  1.00  0.00     0.304 A 
HETATM   11  C13 UNK     1      19.659  -5.415  11.927  1.00  0.00     0.002 A 
ENDROOT
BRANCH   6  12
HETATM   12  C11 UNK     1      18.139  -1.651  16.529  1.00  0.00     0.258 C 
HETATM   13  O2  UNK     1      16.995  -1.998  16.822  1.00  0.00    -0.267 OA
HETATM   14  N1  UNK     1      19.005  -0.928  17.329  1.00  0.00    -0.352 N 
HETATM   15  H8  UNK     1      19.927  -0.678  16.989  1.00  0.00     0.163 HD
BRANCH  14  16
HETATM   16  C6  UNK     1      18.656  -0.474  18.657  1.00  0.00     0.164 C 
BRANCH  16  17
HETATM   17  C9  UNK     1      19.171   0.908  18.932  1.00  0.00    -0.004 A 
HETATM   18  C14 UNK     1      19.313   1.913  18.033  1.00  0.00     0.122 A 
HETATM   19  N2  UNK     1      19.810   2.960  18.753  1.00  0.00    -0.285 N 
HETATM   20  C17 UNK     1      20.136   4.271  18.245  1.00  0.00     0.179 C 
HETATM   21  N3  UNK     1      19.992   2.684  20.056  1.00  0.00    -0.185 NA
HETATM   22  C15 UNK     1      19.594   1.413  20.156  1.00  0.00     0.149 A 
ENDBRANCH  16  17
ENDBRANCH  14  16
ENDBRANCH   6  12
BRANCH   5  23
HETATM   23  C7  UNK     1      20.988  -2.117  10.643  1.00  0.00     0.067 C 
BRANCH  23  24
HETATM   24  C16 UNK     1      21.369  -2.669   9.293  1.00  0.00    -0.032 C 
HETATM   25  C18 UNK     1      22.588  -2.555   8.753  1.00  0.00     0.007 C 
ENDBRANCH  23  24
ENDBRANCH   5  23
TORSDOF 5
ENDMDL
MODEL 6
REMARK VINA RESULT:      -8.0      2.502      3.946
REMARK  5 active torsions:
REMARK  status: ('A' for Active; 'I' for Inactive)
REMARK       I    between atoms: C11_17  and  N1_4 
REMARK    1  A    between atoms: C6_12  and  N1_4 
REMARK    2  A    between atoms: C3_9  and  C7_13 
REMARK    3  A    between atoms: C11_17  and  C4_10 
REMARK    4  A    between atoms: C6_12  and  C9_15 
REMARK    5  A    between atoms: C16_22  and  C7_13 
ROOT
HETATM    1  O1  UNK     1      18.305   1.603  32.240  1.00  0.00    -0.273 OA
HETATM    2  O3  UNK     1      18.187   3.377  30.806  1.00  0.00    -0.259 OA
HETATM    3  C1  UNK     1      18.377   1.119  33.562  1.00  0.00     0.096 A 
HETATM    4  C2  UNK     1      18.397   2.000  34.637  1.00  0.00    -0.000 A 
HETATM    5  C3  UNK     1      18.429  -0.262  33.743  1.00  0.00    -0.020 A 
HETATM    6  C4  UNK     1      18.271   3.885  33.119  1.00  0.00     0.108 A 
HETATM    7  C5  UNK     1      18.341   3.431  34.376  1.00  0.00     0.037 A 
HETATM    8  C8  UNK     1      18.468   1.482  35.932  1.00  0.00     0.014 A 
HETATM    9  C10 UNK     1      18.500  -0.770  35.038  1.00  0.00     0.010 A 
HETATM   10  C12 UNK     1      18.250   2.965  31.959  1.00  0.00     0.304 A 
HETATM   11  C13 UNK     1      18.520   0.099  36.131  1.00  0.00     0.002 A 
ENDROOT
BRANCH   6  12
HETATM   12  C11 UNK     1      18.219   5.342  32.958  1.00  0.00     0.258 C 
HETATM   13  O2  UNK     1      18.978   6.075  33.591  1.00  0.00    -0.267 OA
HETATM   14  N1  UNK     1      17.255   5.749  32.054  1.00  0.00    -0.352 N 
HETATM   15  H8  UNK     1      16.665   5.064  31.592  1.00  0.00     0.163 HD
BRANCH  14  16
HETATM   16  C6  UNK     1      17.014   7.137  31.730  1.00  0.00     0.164 C 
BRANCH  16  17
HETATM   17  C9  UNK     1      16.093   7.793  32.717  1.00  0.00    -0.004 A 
HETATM   18  C14 UNK     1      16.348   8.906  33.447  1.00  0.00     0.122 A 
HETATM   19  N2  UNK     1      15.219   9.106  34.188  1.00  0.00    -0.285 N 
HETATM   20  C17 UNK     1      14.993  10.173  35.133  1.00  0.00     0.179 C 
HETATM   21  N3  UNK     1      14.261   8.189  33.973  1.00  0.00    -0.185 NA
HETATM   22  C15 UNK     1      14.811   7.381  33.062  1.00  0.00     0.149 A 
ENDBRANCH  16  17
ENDBRANCH  14  16
ENDBRANCH   6  12
BRANCH   5  23
HETATM   23  C7  UNK     1      18.408  -1.200  32.582  1.00  0.00     0.067 C 
BRANCH  23  24
HETATM   24  C16 UNK     1      19.786  -1.624  32.143  1.00  0.00    -0.032 C 
HETATM   25  C18 UNK     1      20.444  -1.082  31.112  1.00  0.00     0.007 C 
ENDBRANCH  23  24
ENDBRANCH   5  23
TORSDOF 5
ENDMDL
MODEL 7
REMARK VINA RESULT:      -7.8     10.815     14.282
REMARK  5 active torsions:
REMARK  status: ('A' for Active; 'I' for Inactive)
REMARK       I    between atoms: C11_17  and  N1_4 
REMARK    1  A    between atoms: C6_12  and  N1_4 
REMARK    2  A    between atoms: C3_9  and  C7_13 
REMARK    3  A    between atoms: C11_17  and  C4_10 
REMARK    4  A    between atoms: C6_12  and  C9_15 
REMARK    5  A    between atoms: C16_22  and  C7_13 
ROOT
HETATM    1  O1  UNK     1      28.142  -5.594  38.608  1.00  0.00    -0.273 OA
HETATM    2  O3  UNK     1      25.928  -5.047  38.731  1.00  0.00    -0.259 OA
HETATM    3  C1  UNK     1      29.137  -6.578  38.442  1.00  0.00     0.096 A 
HETATM    4  C2  UNK     1      28.788  -7.910  38.249  1.00  0.00    -0.000 A 
HETATM    5  C3  UNK     1      30.467  -6.165  38.480  1.00  0.00    -0.020 A 
HETATM    6  C4  UNK     1      26.438  -7.333  38.378  1.00  0.00     0.108 A 
HETATM    7  C5  UNK     1      27.379  -8.272  38.222  1.00  0.00     0.037 A 
HETATM    8  C8  UNK     1      29.803  -8.856  38.088  1.00  0.00     0.014 A 
HETATM    9  C10 UNK     1      31.473  -7.115  38.318  1.00  0.00     0.010 A 
HETATM   10  C12 UNK     1      26.786  -5.910  38.586  1.00  0.00     0.304 A 
HETATM   11  C13 UNK     1      31.142  -8.458  38.123  1.00  0.00     0.002 A 
ENDROOT
BRANCH   6  12
HETATM   12  C11 UNK     1      25.046  -7.796  38.335  1.00  0.00     0.258 C 
HETATM   13  O2  UNK     1      24.700  -8.687  37.560  1.00  0.00    -0.267 OA
HETATM   14  N1  UNK     1      24.230  -7.129  39.231  1.00  0.00    -0.352 N 
HETATM   15  H8  UNK     1      24.609  -6.395  39.820  1.00  0.00     0.163 HD
BRANCH  14  16
HETATM   16  C6  UNK     1      22.818  -7.409  39.369  1.00  0.00     0.164 C 
BRANCH  16  17
HETATM   17  C9  UNK     1      22.005  -6.748  38.295  1.00  0.00    -0.004 A 
HETATM   18  C14 UNK     1      21.329  -7.365  37.296  1.00  0.00     0.122 A 
HETATM   19  N2  UNK     1      20.754  -6.353  36.585  1.00  0.00    -0.285 N 
HETATM   20  C17 UNK     1      19.923  -6.494  35.413  1.00  0.00     0.179 C 
HETATM   21  N3  UNK     1      21.021  -5.129  37.070  1.00  0.00    -0.185 NA
HETATM   22  C15 UNK     1      21.796  -5.384  38.128  1.00  0.00     0.149 A 
ENDBRANCH  16  17
ENDBRANCH  14  16
ENDBRANCH   6  12
BRANCH   5  23
HETATM   23  C7  UNK     1      30.832  -4.733  38.688  1.00  0.00     0.067 C 
BRANCH  23  24
HETATM   24  C16 UNK     1      30.873  -3.945  37.404  1.00  0.00    -0.032 C 
HETATM   25  C18 UNK     1      31.967  -3.797  36.649  1.00  0.00     0.007 C 
ENDBRANCH  23  24
ENDBRANCH   5  23
TORSDOF 5
ENDMDL
MODEL 8
REMARK VINA RESULT:      -7.8      2.523      4.054
REMARK  5 active torsions:
REMARK  status: ('A' for Active; 'I' for Inactive)
REMARK       I    between atoms: C11_17  and  N1_4 
REMARK    1  A    between atoms: C6_12  and  N1_4 
REMARK    2  A    between atoms: C3_9  and  C7_13 
REMARK    3  A    between atoms: C11_17  and  C4_10 
REMARK    4  A    between atoms: C6_12  and  C9_15 
REMARK    5  A    between atoms: C16_22  and  C7_13 
ROOT
HETATM    1  O1  UNK     1      18.639  -0.667  34.289  1.00  0.00    -0.273 OA
HETATM    2  O3  UNK     1      18.936  -0.359  32.045  1.00  0.00    -0.259 OA
HETATM    3  C1  UNK     1      18.305  -0.132  35.549  1.00  0.00     0.096 A 
HETATM    4  C2  UNK     1      17.966   1.211  35.679  1.00  0.00    -0.000 A 
HETATM    5  C3  UNK     1      18.329  -0.993  36.644  1.00  0.00    -0.020 A 
HETATM    6  C4  UNK     1      18.279   1.541  33.300  1.00  0.00     0.108 A 
HETATM    7  C5  UNK     1      17.962   2.055  34.494  1.00  0.00     0.037 A 
HETATM    8  C8  UNK     1      17.640   1.703  36.945  1.00  0.00     0.014 A 
HETATM    9  C10 UNK     1      18.001  -0.493  37.903  1.00  0.00     0.010 A 
HETATM   10  C12 UNK     1      18.644   0.116  33.137  1.00  0.00     0.304 A 
HETATM   11  C13 UNK     1      17.658   0.852  38.054  1.00  0.00     0.002 A 
ENDROOT
BRANCH   6  12
HETATM   12  C11 UNK     1      18.247   2.471  32.165  1.00  0.00     0.258 C 
HETATM   13  O2  UNK     1      18.313   2.057  31.007  1.00  0.00    -0.267 OA
HETATM   14  N1  UNK     1      18.143   3.793  32.556  1.00  0.00    -0.352 N 
HETATM   15  H8  UNK     1      18.110   4.034  33.541  1.00  0.00     0.163 HD
BRANCH  14  16
HETATM   16  C6  UNK     1      18.095   4.891  31.616  1.00  0.00     0.164 C 
BRANCH  16  17
HETATM   17  C9  UNK     1      17.612   6.159  32.257  1.00  0.00    -0.004 A 
HETATM   18  C14 UNK     1      17.376   6.360  33.576  1.00  0.00     0.122 A 
HETATM   19  N2  UNK     1      16.955   7.656  33.663  1.00  0.00    -0.285 N 
HETATM   20  C17 UNK     1      16.577   8.354  34.868  1.00  0.00     0.179 C 
HETATM   21  N3  UNK     1      16.910   8.292  32.481  1.00  0.00    -0.185 NA
HETATM   22  C15 UNK     1      17.318   7.357  31.617  1.00  0.00     0.149 A 
ENDBRANCH  16  17
ENDBRANCH  14  16
ENDBRANCH   6  12
BRANCH   5  23
HETATM   23  C7  UNK     1      18.693  -2.432  36.494  1.00  0.00     0.067 C 
BRANCH  23  24
HETATM   24  C16 UNK     1      19.961  -2.797  37.222  1.00  0.00    -0.032 C 
HETATM   25  C18 UNK     1      20.481  -4.030  37.253  1.00  0.00     0.007 C 
ENDBRANCH  23  24
ENDBRANCH   5  23
TORSDOF 5
ENDMDL
MODEL 9
REMARK VINA RESULT:      -7.7     14.746     17.847
REMARK  5 active torsions:
REMARK  status: ('A' for Active; 'I' for Inactive)
REMARK       I    between atoms: C11_17  and  N1_4 
REMARK    1  A    between atoms: C6_12  and  N1_4 
REMARK    2  A    between atoms: C3_9  and  C7_13 
REMARK    3  A    between atoms: C11_17  and  C4_10 
REMARK    4  A    between atoms: C6_12  and  C9_15 
REMARK    5  A    between atoms: C16_22  and  C7_13 
ROOT
HETATM    1  O1  UNK     1      19.321   1.228  16.366  1.00  0.00    -0.273 OA
HETATM    2  O3  UNK     1      19.450   0.158  14.352  1.00  0.00    -0.259 OA
HETATM    3  C1  UNK     1      19.132   1.161  17.761  1.00  0.00     0.096 A 
HETATM    4  C2  UNK     1      18.901  -0.060  18.385  1.00  0.00    -0.000 A 
HETATM    5  C3  UNK     1      19.185   2.355  18.479  1.00  0.00    -0.020 A 
HETATM    6  C4  UNK     1      19.038  -1.198  16.251  1.00  0.00     0.108 A 
HETATM    7  C5  UNK     1      18.856  -1.268  17.575  1.00  0.00     0.037 A 
HETATM    8  C8  UNK     1      18.719  -0.085  19.769  1.00  0.00     0.014 A 
HETATM    9  C10 UNK     1      19.003   2.320  19.860  1.00  0.00     0.010 A 
HETATM   10  C12 UNK     1      19.284   0.090  15.565  1.00  0.00     0.304 A 
HETATM   11  C13 UNK     1      18.770   1.103  20.504  1.00  0.00     0.002 A 
ENDROOT
BRANCH   6  12
HETATM   12  C11 UNK     1      18.975  -2.469  15.520  1.00  0.00     0.258 C 
HETATM   13  O2  UNK     1      17.990  -3.202  15.609  1.00  0.00    -0.267 OA
HETATM   14  N1  UNK     1      20.109  -2.713  14.767  1.00  0.00    -0.352 N 
HETATM   15  H8  UNK     1      20.878  -2.050  14.771  1.00  0.00     0.163 HD
BRANCH  14  16
HETATM   16  C6  UNK     1      20.281  -3.902  13.963  1.00  0.00     0.164 C 
BRANCH  16  17
HETATM   17  C9  UNK     1      19.688  -3.746  12.594  1.00  0.00    -0.004 A 
HETATM   18  C14 UNK     1      19.322  -4.742  11.751  1.00  0.00     0.122 A 
HETATM   19  N2  UNK     1      18.843  -4.106  10.643  1.00  0.00    -0.285 N 
HETATM   20  C17 UNK     1      18.326  -4.735   9.451  1.00  0.00     0.179 C 
HETATM   21  N3  UNK     1      18.881  -2.766  10.728  1.00  0.00    -0.185 NA
HETATM   22  C15 UNK     1      19.406  -2.553  11.938  1.00  0.00     0.149 A 
ENDBRANCH  16  17
ENDBRANCH  14  16
ENDBRANCH   6  12
BRANCH   5  23
HETATM   23  C7  UNK     1      19.434   3.660  17.800  1.00  0.00     0.067 C 
BRANCH  23  24
HETATM   24  C16 UNK     1      20.510   4.475  18.469  1.00  0.00    -0.032 C 
HETATM   25  C18 UNK     1      21.814   4.375  18.186  1.00  0.00     0.007 C 
ENDBRANCH  23  24
ENDBRANCH   5  23
TORSDOF 5
ENDMDL
MODEL 10
REMARK VINA RESULT:      -7.7     23.256     24.907
REMARK  5 active torsions:
REMARK  status: ('A' for Active; 'I' for Inactive)
REMARK       I    between atoms: C11_17  and  N1_4 
REMARK    1  A    between atoms: C6_12  and  N1_4 
REMARK    2  A    between atoms: C3_9  and  C7_13 
REMARK    3  A    between atoms: C11_17  and  C4_10 
REMARK    4  A    between atoms: C6_12  and  C9_15 
REMARK    5  A    between atoms: C16_22  and  C7_13 
ROOT
HETATM    1  O1  UNK     1      11.148   7.428   9.571  1.00  0.00    -0.273 OA
HETATM    2  O3  UNK     1      12.757   7.968  11.100  1.00  0.00    -0.259 OA
HETATM    3  C1  UNK     1      10.810   6.972   8.281  1.00  0.00     0.096 A 
HETATM    4  C2  UNK     1      11.803   6.649   7.363  1.00  0.00    -0.000 A 
HETATM    5  C3  UNK     1       9.456   6.862   7.968  1.00  0.00    -0.020 A 
HETATM    6  C4  UNK     1      13.512   7.220   8.982  1.00  0.00     0.108 A 
HETATM    7  C5  UNK     1      13.197   6.788   7.755  1.00  0.00     0.037 A 
HETATM    8  C8  UNK     1      11.428   6.199   6.095  1.00  0.00     0.014 A 
HETATM    9  C10 UNK     1       9.091   6.413   6.701  1.00  0.00     0.010 A 
HETATM   10  C12 UNK     1      12.472   7.571   9.975  1.00  0.00     0.304 A 
HETATM   11  C13 UNK     1      10.074   6.083   5.765  1.00  0.00     0.002 A 
ENDROOT
BRANCH   6  12
HETATM   12  C11 UNK     1      14.945   7.328   9.284  1.00  0.00     0.258 C 
HETATM   13  O2  UNK     1      15.657   6.326   9.332  1.00  0.00    -0.267 OA
HETATM   14  N1  UNK     1      15.353   8.632   9.496  1.00  0.00    -0.352 N 
HETATM   15  H8  UNK     1      14.682   9.392   9.448  1.00  0.00     0.163 HD
BRANCH  14  16
HETATM   16  C6  UNK     1      16.718   8.989   9.811  1.00  0.00     0.164 C 
BRANCH  16  17
HETATM   17  C9  UNK     1      17.082  10.344   9.279  1.00  0.00    -0.004 A 
HETATM   18  C14 UNK     1      16.380  11.076   8.379  1.00  0.00     0.122 A 
HETATM   19  N2  UNK     1      17.106  12.220   8.215  1.00  0.00    -0.285 N 
HETATM   20  C17 UNK     1      16.775  13.328   7.352  1.00  0.00     0.179 C 
HETATM   21  N3  UNK     1      18.226  12.262   8.956  1.00  0.00    -0.185 NA
HETATM   22  C15 UNK     1      18.203  11.097   9.609  1.00  0.00     0.149 A 
ENDBRANCH  16  17
ENDBRANCH  14  16
ENDBRANCH   6  12
BRANCH   5  23
HETATM   23  C7  UNK     1       8.398   7.212   8.960  1.00  0.00     0.067 C 
BRANCH  23  24
HETATM   24  C16 UNK     1       7.665   6.005   9.489  1.00  0.00    -0.032 C 
HETATM   25  C18 UNK     1       8.266   4.937  10.024  1.00  0.00     0.007 C 
ENDBRANCH  23  24
ENDBRANCH   5  23
TORSDOF 5
ENDMDL
