MODEL 1
REMARK VINA RESULT:      -7.2      0.000      0.000
REMARK  1 active torsions:
REMARK  status: ('A' for Active; 'I' for Inactive)
REMARK       I    between atoms: C10_14  and  N1_4 
REMARK    1  A    between atoms: C10_14  and  C4_8 
ROOT
HETATM    1  O1  UNK     1      18.943   0.429  32.216  1.00  0.00    -0.274 OA
HETATM    2  O2  UNK     1      17.992   2.504  32.118  1.00  0.00    -0.259 OA
HETATM    3  C1  UNK     1      19.888  -0.556  30.204  1.00  0.00    -0.001 A 
HETATM    4  C2  UNK     1      19.598  -0.634  31.563  1.00  0.00     0.089 A 
HETATM    5  C3  UNK     1      19.505   0.640  29.470  1.00  0.00     0.037 A 
HETATM    6  C4  UNK     1      18.882   1.646  30.097  1.00  0.00     0.108 A 
HETATM    7  C5  UNK     1      20.539  -1.629  29.592  1.00  0.00     0.014 A 
HETATM    8  C6  UNK     1      19.937  -1.750  32.323  1.00  0.00     0.038 A 
HETATM    9  C7  UNK     1      18.563   1.586  31.541  1.00  0.00     0.304 A 
HETATM   10  C8  UNK     1      20.887  -2.756  30.342  1.00  0.00     0.001 A 
HETATM   11  C9  UNK     1      20.586  -2.816  31.705  1.00  0.00     0.003 A 
ENDROOT
BRANCH   6  12
HETATM   12  C10 UNK     1      18.535   2.808  29.271  1.00  0.00     0.255 C 
HETATM   13  O3  UNK     1      17.915   2.688  28.218  1.00  0.00    -0.268 OA
HETATM   14  N1  UNK     1      18.971   4.000  29.798  1.00  0.00    -0.366 N 
HETATM   15  H6  UNK     1      18.793   4.877  29.319  1.00  0.00     0.159 HD
HETATM   16  H7  UNK     1      19.481   4.058  30.674  1.00  0.00     0.159 HD
ENDBRANCH   6  12
TORSDOF 1
ENDMDL
MODEL 2
REMARK VINA RESULT:      -7.0      2.770      4.272
REMARK  1 active torsions:
REMARK  status: ('A' for Active; 'I' for Inactive)
REMARK       I    between atoms: C10_14  and  N1_4 
REMARK    1  A    between atoms: C10_14  and  C4_8 
ROOT
HETATM    1  O1  UNK     1      18.653   1.128  31.879  1.00  0.00    -0.274 OA
HETATM    2  O2  UNK     1      17.604   1.706  33.824  1.00  0.00    -0.259 OA
HETATM    3  C1  UNK     1      19.560  -1.113  31.624  1.00  0.00    -0.001 A 
HETATM    4  C2  UNK     1      19.331   0.160  31.111  1.00  0.00     0.089 A 
HETATM    5  C3  UNK     1      19.089  -1.429  32.964  1.00  0.00     0.037 A 
HETATM    6  C4  UNK     1      18.447  -0.504  33.688  1.00  0.00     0.108 A 
HETATM    7  C5  UNK     1      20.236  -2.046  30.833  1.00  0.00     0.014 A 
HETATM    8  C6  UNK     1      19.756   0.526  29.837  1.00  0.00     0.038 A 
HETATM    9  C7  UNK     1      18.191   0.857  33.164  1.00  0.00     0.304 A 
HETATM   10  C8  UNK     1      20.667  -1.694  29.552  1.00  0.00     0.001 A 
HETATM   11  C9  UNK     1      20.428  -0.410  29.055  1.00  0.00     0.003 A 
ENDROOT
BRANCH   6  12
HETATM   12  C10 UNK     1      18.012  -0.917  35.027  1.00  0.00     0.255 C 
HETATM   13  O3  UNK     1      18.789  -0.940  35.978  1.00  0.00    -0.268 OA
HETATM   14  N1  UNK     1      16.683  -1.261  35.086  1.00  0.00    -0.366 N 
HETATM   15  H6  UNK     1      16.262  -1.564  35.959  1.00  0.00     0.159 HD
HETATM   16  H7  UNK     1      16.072  -1.227  34.276  1.00  0.00     0.159 HD
ENDBRANCH   6  12
TORSDOF 1
ENDMDL
MODEL 3
REMARK VINA RESULT:      -7.0      2.996      5.510
REMARK  1 active torsions:
REMARK  status: ('A' for Active; 'I' for Inactive)
REMARK       I    between atoms: C10_14  and  N1_4 
REMARK    1  A    between atoms: C10_14  and  C4_8 
ROOT
HETATM    1  O1  UNK     1      18.225   2.963  32.813  1.00  0.00    -0.274 OA
HETATM    2  O2  UNK     1      18.369   0.863  31.925  1.00  0.00    -0.259 OA
HETATM    3  C1  UNK     1      18.497   4.899  31.367  1.00  0.00    -0.001 A 
HETATM    4  C2  UNK     1      18.267   4.359  32.630  1.00  0.00     0.089 A 
HETATM    5  C3  UNK     1      18.691   3.999  30.241  1.00  0.00     0.037 A 
HETATM    6  C4  UNK     1      18.650   2.673  30.422  1.00  0.00     0.108 A 
HETATM    7  C5  UNK     1      18.532   6.288  31.225  1.00  0.00     0.014 A 
HETATM    8  C6  UNK     1      18.074   5.165  33.748  1.00  0.00     0.038 A 
HETATM    9  C7  UNK     1      18.407   2.076  31.755  1.00  0.00     0.304 A 
HETATM   10  C8  UNK     1      18.339   7.110  32.339  1.00  0.00     0.001 A 
HETATM   11  C9  UNK     1      18.111   6.549  33.598  1.00  0.00     0.003 A 
ENDROOT
BRANCH   6  12
HETATM   12  C10 UNK     1      18.858   1.849  29.226  1.00  0.00     0.255 C 
HETATM   13  O3  UNK     1      18.182   2.002  28.213  1.00  0.00    -0.268 OA
HETATM   14  N1  UNK     1      19.862   0.921  29.372  1.00  0.00    -0.366 N 
HETATM   15  H6  UNK     1      20.102   0.291  28.614  1.00  0.00     0.159 HD
HETATM   16  H7  UNK     1      20.400   0.827  30.228  1.00  0.00     0.159 HD
ENDBRANCH   6  12
TORSDOF 1
ENDMDL
MODEL 4
REMARK VINA RESULT:      -6.9      1.298      2.639
REMARK  1 active torsions:
REMARK  status: ('A' for Active; 'I' for Inactive)
REMARK       I    between atoms: C10_14  and  N1_4 
REMARK    1  A    between atoms: C10_14  and  C4_8 
ROOT
HETATM    1  O1  UNK     1      19.019   1.265  28.623  1.00  0.00    -0.274 OA
HETATM    2  O2  UNK     1      18.169   3.385  28.571  1.00  0.00    -0.259 OA
HETATM    3  C1  UNK     1      19.585   0.250  30.759  1.00  0.00    -0.001 A 
HETATM    4  C2  UNK     1      19.510   0.177  29.370  1.00  0.00     0.089 A 
HETATM    5  C3  UNK     1      19.147   1.468  31.424  1.00  0.00     0.037 A 
HETATM    6  C4  UNK     1      18.683   2.499  30.707  1.00  0.00     0.108 A 
HETATM    7  C5  UNK     1      20.077  -0.849  31.466  1.00  0.00     0.014 A 
HETATM    8  C6  UNK     1      19.913  -0.958  28.673  1.00  0.00     0.038 A 
HETATM    9  C7  UNK     1      18.593   2.444  29.231  1.00  0.00     0.304 A 
HETATM   10  C8  UNK     1      20.485  -1.996  30.779  1.00  0.00     0.001 A 
HETATM   11  C9  UNK     1      20.403  -2.051  29.386  1.00  0.00     0.003 A 
ENDROOT
BRANCH   6  12
HETATM   12  C10 UNK     1      18.267   3.682  31.469  1.00  0.00     0.255 C 
HETATM   13  O3  UNK     1      17.594   3.586  32.491  1.00  0.00    -0.268 OA
HETATM   14  N1  UNK     1      18.705   4.864  30.920  1.00  0.00    -0.366 N 
HETATM   15  H6  UNK     1      18.481   5.753  31.355  1.00  0.00     0.159 HD
HETATM   16  H7  UNK     1      19.261   4.901  30.072  1.00  0.00     0.159 HD
ENDBRANCH   6  12
TORSDOF 1
ENDMDL
MODEL 5
REMARK VINA RESULT:      -6.8      6.842      7.875
REMARK  1 active torsions:
REMARK  status: ('A' for Active; 'I' for Inactive)
REMARK       I    between atoms: C10_14  and  N1_4 
REMARK    1  A    between atoms: C10_14  and  C4_8 
ROOT
HETATM    1  O1  UNK     1      17.686   7.921  34.209  1.00  0.00    -0.274 OA
HETATM    2  O2  UNK     1      15.625   8.676  34.842  1.00  0.00    -0.259 OA
HETATM    3  C1  UNK     1      17.936   6.743  32.096  1.00  0.00    -0.001 A 
HETATM    4  C2  UNK     1      18.492   7.254  33.266  1.00  0.00     0.089 A 
HETATM    5  C3  UNK     1      16.509   6.910  31.864  1.00  0.00     0.037 A 
HETATM    6  C4  UNK     1      15.749   7.544  32.765  1.00  0.00     0.108 A 
HETATM    7  C5  UNK     1      18.767   6.088  31.185  1.00  0.00     0.014 A 
HETATM    8  C6  UNK     1      19.849   7.128  33.548  1.00  0.00     0.038 A 
HETATM    9  C7  UNK     1      16.318   8.095  34.015  1.00  0.00     0.304 A 
HETATM   10  C8  UNK     1      20.132   5.955  31.455  1.00  0.00     0.001 A 
HETATM   11  C9  UNK     1      20.672   6.473  32.634  1.00  0.00     0.003 A 
ENDROOT
BRANCH   6  12
HETATM   12  C10 UNK     1      14.322   7.660  32.441  1.00  0.00     0.255 C 
HETATM   13  O3  UNK     1      13.694   6.724  31.955  1.00  0.00    -0.268 OA
HETATM   14  N1  UNK     1      13.796   8.896  32.735  1.00  0.00    -0.366 N 
HETATM   15  H6  UNK     1      12.819   9.100  32.556  1.00  0.00     0.159 HD
HETATM   16  H7  UNK     1      14.350   9.645  33.138  1.00  0.00     0.159 HD
ENDBRANCH   6  12
TORSDOF 1
ENDMDL
MODEL 6
REMARK VINA RESULT:      -6.7     22.668     24.547
REMARK  1 active torsions:
REMARK  status: ('A' for Active; 'I' for Inactive)
REMARK       I    between atoms: C10_14  and  N1_4 
REMARK    1  A    between atoms: C10_14  and  C4_8 
ROOT
HETATM    1  O1  UNK     1      11.219   7.202   9.488  1.00  0.00    -0.274 OA
HETATM    2  O2  UNK     1      12.951   7.458  10.957  1.00  0.00    -0.259 OA
HETATM    3  C1  UNK     1      11.656   6.348   7.254  1.00  0.00    -0.001 A 
HETATM    4  C2  UNK     1      10.763   6.822   8.211  1.00  0.00     0.089 A 
HETATM    5  C3  UNK     1      13.067   6.252   7.595  1.00  0.00     0.037 A 
HETATM    6  C4  UNK     1      13.494   6.616   8.810  1.00  0.00     0.108 A 
HETATM    7  C5  UNK     1      11.166   5.980   5.999  1.00  0.00     0.014 A 
HETATM    8  C6  UNK     1       9.400   6.938   7.950  1.00  0.00     0.038 A 
HETATM    9  C7  UNK     1      12.564   7.123   9.844  1.00  0.00     0.304 A 
HETATM   10  C8  UNK     1       9.800   6.090   5.722  1.00  0.00     0.001 A 
HETATM   11  C9  UNK     1       8.919   6.569   6.696  1.00  0.00     0.003 A 
ENDROOT
BRANCH   6  12
HETATM   12  C10 UNK     1      14.935   6.484   9.057  1.00  0.00     0.255 C 
HETATM   13  O3  UNK     1      15.537   5.443   8.812  1.00  0.00    -0.268 OA
HETATM   14  N1  UNK     1      15.505   7.623   9.575  1.00  0.00    -0.366 N 
HETATM   15  H6  UNK     1      16.497   7.656   9.789  1.00  0.00     0.159 HD
HETATM   16  H7  UNK     1      14.972   8.465   9.762  1.00  0.00     0.159 HD
ENDBRANCH   6  12
TORSDOF 1
ENDMDL
MODEL 7
REMARK VINA RESULT:      -6.6     12.987     14.751
REMARK  1 active torsions:
REMARK  status: ('A' for Active; 'I' for Inactive)
REMARK       I    between atoms: C10_14  and  N1_4 
REMARK    1  A    between atoms: C10_14  and  C4_8 
ROOT
HETATM    1  O1  UNK     1      19.378   1.086  15.434  1.00  0.00    -0.274 OA
HETATM    2  O2  UNK     1      19.413  -0.516  13.805  1.00  0.00    -0.259 OA
HETATM    3  C1  UNK     1      18.912   0.450  17.734  1.00  0.00    -0.001 A 
HETATM    4  C2  UNK     1      19.206   1.429  16.789  1.00  0.00     0.089 A 
HETATM    5  C3  UNK     1      18.786  -0.933  17.299  1.00  0.00     0.037 A 
HETATM    6  C4  UNK     1      18.949  -1.251  16.009  1.00  0.00     0.108 A 
HETATM    7  C5  UNK     1      18.749   0.829  19.068  1.00  0.00     0.014 A 
HETATM    8  C6  UNK     1      19.341   2.770  17.140  1.00  0.00     0.038 A 
HETATM    9  C7  UNK     1      19.263  -0.228  14.987  1.00  0.00     0.304 A 
HETATM   10  C8  UNK     1      18.882   2.171  19.435  1.00  0.00     0.001 A 
HETATM   11  C9  UNK     1      19.176   3.140  18.473  1.00  0.00     0.003 A 
ENDROOT
BRANCH   6  12
HETATM   12  C10 UNK     1      18.801  -2.671  15.669  1.00  0.00     0.255 C 
HETATM   13  O3  UNK     1      17.709  -3.232  15.708  1.00  0.00    -0.268 OA
HETATM   14  N1  UNK     1      19.985  -3.274  15.316  1.00  0.00    -0.366 N 
HETATM   15  H6  UNK     1      20.013  -4.255  15.060  1.00  0.00     0.159 HD
HETATM   16  H7  UNK     1      20.868  -2.774  15.296  1.00  0.00     0.159 HD
ENDBRANCH   6  12
TORSDOF 1
ENDMDL
MODEL 8
REMARK VINA RESULT:      -6.6      8.523     10.367
REMARK  1 active torsions:
REMARK  status: ('A' for Active; 'I' for Inactive)
REMARK       I    between atoms: C10_14  and  N1_4 
REMARK    1  A    between atoms: C10_14  and  C4_8 
ROOT
HETATM    1  O1  UNK     1      21.108  -7.603  35.061  1.00  0.00    -0.274 OA
HETATM    2  O2  UNK     1      20.210  -5.541  34.659  1.00  0.00    -0.259 OA
HETATM    3  C1  UNK     1      20.027  -9.095  36.648  1.00  0.00    -0.001 A 
HETATM    4  C2  UNK     1      21.053  -8.834  35.745  1.00  0.00     0.089 A 
HETATM    5  C3  UNK     1      19.013  -8.076  36.875  1.00  0.00     0.037 A 
HETATM    6  C4  UNK     1      19.071  -6.909  36.223  1.00  0.00     0.108 A 
HETATM    7  C5  UNK     1      20.006 -10.326  37.307  1.00  0.00     0.014 A 
HETATM    8  C6  UNK     1      22.054  -9.765  35.483  1.00  0.00     0.038 A 
HETATM    9  C7  UNK     1      20.152  -6.609  35.257  1.00  0.00     0.304 A 
HETATM   10  C8  UNK     1      21.004 -11.271  37.053  1.00  0.00     0.001 A 
HETATM   11  C9  UNK     1      22.026 -10.991  36.143  1.00  0.00     0.003 A 
ENDROOT
BRANCH   6  12
HETATM   12  C10 UNK     1      18.004  -5.947  36.520  1.00  0.00     0.255 C 
HETATM   13  O3  UNK     1      16.825  -6.287  36.567  1.00  0.00    -0.268 OA
HETATM   14  N1  UNK     1      18.465  -4.669  36.730  1.00  0.00    -0.366 N 
HETATM   15  H6  UNK     1      17.823  -3.913  36.944  1.00  0.00     0.159 HD
HETATM   16  H7  UNK     1      19.450  -4.428  36.683  1.00  0.00     0.159 HD
ENDBRANCH   6  12
TORSDOF 1
ENDMDL
MODEL 9
REMARK VINA RESULT:      -6.6      6.456      7.851
REMARK  1 active torsions:
REMARK  status: ('A' for Active; 'I' for Inactive)
REMARK       I    between atoms: C10_14  and  N1_4 
REMARK    1  A    between atoms: C10_14  and  C4_8 
ROOT
HETATM    1  O1  UNK     1      17.324   6.978  30.983  1.00  0.00    -0.274 OA
HETATM    2  O2  UNK     1      15.259   7.800  31.514  1.00  0.00    -0.259 OA
HETATM    3  C1  UNK     1      19.056   6.892  32.688  1.00  0.00    -0.001 A 
HETATM    4  C2  UNK     1      18.638   6.662  31.380  1.00  0.00     0.089 A 
HETATM    5  C3  UNK     1      18.114   7.464  33.637  1.00  0.00     0.037 A 
HETATM    6  C4  UNK     1      16.867   7.763  33.254  1.00  0.00     0.108 A 
HETATM    7  C5  UNK     1      20.367   6.565  33.044  1.00  0.00     0.014 A 
HETATM    8  C6  UNK     1      19.490   6.117  30.423  1.00  0.00     0.038 A 
HETATM    9  C7  UNK     1      16.400   7.527  31.869  1.00  0.00     0.304 A 
HETATM   10  C8  UNK     1      21.233   6.017  32.094  1.00  0.00     0.001 A 
HETATM   11  C9  UNK     1      20.795   5.794  30.786  1.00  0.00     0.003 A 
ENDROOT
BRANCH   6  12
HETATM   12  C10 UNK     1      15.993   8.337  34.283  1.00  0.00     0.255 C 
HETATM   13  O3  UNK     1      16.338   9.304  34.956  1.00  0.00    -0.268 OA
HETATM   14  N1  UNK     1      14.787   7.686  34.398  1.00  0.00    -0.366 N 
HETATM   15  H6  UNK     1      14.096   7.988  35.076  1.00  0.00     0.159 HD
HETATM   16  H7  UNK     1      14.539   6.889  33.821  1.00  0.00     0.159 HD
ENDBRANCH   6  12
TORSDOF 1
ENDMDL
MODEL 10
REMARK VINA RESULT:      -6.6      5.689      7.898
REMARK  1 active torsions:
REMARK  status: ('A' for Active; 'I' for Inactive)
REMARK       I    between atoms: C10_14  and  N1_4 
REMARK    1  A    between atoms: C10_14  and  C4_8 
ROOT
HETATM    1  O1  UNK     1      19.614  -0.920  34.800  1.00  0.00    -0.274 OA
HETATM    2  O2  UNK     1      20.621  -2.881  34.197  1.00  0.00    -0.259 OA
HETATM    3  C1  UNK     1      18.442  -0.776  36.925  1.00  0.00    -0.001 A 
HETATM    4  C2  UNK     1      18.861  -0.186  35.736  1.00  0.00     0.089 A 
HETATM    5  C3  UNK     1      18.794  -2.164  37.184  1.00  0.00     0.037 A 
HETATM    6  C4  UNK     1      19.509  -2.857  36.289  1.00  0.00     0.108 A 
HETATM    7  C5  UNK     1      17.697  -0.016  37.829  1.00  0.00     0.014 A 
HETATM    8  C6  UNK     1      18.557   1.138  35.428  1.00  0.00     0.038 A 
HETATM    9  C7  UNK     1      19.967  -2.250  35.019  1.00  0.00     0.304 A 
HETATM   10  C8  UNK     1      17.385   1.314  37.533  1.00  0.00     0.001 A 
HETATM   11  C9  UNK     1      17.814   1.889  36.335  1.00  0.00     0.003 A 
ENDROOT
BRANCH   6  12
HETATM   12  C10 UNK     1      19.813  -4.249  36.641  1.00  0.00     0.255 C 
HETATM   13  O3  UNK     1      20.952  -4.607  36.926  1.00  0.00    -0.268 OA
HETATM   14  N1  UNK     1      18.711  -5.070  36.613  1.00  0.00    -0.366 N 
HETATM   15  H6  UNK     1      18.793  -6.057  36.837  1.00  0.00     0.159 HD
HETATM   16  H7  UNK     1      17.784  -4.735  36.373  1.00  0.00     0.159 HD
ENDBRANCH   6  12
TORSDOF 1
ENDMDL
