MODEL 1
REMARK VINA RESULT:      -7.6      0.000      0.000
REMARK  4 active torsions:
REMARK  status: ('A' for Active; 'I' for Inactive)
REMARK    1  A    between atoms: C7_11  and  O1_3 
REMARK    2  A    between atoms: C9_13  and  O1_3 
REMARK    3  A    between atoms: C3_7  and  C6_10 
REMARK    4  A    between atoms: C12_16  and  C9_13 
ROOT
HETATM    1 Br1  UNK     1      28.048  -8.464  29.750  1.00  0.00    -0.051 Br
HETATM    2  C3  UNK     1      28.890  -9.373  33.741  1.00  0.00    -0.000 A 
HETATM    3  C7  UNK     1      29.950 -10.288  33.619  1.00  0.00     0.079 A 
HETATM    4  C11 UNK     1      28.330  -8.836  32.569  1.00  0.00     0.033 A 
HETATM    5  C13 UNK     1      30.435 -10.654  32.363  1.00  0.00     0.039 A 
HETATM    6  C16 UNK     1      28.815  -9.202  31.312  1.00  0.00     0.011 A 
HETATM    7  C17 UNK     1      29.868 -10.111  31.210  1.00  0.00     0.022 A 
ENDROOT
BRANCH   2   8
HETATM    8  C6  UNK     1      28.374  -8.981  35.021  1.00  0.00     0.037 C 
HETATM    9  C2  UNK     1      28.773  -7.905  35.703  1.00  0.00     0.057 A 
HETATM   10  C5  UNK     1      28.206  -7.541  37.030  1.00  0.00     0.200 A 
HETATM   11  S1  UNK     1      29.983  -6.784  35.174  1.00  0.00    -0.086 SA
HETATM   12  C1  UNK     1      28.840  -6.314  37.525  1.00  0.00     0.032 A 
HETATM   13  O2  UNK     1      27.344  -8.156  37.632  1.00  0.00    -0.286 OA
HETATM   14  C8  UNK     1      28.551  -5.689  38.730  1.00  0.00     0.017 A 
HETATM   15  C4  UNK     1      29.796  -5.811  36.645  1.00  0.00     0.020 A 
HETATM   16  C14 UNK     1      29.249  -4.525  39.049  1.00  0.00     0.001 A 
HETATM   17  C15 UNK     1      30.214  -4.010  38.171  1.00  0.00     0.001 A 
HETATM   18  C10 UNK     1      30.492  -4.654  36.961  1.00  0.00     0.020 A 
ENDBRANCH   2   8
BRANCH   3  19
HETATM   19  O1  UNK     1      30.522 -10.834  34.729  1.00  0.00    -0.346 OA
BRANCH  19  20
HETATM   20  C9  UNK     1      31.901 -10.549  34.952  1.00  0.00     0.214 C 
BRANCH  20  21
HETATM   21  C12 UNK     1      32.028  -9.641  36.139  1.00  0.00    -0.034 A 
HETATM   22  C18 UNK     1      32.944  -8.595  36.112  1.00  0.00     0.009 A 
HETATM   23  C20 UNK     1      33.062  -7.750  37.215  1.00  0.00     0.001 A 
HETATM   24  C22 UNK     1      32.264  -7.958  38.340  1.00  0.00     0.000 A 
HETATM   25  C21 UNK     1      31.348  -9.009  38.362  1.00  0.00     0.001 A 
HETATM   26  C19 UNK     1      31.229  -9.853  37.258  1.00  0.00     0.009 A 
ENDBRANCH  20  21
ENDBRANCH  19  20
ENDBRANCH   3  19
TORSDOF 4
ENDMDL
MODEL 2
REMARK VINA RESULT:      -7.5     10.908     13.200
REMARK  4 active torsions:
REMARK  status: ('A' for Active; 'I' for Inactive)
REMARK    1  A    between atoms: C7_11  and  O1_3 
REMARK    2  A    between atoms: C9_13  and  O1_3 
REMARK    3  A    between atoms: C3_7  and  C6_10 
REMARK    4  A    between atoms: C12_16  and  C9_13 
ROOT
HETATM    1 Br1  UNK     1      16.500   0.521  36.806  1.00  0.00    -0.051 Br
HETATM    2  C3  UNK     1      19.437  -2.140  35.482  1.00  0.00    -0.000 A 
HETATM    3  C7  UNK     1      19.867  -2.728  36.685  1.00  0.00     0.079 A 
HETATM    4  C11 UNK     1      18.426  -1.165  35.538  1.00  0.00     0.033 A 
HETATM    5  C13 UNK     1      19.303  -2.353  37.904  1.00  0.00     0.039 A 
HETATM    6  C16 UNK     1      17.861  -0.790  36.757  1.00  0.00     0.011 A 
HETATM    7  C17 UNK     1      18.300  -1.384  37.940  1.00  0.00     0.022 A 
ENDROOT
BRANCH   2   8
HETATM    8  C6  UNK     1      20.002  -2.510  34.216  1.00  0.00     0.037 C 
HETATM    9  C2  UNK     1      19.859  -1.810  33.088  1.00  0.00     0.057 A 
HETATM   10  C5  UNK     1      20.465  -2.237  31.798  1.00  0.00     0.200 A 
HETATM   11  S1  UNK     1      18.969  -0.332  32.941  1.00  0.00    -0.086 SA
HETATM   12  C1  UNK     1      20.135  -1.269  30.746  1.00  0.00     0.032 A 
HETATM   13  O2  UNK     1      21.138  -3.236  31.621  1.00  0.00    -0.286 OA
HETATM   14  C8  UNK     1      20.538  -1.352  29.421  1.00  0.00     0.017 A 
HETATM   15  C4  UNK     1      19.351  -0.216  31.213  1.00  0.00     0.020 A 
HETATM   16  C14 UNK     1      20.135  -0.343  28.548  1.00  0.00     0.001 A 
HETATM   17  C15 UNK     1      19.345   0.722  29.007  1.00  0.00     0.001 A 
HETATM   18  C10 UNK     1      18.948   0.789  30.346  1.00  0.00     0.020 A 
ENDBRANCH   2   8
BRANCH   3  19
HETATM   19  O1  UNK     1      20.846  -3.677  36.678  1.00  0.00    -0.346 OA
BRANCH  19  20
HETATM   20  C9  UNK     1      20.775  -4.687  37.682  1.00  0.00     0.214 C 
BRANCH  20  21
HETATM   21  C12 UNK     1      20.041  -5.874  37.133  1.00  0.00    -0.034 A 
HETATM   22  C18 UNK     1      19.964  -6.060  35.758  1.00  0.00     0.009 A 
HETATM   23  C20 UNK     1      19.281  -7.164  35.246  1.00  0.00     0.001 A 
HETATM   24  C22 UNK     1      18.678  -8.074  36.115  1.00  0.00     0.000 A 
HETATM   25  C21 UNK     1      18.759  -7.881  37.493  1.00  0.00     0.001 A 
HETATM   26  C19 UNK     1      19.442  -6.778  38.004  1.00  0.00     0.009 A 
ENDBRANCH  20  21
ENDBRANCH  19  20
ENDBRANCH   3  19
TORSDOF 4
ENDMDL
MODEL 3
REMARK VINA RESULT:      -7.4      1.837      2.222
REMARK  4 active torsions:
REMARK  status: ('A' for Active; 'I' for Inactive)
REMARK    1  A    between atoms: C7_11  and  O1_3 
REMARK    2  A    between atoms: C9_13  and  O1_3 
REMARK    3  A    between atoms: C3_7  and  C6_10 
REMARK    4  A    between atoms: C12_16  and  C9_13 
ROOT
HETATM    1 Br1  UNK     1      27.616  -8.396  30.079  1.00  0.00    -0.051 Br
HETATM    2  C3  UNK     1      30.710  -7.755  32.814  1.00  0.00    -0.000 A 
HETATM    3  C7  UNK     1      31.366  -8.998  32.814  1.00  0.00     0.079 A 
HETATM    4  C11 UNK     1      29.585  -7.593  31.987  1.00  0.00     0.033 A 
HETATM    5  C13 UNK     1      30.912 -10.046  32.013  1.00  0.00     0.039 A 
HETATM    6  C16 UNK     1      29.130  -8.640  31.185  1.00  0.00     0.011 A 
HETATM    7  C17 UNK     1      29.794  -9.866  31.198  1.00  0.00     0.022 A 
ENDROOT
BRANCH   2   8
HETATM    8  C6  UNK     1      31.158  -6.664  33.630  1.00  0.00     0.037 C 
HETATM    9  C2  UNK     1      30.639  -6.339  34.815  1.00  0.00     0.057 A 
HETATM   10  C5  UNK     1      31.140  -5.194  35.623  1.00  0.00     0.200 A 
HETATM   11  S1  UNK     1      29.331  -7.169  35.590  1.00  0.00    -0.086 SA
HETATM   12  C1  UNK     1      30.375  -5.090  36.871  1.00  0.00     0.032 A 
HETATM   13  O2  UNK     1      32.048  -4.444  35.314  1.00  0.00    -0.286 OA
HETATM   14  C8  UNK     1      30.576  -4.138  37.861  1.00  0.00     0.017 A 
HETATM   15  C4  UNK     1      29.390  -6.070  36.980  1.00  0.00     0.020 A 
HETATM   16  C14 UNK     1      29.757  -4.182  38.989  1.00  0.00     0.001 A 
HETATM   17  C15 UNK     1      28.761  -5.163  39.108  1.00  0.00     0.001 A 
HETATM   18  C10 UNK     1      28.574  -6.114  38.100  1.00  0.00     0.020 A 
ENDBRANCH   2   8
BRANCH   3  19
HETATM   19  O1  UNK     1      32.461  -9.201  33.601  1.00  0.00    -0.346 OA
BRANCH  19  20
HETATM   20  C9  UNK     1      32.339 -10.168  34.642  1.00  0.00     0.214 C 
BRANCH  20  21
HETATM   21  C12 UNK     1      32.257  -9.459  35.962  1.00  0.00    -0.034 A 
HETATM   22  C18 UNK     1      33.095  -8.380  36.217  1.00  0.00     0.009 A 
HETATM   23  C20 UNK     1      33.020  -7.721  37.445  1.00  0.00     0.001 A 
HETATM   24  C22 UNK     1      32.106  -8.147  38.409  1.00  0.00     0.000 A 
HETATM   25  C21 UNK     1      31.269  -9.230  38.147  1.00  0.00     0.001 A 
HETATM   26  C19 UNK     1      31.344  -9.888  36.919  1.00  0.00     0.009 A 
ENDBRANCH  20  21
ENDBRANCH  19  20
ENDBRANCH   3  19
TORSDOF 4
ENDMDL
MODEL 4
REMARK VINA RESULT:      -7.4     10.657     12.861
REMARK  4 active torsions:
REMARK  status: ('A' for Active; 'I' for Inactive)
REMARK    1  A    between atoms: C7_11  and  O1_3 
REMARK    2  A    between atoms: C9_13  and  O1_3 
REMARK    3  A    between atoms: C3_7  and  C6_10 
REMARK    4  A    between atoms: C12_16  and  C9_13 
ROOT
HETATM    1 Br1  UNK     1      17.028   1.067  36.861  1.00  0.00    -0.051 Br
HETATM    2  C3  UNK     1      19.438  -2.071  35.517  1.00  0.00    -0.000 A 
HETATM    3  C7  UNK     1      19.638  -2.814  36.693  1.00  0.00     0.079 A 
HETATM    4  C11 UNK     1      18.652  -0.907  35.586  1.00  0.00     0.033 A 
HETATM    5  C13 UNK     1      19.071  -2.406  37.900  1.00  0.00     0.039 A 
HETATM    6  C16 UNK     1      18.084  -0.499  36.793  1.00  0.00     0.011 A 
HETATM    7  C17 UNK     1      18.293  -1.249  37.950  1.00  0.00     0.022 A 
ENDROOT
BRANCH   2   8
HETATM    8  C6  UNK     1      20.011  -2.470  34.264  1.00  0.00     0.037 C 
HETATM    9  C2  UNK     1      19.876  -1.797  33.119  1.00  0.00     0.057 A 
HETATM   10  C5  UNK     1      20.491  -2.254  31.843  1.00  0.00     0.200 A 
HETATM   11  S1  UNK     1      18.986  -0.323  32.930  1.00  0.00    -0.086 SA
HETATM   12  C1  UNK     1      20.167  -1.312  30.766  1.00  0.00     0.032 A 
HETATM   13  O2  UNK     1      21.165  -3.257  31.694  1.00  0.00    -0.286 OA
HETATM   14  C8  UNK     1      20.579  -1.426  29.446  1.00  0.00     0.017 A 
HETATM   15  C4  UNK     1      19.380  -0.249  31.203  1.00  0.00     0.020 A 
HETATM   16  C14 UNK     1      20.182  -0.438  28.546  1.00  0.00     0.001 A 
HETATM   17  C15 UNK     1      19.388   0.636  28.974  1.00  0.00     0.001 A 
HETATM   18  C10 UNK     1      18.982   0.735  30.309  1.00  0.00     0.020 A 
ENDBRANCH   2   8
BRANCH   3  19
HETATM   19  O1  UNK     1      20.394  -3.948  36.673  1.00  0.00    -0.346 OA
BRANCH  19  20
HETATM   20  C9  UNK     1      19.708  -5.186  36.843  1.00  0.00     0.214 C 
BRANCH  20  21
HETATM   21  C12 UNK     1      20.444  -6.021  37.849  1.00  0.00    -0.034 A 
HETATM   22  C18 UNK     1      21.783  -5.758  38.114  1.00  0.00     0.009 A 
HETATM   23  C20 UNK     1      22.469  -6.534  39.049  1.00  0.00     0.001 A 
HETATM   24  C22 UNK     1      21.809  -7.569  39.713  1.00  0.00     0.000 A 
HETATM   25  C21 UNK     1      20.466  -7.827  39.442  1.00  0.00     0.001 A 
HETATM   26  C19 UNK     1      19.781  -7.051  38.507  1.00  0.00     0.009 A 
ENDBRANCH  20  21
ENDBRANCH  19  20
ENDBRANCH   3  19
TORSDOF 4
ENDMDL
MODEL 5
REMARK VINA RESULT:      -7.4     10.417     12.927
REMARK  4 active torsions:
REMARK  status: ('A' for Active; 'I' for Inactive)
REMARK    1  A    between atoms: C7_11  and  O1_3 
REMARK    2  A    between atoms: C9_13  and  O1_3 
REMARK    3  A    between atoms: C3_7  and  C6_10 
REMARK    4  A    between atoms: C12_16  and  C9_13 
ROOT
HETATM    1 Br1  UNK     1      16.704   0.789  37.124  1.00  0.00    -0.051 Br
HETATM    2  C3  UNK     1      19.563  -1.976  35.842  1.00  0.00    -0.000 A 
HETATM    3  C7  UNK     1      19.451  -1.890  34.443  1.00  0.00     0.079 A 
HETATM    4  C11 UNK     1      18.729  -1.165  36.632  1.00  0.00     0.033 A 
HETATM    5  C13 UNK     1      18.535  -1.020  33.853  1.00  0.00     0.039 A 
HETATM    6  C16 UNK     1      17.812  -0.294  36.041  1.00  0.00     0.011 A 
HETATM    7  C17 UNK     1      17.716  -0.222  34.652  1.00  0.00     0.022 A 
ENDROOT
BRANCH   2   8
HETATM    8  C6  UNK     1      20.497  -2.864  36.473  1.00  0.00     0.037 C 
HETATM    9  C2  UNK     1      20.214  -4.105  36.874  1.00  0.00     0.057 A 
HETATM   10  C5  UNK     1      21.220  -4.987  37.525  1.00  0.00     0.200 A 
HETATM   11  S1  UNK     1      18.670  -4.875  36.711  1.00  0.00    -0.086 SA
HETATM   12  C1  UNK     1      20.614  -6.283  37.849  1.00  0.00     0.032 A 
HETATM   13  O2  UNK     1      22.378  -4.696  37.762  1.00  0.00    -0.286 OA
HETATM   14  C8  UNK     1      21.265  -7.345  38.460  1.00  0.00     0.017 A 
HETATM   15  C4  UNK     1      19.274  -6.357  37.474  1.00  0.00     0.020 A 
HETATM   16  C14 UNK     1      20.538  -8.512  38.697  1.00  0.00     0.001 A 
HETATM   17  C15 UNK     1      19.188  -8.597  38.325  1.00  0.00     0.001 A 
HETATM   18  C10 UNK     1      18.549  -7.516  37.709  1.00  0.00     0.020 A 
ENDBRANCH   2   8
BRANCH   3  19
HETATM   19  O1  UNK     1      20.239  -2.659  33.639  1.00  0.00    -0.346 OA
BRANCH  19  20
HETATM   20  C9  UNK     1      21.321  -2.006  32.979  1.00  0.00     0.214 C 
BRANCH  20  21
HETATM   21  C12 UNK     1      20.899  -1.647  31.585  1.00  0.00    -0.034 A 
HETATM   22  C18 UNK     1      20.781  -0.309  31.224  1.00  0.00     0.009 A 
HETATM   23  C20 UNK     1      20.388   0.026  29.928  1.00  0.00     0.001 A 
HETATM   24  C22 UNK     1      20.115  -0.981  29.001  1.00  0.00     0.000 A 
HETATM   25  C21 UNK     1      20.235  -2.320  29.370  1.00  0.00     0.001 A 
HETATM   26  C19 UNK     1      20.629  -2.654  30.665  1.00  0.00     0.009 A 
ENDBRANCH  20  21
ENDBRANCH  19  20
ENDBRANCH   3  19
TORSDOF 4
ENDMDL
MODEL 6
REMARK VINA RESULT:      -7.3      3.094      6.141
REMARK  4 active torsions:
REMARK  status: ('A' for Active; 'I' for Inactive)
REMARK    1  A    between atoms: C7_11  and  O1_3 
REMARK    2  A    between atoms: C9_13  and  O1_3 
REMARK    3  A    between atoms: C3_7  and  C6_10 
REMARK    4  A    between atoms: C12_16  and  C9_13 
ROOT
HETATM    1 Br1  UNK     1      27.505  -9.931  39.612  1.00  0.00    -0.051 Br
HETATM    2  C3  UNK     1      29.523  -7.314  37.056  1.00  0.00    -0.000 A 
HETATM    3  C7  UNK     1      29.355  -6.079  37.705  1.00  0.00     0.079 A 
HETATM    4  C11 UNK     1      28.960  -8.461  37.642  1.00  0.00     0.033 A 
HETATM    5  C13 UNK     1      28.646  -5.993  38.903  1.00  0.00     0.039 A 
HETATM    6  C16 UNK     1      28.250  -8.375  38.841  1.00  0.00     0.011 A 
HETATM    7  C17 UNK     1      28.094  -7.141  39.471  1.00  0.00     0.022 A 
ENDROOT
BRANCH   2   8
HETATM    8  C6  UNK     1      30.248  -7.428  35.823  1.00  0.00     0.037 C 
HETATM    9  C2  UNK     1      29.714  -7.264  34.611  1.00  0.00     0.057 A 
HETATM   10  C5  UNK     1      30.510  -7.393  33.360  1.00  0.00     0.200 A 
HETATM   11  S1  UNK     1      28.053  -6.885  34.298  1.00  0.00    -0.086 SA
HETATM   12  C1  UNK     1      29.651  -7.158  32.194  1.00  0.00     0.032 A 
HETATM   13  O2  UNK     1      31.698  -7.655  33.292  1.00  0.00    -0.286 OA
HETATM   14  C8  UNK     1      30.064  -7.197  30.870  1.00  0.00     0.017 A 
HETATM   15  C4  UNK     1      28.332  -6.880  32.547  1.00  0.00     0.020 A 
HETATM   16  C14 UNK     1      29.115  -6.948  29.879  1.00  0.00     0.001 A 
HETATM   17  C15 UNK     1      27.784  -6.668  30.222  1.00  0.00     0.001 A 
HETATM   18  C10 UNK     1      27.387  -6.633  31.563  1.00  0.00     0.020 A 
ENDBRANCH   2   8
BRANCH   3  19
HETATM   19  O1  UNK     1      29.884  -4.941  37.171  1.00  0.00    -0.346 OA
BRANCH  19  20
HETATM   20  C9  UNK     1      30.930  -4.308  37.904  1.00  0.00     0.214 C 
BRANCH  20  21
HETATM   21  C12 UNK     1      32.252  -4.738  37.340  1.00  0.00    -0.034 A 
HETATM   22  C18 UNK     1      32.682  -4.222  36.123  1.00  0.00     0.009 A 
HETATM   23  C20 UNK     1      33.912  -4.622  35.598  1.00  0.00     0.001 A 
HETATM   24  C22 UNK     1      34.703  -5.535  36.295  1.00  0.00     0.000 A 
HETATM   25  C21 UNK     1      34.266  -6.049  37.516  1.00  0.00     0.001 A 
HETATM   26  C19 UNK     1      33.037  -5.648  38.040  1.00  0.00     0.009 A 
ENDBRANCH  20  21
ENDBRANCH  19  20
ENDBRANCH   3  19
TORSDOF 4
ENDMDL
MODEL 7
REMARK VINA RESULT:      -7.2      3.387      6.139
REMARK  4 active torsions:
REMARK  status: ('A' for Active; 'I' for Inactive)
REMARK    1  A    between atoms: C7_11  and  O1_3 
REMARK    2  A    between atoms: C9_13  and  O1_3 
REMARK    3  A    between atoms: C3_7  and  C6_10 
REMARK    4  A    between atoms: C12_16  and  C9_13 
ROOT
HETATM    1 Br1  UNK     1      26.303  -8.891  38.455  1.00  0.00    -0.051 Br
HETATM    2  C3  UNK     1      29.156  -6.378  36.721  1.00  0.00    -0.000 A 
HETATM    3  C7  UNK     1      29.620  -5.649  37.830  1.00  0.00     0.079 A 
HETATM    4  C11 UNK     1      28.158  -7.347  36.927  1.00  0.00     0.033 A 
HETATM    5  C13 UNK     1      29.104  -5.882  39.104  1.00  0.00     0.039 A 
HETATM    6  C16 UNK     1      27.641  -7.580  38.202  1.00  0.00     0.011 A 
HETATM    7  C17 UNK     1      28.115  -6.848  39.291  1.00  0.00     0.022 A 
ENDROOT
BRANCH   2   8
HETATM    8  C6  UNK     1      29.671  -6.156  35.401  1.00  0.00     0.037 C 
HETATM    9  C2  UNK     1      30.717  -6.799  34.877  1.00  0.00     0.057 A 
HETATM   10  C5  UNK     1      31.214  -6.532  33.500  1.00  0.00     0.200 A 
HETATM   11  S1  UNK     1      31.645  -8.017  35.688  1.00  0.00    -0.086 SA
HETATM   12  C1  UNK     1      32.369  -7.390  33.210  1.00  0.00     0.032 A 
HETATM   13  O2  UNK     1      30.748  -5.726  32.715  1.00  0.00    -0.286 OA
HETATM   14  C8  UNK     1      33.080  -7.406  32.019  1.00  0.00     0.017 A 
HETATM   15  C4  UNK     1      32.701  -8.221  34.278  1.00  0.00     0.020 A 
HETATM   16  C14 UNK     1      34.156  -8.287  31.908  1.00  0.00     0.001 A 
HETATM   17  C15 UNK     1      34.500  -9.127  32.978  1.00  0.00     0.001 A 
HETATM   18  C10 UNK     1      33.771  -9.097  34.171  1.00  0.00     0.020 A 
ENDBRANCH   2   8
BRANCH   3  19
HETATM   19  O1  UNK     1      30.585  -4.699  37.676  1.00  0.00    -0.346 OA
BRANCH  19  20
HETATM   20  C9  UNK     1      31.840  -4.942  38.309  1.00  0.00     0.214 C 
BRANCH  20  21
HETATM   21  C12 UNK     1      32.904  -5.062  37.259  1.00  0.00    -0.034 A 
HETATM   22  C18 UNK     1      32.811  -4.309  36.095  1.00  0.00     0.009 A 
HETATM   23  C20 UNK     1      33.800  -4.421  35.117  1.00  0.00     0.001 A 
HETATM   24  C22 UNK     1      34.877  -5.286  35.312  1.00  0.00     0.000 A 
HETATM   25  C21 UNK     1      34.964  -6.039  36.483  1.00  0.00     0.001 A 
HETATM   26  C19 UNK     1      33.975  -5.927  37.459  1.00  0.00     0.009 A 
ENDBRANCH  20  21
ENDBRANCH  19  20
ENDBRANCH   3  19
TORSDOF 4
ENDMDL
MODEL 8
REMARK VINA RESULT:      -7.2      3.427      6.264
REMARK  4 active torsions:
REMARK  status: ('A' for Active; 'I' for Inactive)
REMARK    1  A    between atoms: C7_11  and  O1_3 
REMARK    2  A    between atoms: C9_13  and  O1_3 
REMARK    3  A    between atoms: C3_7  and  C6_10 
REMARK    4  A    between atoms: C12_16  and  C9_13 
ROOT
HETATM    1 Br1  UNK     1      36.625  -7.154  34.552  1.00  0.00    -0.051 Br
HETATM    2  C3  UNK     1      32.673  -5.810  34.740  1.00  0.00    -0.000 A 
HETATM    3  C7  UNK     1      32.358  -6.006  36.096  1.00  0.00     0.079 A 
HETATM    4  C11 UNK     1      33.959  -6.161  34.293  1.00  0.00     0.033 A 
HETATM    5  C13 UNK     1      33.300  -6.537  36.977  1.00  0.00     0.039 A 
HETATM    6  C16 UNK     1      34.901  -6.692  35.175  1.00  0.00     0.011 A 
HETATM    7  C17 UNK     1      34.571  -6.880  36.517  1.00  0.00     0.022 A 
ENDROOT
BRANCH   2   8
HETATM    8  C6  UNK     1      31.722  -5.266  33.814  1.00  0.00     0.037 C 
HETATM    9  C2  UNK     1      30.828  -5.986  33.132  1.00  0.00     0.057 A 
HETATM   10  C5  UNK     1      29.862  -5.372  32.182  1.00  0.00     0.200 A 
HETATM   11  S1  UNK     1      30.649  -7.706  33.236  1.00  0.00    -0.086 SA
HETATM   12  C1  UNK     1      29.013  -6.413  31.590  1.00  0.00     0.032 A 
HETATM   13  O2  UNK     1      29.772  -4.187  31.919  1.00  0.00    -0.286 OA
HETATM   14  C8  UNK     1      28.002  -6.197  30.665  1.00  0.00     0.017 A 
HETATM   15  C4  UNK     1      29.323  -7.688  32.059  1.00  0.00     0.020 A 
HETATM   16  C14 UNK     1      27.288  -7.302  30.203  1.00  0.00     0.001 A 
HETATM   17  C15 UNK     1      27.592  -8.591  30.667  1.00  0.00     0.001 A 
HETATM   18  C10 UNK     1      28.615  -8.789  31.600  1.00  0.00     0.020 A 
ENDBRANCH   2   8
BRANCH   3  19
HETATM   19  O1  UNK     1      31.123  -5.681  36.572  1.00  0.00    -0.346 OA
BRANCH  19  20
HETATM   20  C9  UNK     1      30.967  -5.634  37.988  1.00  0.00     0.214 C 
BRANCH  20  21
HETATM   21  C12 UNK     1      29.893  -6.599  38.395  1.00  0.00    -0.034 A 
HETATM   22  C18 UNK     1      30.003  -7.940  38.045  1.00  0.00     0.009 A 
HETATM   23  C20 UNK     1      29.004  -8.838  38.423  1.00  0.00     0.001 A 
HETATM   24  C22 UNK     1      27.901  -8.388  39.149  1.00  0.00     0.000 A 
HETATM   25  C21 UNK     1      27.797  -7.042  39.497  1.00  0.00     0.001 A 
HETATM   26  C19 UNK     1      28.796  -6.145  39.119  1.00  0.00     0.009 A 
ENDBRANCH  20  21
ENDBRANCH  19  20
ENDBRANCH   3  19
TORSDOF 4
ENDMDL
MODEL 9
REMARK VINA RESULT:      -7.2      2.460      3.766
REMARK  4 active torsions:
REMARK  status: ('A' for Active; 'I' for Inactive)
REMARK    1  A    between atoms: C7_11  and  O1_3 
REMARK    2  A    between atoms: C9_13  and  O1_3 
REMARK    3  A    between atoms: C3_7  and  C6_10 
REMARK    4  A    between atoms: C12_16  and  C9_13 
ROOT
HETATM    1 Br1  UNK     1      26.771  -6.908  30.407  1.00  0.00    -0.051 Br
HETATM    2  C3  UNK     1      29.840  -7.258  33.221  1.00  0.00    -0.000 A 
HETATM    3  C7  UNK     1      30.664  -6.166  32.897  1.00  0.00     0.079 A 
HETATM    4  C11 UNK     1      28.676  -7.467  32.462  1.00  0.00     0.033 A 
HETATM    5  C13 UNK     1      30.333  -5.309  31.848  1.00  0.00     0.039 A 
HETATM    6  C16 UNK     1      28.344  -6.610  31.411  1.00  0.00     0.011 A 
HETATM    7  C17 UNK     1      29.173  -5.531  31.105  1.00  0.00     0.022 A 
ENDROOT
BRANCH   2   8
HETATM    8  C6  UNK     1      30.159  -8.153  34.296  1.00  0.00     0.037 C 
HETATM    9  C2  UNK     1      29.469  -8.249  35.434  1.00  0.00     0.057 A 
HETATM   10  C5  UNK     1      29.842  -9.194  36.521  1.00  0.00     0.200 A 
HETATM   11  S1  UNK     1      28.065  -7.314  35.828  1.00  0.00    -0.086 SA
HETATM   12  C1  UNK     1      28.899  -9.069  37.638  1.00  0.00     0.032 A 
HETATM   13  O2  UNK     1      30.785  -9.965  36.506  1.00  0.00    -0.286 OA
HETATM   14  C8  UNK     1      28.946  -9.801  38.816  1.00  0.00     0.017 A 
HETATM   15  C4  UNK     1      27.913  -8.113  37.403  1.00  0.00     0.020 A 
HETATM   16  C14 UNK     1      27.968  -9.557  39.780  1.00  0.00     0.001 A 
HETATM   17  C15 UNK     1      26.971  -8.597  39.554  1.00  0.00     0.001 A 
HETATM   18  C10 UNK     1      26.940  -7.869  38.361  1.00  0.00     0.020 A 
ENDBRANCH   2   8
BRANCH   3  19
HETATM   19  O1  UNK     1      31.803  -5.927  33.606  1.00  0.00    -0.346 OA
BRANCH  19  20
HETATM   20  C9  UNK     1      31.761  -4.869  34.561  1.00  0.00     0.214 C 
BRANCH  20  21
HETATM   21  C12 UNK     1      31.707  -5.456  35.941  1.00  0.00    -0.034 A 
HETATM   22  C18 UNK     1      30.728  -5.031  36.832  1.00  0.00     0.009 A 
HETATM   23  C20 UNK     1      30.678  -5.576  38.116  1.00  0.00     0.001 A 
HETATM   24  C22 UNK     1      31.608  -6.543  38.498  1.00  0.00     0.000 A 
HETATM   25  C21 UNK     1      32.587  -6.965  37.599  1.00  0.00     0.001 A 
HETATM   26  C19 UNK     1      32.636  -6.420  36.317  1.00  0.00     0.009 A 
ENDBRANCH  20  21
ENDBRANCH  19  20
ENDBRANCH   3  19
TORSDOF 4
ENDMDL
MODEL 10
REMARK VINA RESULT:      -7.2     13.805     15.813
REMARK  4 active torsions:
REMARK  status: ('A' for Active; 'I' for Inactive)
REMARK    1  A    between atoms: C7_11  and  O1_3 
REMARK    2  A    between atoms: C9_13  and  O1_3 
REMARK    3  A    between atoms: C3_7  and  C6_10 
REMARK    4  A    between atoms: C12_16  and  C9_13 
ROOT
HETATM    1 Br1  UNK     1      17.578   1.274  38.696  1.00  0.00    -0.051 Br
HETATM    2  C3  UNK     1      17.977   0.504  34.608  1.00  0.00    -0.000 A 
HETATM    3  C7  UNK     1      18.307  -0.863  34.596  1.00  0.00     0.079 A 
HETATM    4  C11 UNK     1      17.762   1.130  35.848  1.00  0.00     0.033 A 
HETATM    5  C13 UNK     1      18.420  -1.580  35.786  1.00  0.00     0.039 A 
HETATM    6  C16 UNK     1      17.874   0.412  37.040  1.00  0.00     0.011 A 
HETATM    7  C17 UNK     1      18.203  -0.943  37.008  1.00  0.00     0.022 A 
ENDROOT
BRANCH   2   8
HETATM    8  C6  UNK     1      17.855   1.263  33.397  1.00  0.00     0.037 C 
HETATM    9  C2  UNK     1      18.141   2.562  33.283  1.00  0.00     0.057 A 
HETATM   10  C5  UNK     1      17.997   3.305  32.002  1.00  0.00     0.200 A 
HETATM   11  S1  UNK     1      18.710   3.572  34.571  1.00  0.00    -0.086 SA
HETATM   12  C1  UNK     1      18.386   4.707  32.191  1.00  0.00     0.032 A 
HETATM   13  O2  UNK     1      17.616   2.838  30.944  1.00  0.00    -0.286 OA
HETATM   14  C8  UNK     1      18.376   5.685  31.207  1.00  0.00     0.017 A 
HETATM   15  C4  UNK     1      18.781   4.982  33.499  1.00  0.00     0.020 A 
HETATM   16  C14 UNK     1      18.778   6.973  31.557  1.00  0.00     0.001 A 
HETATM   17  C15 UNK     1      19.178   7.262  32.870  1.00  0.00     0.001 A 
HETATM   18  C10 UNK     1      19.181   6.264  33.849  1.00  0.00     0.020 A 
ENDBRANCH   2   8
BRANCH   3  19
HETATM   19  O1  UNK     1      18.525  -1.510  33.416  1.00  0.00    -0.346 OA
BRANCH  19  20
HETATM   20  C9  UNK     1      19.883  -1.735  33.043  1.00  0.00     0.214 C 
BRANCH  20  21
HETATM   21  C12 UNK     1      20.062  -1.368  31.600  1.00  0.00    -0.034 A 
HETATM   22  C18 UNK     1      20.329  -2.361  30.664  1.00  0.00     0.009 A 
HETATM   23  C20 UNK     1      20.497  -2.020  29.321  1.00  0.00     0.001 A 
HETATM   24  C22 UNK     1      20.394  -0.687  28.924  1.00  0.00     0.000 A 
HETATM   25  C21 UNK     1      20.125   0.305  29.867  1.00  0.00     0.001 A 
HETATM   26  C19 UNK     1      19.958  -0.037  31.209  1.00  0.00     0.009 A 
ENDBRANCH  20  21
ENDBRANCH  19  20
ENDBRANCH   3  19
TORSDOF 4
ENDMDL
