MODEL 1
REMARK VINA RESULT:      -8.0      0.000      0.000
REMARK  3 active torsions:
REMARK  status: ('A' for Active; 'I' for Inactive)
REMARK    1  A    between atoms: C9_13  and  O2_2 
REMARK    2  A    between atoms: C15_19  and  O4_4 
REMARK    3  A    between atoms: C3_7  and  C4_8 
ROOT
HETATM    1  O1  UNK     1      17.490   8.667  32.950  1.00  0.00    -0.309 OA
HETATM    2  O3  UNK     1      14.035   6.771  31.916  1.00  0.00    -0.287 OA
HETATM    3  C1  UNK     1      15.061   8.655  32.907  1.00  0.00     0.051 A 
HETATM    4  C2  UNK     1      16.280   9.248  33.232  1.00  0.00     0.090 A 
HETATM    5  C3  UNK     1      17.498   7.432  32.321  1.00  0.00     0.090 A 
HETATM    6  C5  UNK     1      15.067   7.348  32.232  1.00  0.00     0.187 A 
HETATM    7  C6  UNK     1      16.393   6.764  31.953  1.00  0.00     0.093 A 
HETATM    8  C7  UNK     1      13.859   9.294  33.217  1.00  0.00     0.055 A 
HETATM    9  C8  UNK     1      16.303  10.490  33.870  1.00  0.00     0.041 A 
HETATM   10  C9  UNK     1      13.885  10.535  33.857  1.00  0.00     0.069 A 
HETATM   11  C10 UNK     1      15.104  11.131  34.181  1.00  0.00     0.039 A 
ENDROOT
BRANCH   5  12
HETATM   12  C4  UNK     1      18.851   6.901  32.059  1.00  0.00    -0.002 A 
HETATM   13  C11 UNK     1      19.843   6.993  33.038  1.00  0.00     0.017 A 
HETATM   14  C13 UNK     1      21.122   6.493  32.790  1.00  0.00     0.037 A 
HETATM   15  C15 UNK     1      21.411   5.898  31.562  1.00  0.00     0.065 A 
HETATM   16  C14 UNK     1      20.424   5.803  30.583  1.00  0.00     0.037 A 
HETATM   17  C12 UNK     1      19.145   6.304  30.831  1.00  0.00     0.017 A 
BRANCH  15  18
HETATM   18  O4  UNK     1      22.659   5.409  31.321  1.00  0.00    -0.361 OA
HETATM   19  H12 UNK     1      23.095   5.972  30.659  1.00  0.00     0.217 HD
ENDBRANCH  15  18
ENDBRANCH   5  12
BRANCH  10  20
HETATM   20  O2  UNK     1      12.718  11.166  34.162  1.00  0.00    -0.356 OA
HETATM   21  C16 UNK     1      12.105  11.932  33.126  1.00  0.00     0.210 C 
ENDBRANCH  10  20
TORSDOF 3
ENDMDL
MODEL 2
REMARK VINA RESULT:      -7.7      3.363      7.024
REMARK  3 active torsions:
REMARK  status: ('A' for Active; 'I' for Inactive)
REMARK    1  A    between atoms: C9_13  and  O2_2 
REMARK    2  A    between atoms: C15_19  and  O4_4 
REMARK    3  A    between atoms: C3_7  and  C4_8 
ROOT
HETATM    1  O1  UNK     1      18.800   6.274  31.780  1.00  0.00    -0.309 OA
HETATM    2  O3  UNK     1      18.069   3.213  34.367  1.00  0.00    -0.287 OA
HETATM    3  C1  UNK     1      18.426   3.901  32.134  1.00  0.00     0.051 A 
HETATM    4  C2  UNK     1      18.676   4.993  31.306  1.00  0.00     0.090 A 
HETATM    5  C3  UNK     1      18.663   6.491  33.142  1.00  0.00     0.090 A 
HETATM    6  C5  UNK     1      18.287   4.126  33.581  1.00  0.00     0.187 A 
HETATM    7  C6  UNK     1      18.427   5.522  34.041  1.00  0.00     0.093 A 
HETATM    8  C7  UNK     1      18.310   2.617  31.597  1.00  0.00     0.055 A 
HETATM    9  C8  UNK     1      18.815   4.807  29.929  1.00  0.00     0.041 A 
HETATM   10  C9  UNK     1      18.447   2.435  30.219  1.00  0.00     0.069 A 
HETATM   11  C10 UNK     1      18.700   3.526  29.389  1.00  0.00     0.039 A 
ENDROOT
BRANCH   5  12
HETATM   12  C4  UNK     1      18.822   7.903  33.545  1.00  0.00    -0.002 A 
HETATM   13  C11 UNK     1      17.756   8.796  33.406  1.00  0.00     0.017 A 
HETATM   14  C13 UNK     1      17.907  10.130  33.785  1.00  0.00     0.037 A 
HETATM   15  C15 UNK     1      19.122  10.574  34.305  1.00  0.00     0.065 A 
HETATM   16  C14 UNK     1      20.188   9.686  34.446  1.00  0.00     0.037 A 
HETATM   17  C12 UNK     1      20.037   8.351  34.066  1.00  0.00     0.017 A 
BRANCH  15  18
HETATM   18  O4  UNK     1      19.268  11.877  34.676  1.00  0.00    -0.361 OA
HETATM   19  H12 UNK     1      19.697  12.364  33.952  1.00  0.00     0.217 HD
ENDBRANCH  15  18
ENDBRANCH   5  12
BRANCH  10  20
HETATM   20  O2  UNK     1      18.337   1.187  29.686  1.00  0.00    -0.356 OA
HETATM   21  C16 UNK     1      19.529   0.594  29.172  1.00  0.00     0.210 C 
ENDBRANCH  10  20
TORSDOF 3
ENDMDL
MODEL 3
REMARK VINA RESULT:      -7.7      4.924      6.722
REMARK  3 active torsions:
REMARK  status: ('A' for Active; 'I' for Inactive)
REMARK    1  A    between atoms: C9_13  and  O2_2 
REMARK    2  A    between atoms: C15_19  and  O4_4 
REMARK    3  A    between atoms: C3_7  and  C4_8 
ROOT
HETATM    1  O1  UNK     1      19.207   2.761  30.453  1.00  0.00    -0.309 OA
HETATM    2  O3  UNK     1      17.634   3.396  34.157  1.00  0.00    -0.287 OA
HETATM    3  C1  UNK     1      18.223   4.299  32.055  1.00  0.00     0.051 A 
HETATM    4  C2  UNK     1      18.771   4.012  30.806  1.00  0.00     0.090 A 
HETATM    5  C3  UNK     1      19.105   1.739  31.385  1.00  0.00     0.090 A 
HETATM    6  C5  UNK     1      18.106   3.216  33.043  1.00  0.00     0.187 A 
HETATM    7  C6  UNK     1      18.592   1.888  32.616  1.00  0.00     0.093 A 
HETATM    8  C7  UNK     1      17.794   5.593  32.359  1.00  0.00     0.055 A 
HETATM    9  C8  UNK     1      18.891   5.022  29.849  1.00  0.00     0.041 A 
HETATM   10  C9  UNK     1      17.917   6.600  31.400  1.00  0.00     0.069 A 
HETATM   11  C10 UNK     1      18.463   6.315  30.149  1.00  0.00     0.039 A 
ENDROOT
BRANCH   5  12
HETATM   12  C4  UNK     1      19.597   0.433  30.901  1.00  0.00    -0.002 A 
HETATM   13  C11 UNK     1      20.169   0.326  29.630  1.00  0.00     0.017 A 
HETATM   14  C13 UNK     1      20.631  -0.907  29.172  1.00  0.00     0.037 A 
HETATM   15  C15 UNK     1      20.525  -2.037  29.984  1.00  0.00     0.065 A 
HETATM   16  C14 UNK     1      19.956  -1.934  31.252  1.00  0.00     0.037 A 
HETATM   17  C12 UNK     1      19.492  -0.700  31.710  1.00  0.00     0.017 A 
BRANCH  15  18
HETATM   18  O4  UNK     1      20.978  -3.240  29.536  1.00  0.00    -0.361 OA
HETATM   19  H12 UNK     1      21.859  -3.119  29.143  1.00  0.00     0.217 HD
ENDBRANCH  15  18
ENDBRANCH   5  12
BRANCH  10  20
HETATM   20  O2  UNK     1      17.500   7.864  31.687  1.00  0.00    -0.356 OA
HETATM   21  C16 UNK     1      16.092   8.095  31.698  1.00  0.00     0.210 C 
ENDBRANCH  10  20
TORSDOF 3
ENDMDL
MODEL 4
REMARK VINA RESULT:      -7.6     15.942     19.627
REMARK  3 active torsions:
REMARK  status: ('A' for Active; 'I' for Inactive)
REMARK    1  A    between atoms: C9_13  and  O2_2 
REMARK    2  A    between atoms: C15_19  and  O4_4 
REMARK    3  A    between atoms: C3_7  and  C4_8 
ROOT
HETATM    1  O1  UNK     1      20.476  -1.922  17.738  1.00  0.00    -0.309 OA
HETATM    2  O3  UNK     1      17.580  -2.493  14.930  1.00  0.00    -0.287 OA
HETATM    3  C1  UNK     1      19.679  -3.145  15.796  1.00  0.00     0.051 A 
HETATM    4  C2  UNK     1      20.629  -2.897  16.785  1.00  0.00     0.090 A 
HETATM    5  C3  UNK     1      19.328  -1.146  17.709  1.00  0.00     0.090 A 
HETATM    6  C5  UNK     1      18.456  -2.328  15.767  1.00  0.00     0.187 A 
HETATM    7  C6  UNK     1      18.339  -1.292  16.812  1.00  0.00     0.093 A 
HETATM    8  C7  UNK     1      19.888  -4.152  14.852  1.00  0.00     0.055 A 
HETATM    9  C8  UNK     1      21.798  -3.659  16.836  1.00  0.00     0.041 A 
HETATM   10  C9  UNK     1      21.058  -4.911  14.905  1.00  0.00     0.069 A 
HETATM   11  C10 UNK     1      22.010  -4.666  15.895  1.00  0.00     0.039 A 
ENDROOT
BRANCH   5  12
HETATM   12  C4  UNK     1      19.261  -0.133  18.782  1.00  0.00    -0.002 A 
HETATM   13  C11 UNK     1      19.501  -0.499  20.109  1.00  0.00     0.017 A 
HETATM   14  C13 UNK     1      19.436   0.456  21.122  1.00  0.00     0.037 A 
HETATM   15  C15 UNK     1      19.132   1.782  20.812  1.00  0.00     0.065 A 
HETATM   16  C14 UNK     1      18.893   2.152  19.490  1.00  0.00     0.037 A 
HETATM   17  C12 UNK     1      18.957   1.195  18.475  1.00  0.00     0.017 A 
BRANCH  15  18
HETATM   18  O4  UNK     1      19.071   2.715  21.802  1.00  0.00    -0.361 OA
HETATM   19  H12 UNK     1      19.750   3.391  21.640  1.00  0.00     0.217 HD
ENDBRANCH  15  18
ENDBRANCH   5  12
BRANCH  10  20
HETATM   20  O2  UNK     1      21.270  -5.896  13.988  1.00  0.00    -0.356 OA
HETATM   21  C16 UNK     1      20.130  -6.640  13.562  1.00  0.00     0.210 C 
ENDBRANCH  10  20
TORSDOF 3
ENDMDL
MODEL 5
REMARK VINA RESULT:      -7.5      5.111      7.919
REMARK  3 active torsions:
REMARK  status: ('A' for Active; 'I' for Inactive)
REMARK    1  A    between atoms: C9_13  and  O2_2 
REMARK    2  A    between atoms: C15_19  and  O4_4 
REMARK    3  A    between atoms: C3_7  and  C4_8 
ROOT
HETATM    1  O1  UNK     1      18.355   3.950  34.608  1.00  0.00    -0.309 OA
HETATM    2  O3  UNK     1      18.192   1.688  31.223  1.00  0.00    -0.287 OA
HETATM    3  C1  UNK     1      18.348   1.749  33.581  1.00  0.00     0.051 A 
HETATM    4  C2  UNK     1      18.399   2.582  34.697  1.00  0.00     0.090 A 
HETATM    5  C3  UNK     1      18.264   4.528  33.351  1.00  0.00     0.090 A 
HETATM    6  C5  UNK     1      18.243   2.358  32.246  1.00  0.00     0.187 A 
HETATM    7  C6  UNK     1      18.202   3.833  32.203  1.00  0.00     0.093 A 
HETATM    8  C7  UNK     1      18.395   0.362  33.731  1.00  0.00     0.055 A 
HETATM    9  C8  UNK     1      18.496   2.030  35.975  1.00  0.00     0.041 A 
HETATM   10  C9  UNK     1      18.494  -0.188  35.011  1.00  0.00     0.069 A 
HETATM   11  C10 UNK     1      18.543   0.644  36.129  1.00  0.00     0.039 A 
ENDROOT
BRANCH   5  12
HETATM   12  C4  UNK     1      18.216   6.004  33.370  1.00  0.00    -0.002 A 
HETATM   13  C11 UNK     1      17.167   6.680  32.742  1.00  0.00     0.017 A 
HETATM   14  C13 UNK     1      17.123   8.074  32.759  1.00  0.00     0.037 A 
HETATM   15  C15 UNK     1      18.127   8.796  33.406  1.00  0.00     0.065 A 
HETATM   16  C14 UNK     1      19.175   8.125  34.034  1.00  0.00     0.037 A 
HETATM   17  C12 UNK     1      19.220   6.729  34.016  1.00  0.00     0.017 A 
BRANCH  15  18
HETATM   18  O4  UNK     1      18.083  10.157  33.423  1.00  0.00    -0.361 OA
HETATM   19  H12 UNK     1      17.786  10.473  32.552  1.00  0.00     0.217 HD
ENDBRANCH  15  18
ENDBRANCH   5  12
BRANCH  10  20
HETATM   20  O2  UNK     1      18.539  -1.540  35.167  1.00  0.00    -0.356 OA
HETATM   21  C16 UNK     1      18.575  -2.036  36.504  1.00  0.00     0.210 C 
ENDBRANCH  10  20
TORSDOF 3
ENDMDL
MODEL 6
REMARK VINA RESULT:      -7.4     23.907     25.219
REMARK  3 active torsions:
REMARK  status: ('A' for Active; 'I' for Inactive)
REMARK    1  A    between atoms: C9_13  and  O2_2 
REMARK    2  A    between atoms: C15_19  and  O4_4 
REMARK    3  A    between atoms: C3_7  and  C4_8 
ROOT
HETATM    1  O1  UNK     1       7.637   4.418   9.393  1.00  0.00    -0.309 OA
HETATM    2  O3  UNK     1       6.195   7.527  11.596  1.00  0.00    -0.287 OA
HETATM    3  C1  UNK     1       6.108   5.217  11.102  1.00  0.00     0.051 A 
HETATM    4  C2  UNK     1       6.647   4.200  10.316  1.00  0.00     0.090 A 
HETATM    5  C3  UNK     1       8.117   5.709   9.231  1.00  0.00     0.090 A 
HETATM    6  C5  UNK     1       6.620   6.587  10.938  1.00  0.00     0.187 A 
HETATM    7  C6  UNK     1       7.684   6.769   9.931  1.00  0.00     0.093 A 
HETATM    8  C7  UNK     1       5.101   4.938  12.028  1.00  0.00     0.055 A 
HETATM    9  C8  UNK     1       6.180   2.892  10.453  1.00  0.00     0.041 A 
HETATM   10  C9  UNK     1       4.635   3.628  12.162  1.00  0.00     0.069 A 
HETATM   11  C10 UNK     1       5.174   2.608  11.378  1.00  0.00     0.039 A 
ENDROOT
BRANCH   5  12
HETATM   12  C4  UNK     1       9.185   5.829   8.218  1.00  0.00    -0.002 A 
HETATM   13  C11 UNK     1      10.521   5.637   8.580  1.00  0.00     0.017 A 
HETATM   14  C13 UNK     1      11.530   5.753   7.625  1.00  0.00     0.037 A 
HETATM   15  C15 UNK     1      11.206   6.059   6.303  1.00  0.00     0.065 A 
HETATM   16  C14 UNK     1       9.875   6.250   5.936  1.00  0.00     0.037 A 
HETATM   17  C12 UNK     1       8.865   6.136   6.894  1.00  0.00     0.017 A 
BRANCH  15  18
HETATM   18  O4  UNK     1      12.192   6.170   5.370  1.00  0.00    -0.361 OA
HETATM   19  H12 UNK     1      13.015   5.806   5.737  1.00  0.00     0.217 HD
ENDBRANCH  15  18
ENDBRANCH   5  12
BRANCH  10  20
HETATM   20  O2  UNK     1       3.654   3.345  13.063  1.00  0.00    -0.356 OA
HETATM   21  C16 UNK     1       3.982   2.438  14.114  1.00  0.00     0.210 C 
ENDBRANCH  10  20
TORSDOF 3
ENDMDL
MODEL 7
REMARK VINA RESULT:      -7.4      3.056      4.215
REMARK  3 active torsions:
REMARK  status: ('A' for Active; 'I' for Inactive)
REMARK    1  A    between atoms: C9_13  and  O2_2 
REMARK    2  A    between atoms: C15_19  and  O4_4 
REMARK    3  A    between atoms: C3_7  and  C4_8 
ROOT
HETATM    1  O1  UNK     1      17.051   5.398  32.126  1.00  0.00    -0.309 OA
HETATM    2  O3  UNK     1      20.235   7.499  33.555  1.00  0.00    -0.287 OA
HETATM    3  C1  UNK     1      17.887   7.311  33.367  1.00  0.00     0.051 A 
HETATM    4  C2  UNK     1      16.844   6.544  32.850  1.00  0.00     0.090 A 
HETATM    5  C3  UNK     1      18.355   4.990  31.893  1.00  0.00     0.090 A 
HETATM    6  C5  UNK     1      19.272   6.877  33.129  1.00  0.00     0.187 A 
HETATM    7  C6  UNK     1      19.441   5.638  32.343  1.00  0.00     0.093 A 
HETATM    8  C7  UNK     1      17.617   8.469  34.099  1.00  0.00     0.055 A 
HETATM    9  C8  UNK     1      15.521   6.932  33.064  1.00  0.00     0.041 A 
HETATM   10  C9  UNK     1      16.292   8.855  34.310  1.00  0.00     0.069 A 
HETATM   11  C10 UNK     1      15.247   8.088  33.795  1.00  0.00     0.039 A 
ENDROOT
BRANCH   5  12
HETATM   12  C4  UNK     1      18.464   3.742  31.110  1.00  0.00    -0.002 A 
HETATM   13  C11 UNK     1      18.655   2.520  31.760  1.00  0.00     0.017 A 
HETATM   14  C13 UNK     1      18.759   1.342  31.022  1.00  0.00     0.037 A 
HETATM   15  C15 UNK     1      18.670   1.382  29.630  1.00  0.00     0.065 A 
HETATM   16  C14 UNK     1      18.477   2.598  28.977  1.00  0.00     0.037 A 
HETATM   17  C12 UNK     1      18.375   3.778  29.717  1.00  0.00     0.017 A 
BRANCH  15  18
HETATM   18  O4  UNK     1      18.770   0.231  28.909  1.00  0.00    -0.361 OA
HETATM   19  H12 UNK     1      18.346  -0.490  29.406  1.00  0.00     0.217 HD
ENDBRANCH  15  18
ENDBRANCH   5  12
BRANCH  10  20
HETATM   20  O2  UNK     1      16.020   9.983  35.024  1.00  0.00    -0.356 OA
HETATM   21  C16 UNK     1      14.645  10.291  35.248  1.00  0.00     0.210 C 
ENDBRANCH  10  20
TORSDOF 3
ENDMDL
MODEL 8
REMARK VINA RESULT:      -7.4      4.222      5.830
REMARK  3 active torsions:
REMARK  status: ('A' for Active; 'I' for Inactive)
REMARK    1  A    between atoms: C9_13  and  O2_2 
REMARK    2  A    between atoms: C15_19  and  O4_4 
REMARK    3  A    between atoms: C3_7  and  C4_8 
ROOT
HETATM    1  O1  UNK     1      18.474   3.340  32.076  1.00  0.00    -0.309 OA
HETATM    2  O3  UNK     1      18.890   6.313  29.321  1.00  0.00    -0.287 OA
HETATM    3  C1  UNK     1      18.323   5.703  31.533  1.00  0.00     0.051 A 
HETATM    4  C2  UNK     1      18.203   4.639  32.424  1.00  0.00     0.090 A 
HETATM    5  C3  UNK     1      18.879   3.076  30.776  1.00  0.00     0.090 A 
HETATM    6  C5  UNK     1      18.760   5.427  30.155  1.00  0.00     0.187 A 
HETATM    7  C6  UNK     1      19.038   4.014  29.829  1.00  0.00     0.093 A 
HETATM    8  C7  UNK     1      18.035   7.006  31.943  1.00  0.00     0.055 A 
HETATM    9  C8  UNK     1      17.792   4.873  33.738  1.00  0.00     0.041 A 
HETATM   10  C9  UNK     1      17.623   7.236  33.257  1.00  0.00     0.069 A 
HETATM   11  C10 UNK     1      17.503   6.173  34.152  1.00  0.00     0.039 A 
ENDROOT
BRANCH   5  12
HETATM   12  C4  UNK     1      19.151   1.649  30.510  1.00  0.00    -0.002 A 
HETATM   13  C11 UNK     1      19.220   0.739  31.568  1.00  0.00     0.017 A 
HETATM   14  C13 UNK     1      19.478  -0.608  31.317  1.00  0.00     0.037 A 
HETATM   15  C15 UNK     1      19.668  -1.050  30.008  1.00  0.00     0.065 A 
HETATM   16  C14 UNK     1      19.599  -0.145  28.949  1.00  0.00     0.037 A 
HETATM   17  C12 UNK     1      19.341   1.203  29.200  1.00  0.00     0.017 A 
BRANCH  15  18
HETATM   18  O4  UNK     1      19.919  -2.366  29.764  1.00  0.00    -0.361 OA
HETATM   19  H12 UNK     1      20.368  -2.447  28.905  1.00  0.00     0.217 HD
ENDBRANCH  15  18
ENDBRANCH   5  12
BRANCH  10  20
HETATM   20  O2  UNK     1      17.340   8.504  33.667  1.00  0.00    -0.356 OA
HETATM   21  C16 UNK     1      18.449   9.373  33.897  1.00  0.00     0.210 C 
ENDBRANCH  10  20
TORSDOF 3
ENDMDL
MODEL 9
REMARK VINA RESULT:      -7.3     12.354     15.221
REMARK  3 active torsions:
REMARK  status: ('A' for Active; 'I' for Inactive)
REMARK    1  A    between atoms: C9_13  and  O2_2 
REMARK    2  A    between atoms: C15_19  and  O4_4 
REMARK    3  A    between atoms: C3_7  and  C4_8 
ROOT
HETATM    1  O1  UNK     1      18.731  -4.579  36.506  1.00  0.00    -0.309 OA
HETATM    2  O3  UNK     1      22.375  -5.431  38.116  1.00  0.00    -0.287 OA
HETATM    3  C1  UNK     1      20.376  -6.244  37.153  1.00  0.00     0.051 A 
HETATM    4  C2  UNK     1      19.144  -5.882  36.612  1.00  0.00     0.090 A 
HETATM    5  C3  UNK     1      19.575  -3.579  36.964  1.00  0.00     0.090 A 
HETATM    6  C5  UNK     1      21.278  -5.186  37.633  1.00  0.00     0.187 A 
HETATM    7  C6  UNK     1      20.787  -3.800  37.498  1.00  0.00     0.093 A 
HETATM    8  C7  UNK     1      20.746  -7.588  37.235  1.00  0.00     0.055 A 
HETATM    9  C8  UNK     1      18.271  -6.867  36.147  1.00  0.00     0.041 A 
HETATM   10  C9  UNK     1      19.869  -8.571  36.770  1.00  0.00     0.069 A 
HETATM   11  C10 UNK     1      18.636  -8.211  36.227  1.00  0.00     0.039 A 
ENDROOT
BRANCH   5  12
HETATM   12  C4  UNK     1      19.036  -2.214  36.796  1.00  0.00    -0.002 A 
HETATM   13  C11 UNK     1      19.250  -1.518  35.603  1.00  0.00     0.017 A 
HETATM   14  C13 UNK     1      18.743  -0.228  35.445  1.00  0.00     0.037 A 
HETATM   15  C15 UNK     1      18.019   0.368  36.477  1.00  0.00     0.065 A 
HETATM   16  C14 UNK     1      17.802  -0.324  37.668  1.00  0.00     0.037 A 
HETATM   17  C12 UNK     1      18.311  -1.614  37.827  1.00  0.00     0.017 A 
BRANCH  15  18
HETATM   18  O4  UNK     1      17.523   1.627  36.321  1.00  0.00    -0.361 OA
HETATM   19  H12 UNK     1      16.811   1.767  36.968  1.00  0.00     0.217 HD
ENDBRANCH  15  18
ENDBRANCH   5  12
BRANCH  10  20
HETATM   20  O2  UNK     1      20.221  -9.884  36.845  1.00  0.00    -0.356 OA
HETATM   21  C16 UNK     1      19.608 -10.662  37.873  1.00  0.00     0.210 C 
ENDBRANCH  10  20
TORSDOF 3
ENDMDL
MODEL 10
REMARK VINA RESULT:      -7.3      4.090      8.150
REMARK  3 active torsions:
REMARK  status: ('A' for Active; 'I' for Inactive)
REMARK    1  A    between atoms: C9_13  and  O2_2 
REMARK    2  A    between atoms: C15_19  and  O4_4 
REMARK    3  A    between atoms: C3_7  and  C4_8 
ROOT
HETATM    1  O1  UNK     1      18.150   4.371  31.339  1.00  0.00    -0.309 OA
HETATM    2  O3  UNK     1      18.626   1.658  34.341  1.00  0.00    -0.287 OA
HETATM    3  C1  UNK     1      18.681   2.100  32.020  1.00  0.00     0.051 A 
HETATM    4  C2  UNK     1      18.503   3.079  31.043  1.00  0.00     0.090 A 
HETATM    5  C3  UNK     1      17.956   4.715  32.668  1.00  0.00     0.090 A 
HETATM    6  C5  UNK     1      18.483   2.464  33.432  1.00  0.00     0.187 A 
HETATM    7  C6  UNK     1      18.103   3.866  33.697  1.00  0.00     0.093 A 
HETATM    8  C7  UNK     1      19.041   0.800  31.661  1.00  0.00     0.055 A 
HETATM    9  C8  UNK     1      18.686   2.760  29.697  1.00  0.00     0.041 A 
HETATM   10  C9  UNK     1      19.222   0.485  30.313  1.00  0.00     0.069 A 
HETATM   11  C10 UNK     1      19.046   1.462  29.334  1.00  0.00     0.039 A 
ENDROOT
BRANCH   5  12
HETATM   12  C4  UNK     1      17.587   6.130  32.874  1.00  0.00    -0.002 A 
HETATM   13  C11 UNK     1      16.402   6.633  32.330  1.00  0.00     0.017 A 
HETATM   14  C13 UNK     1      16.054   7.969  32.523  1.00  0.00     0.037 A 
HETATM   15  C15 UNK     1      16.890   8.808  33.262  1.00  0.00     0.065 A 
HETATM   16  C14 UNK     1      18.073   8.310  33.806  1.00  0.00     0.037 A 
HETATM   17  C12 UNK     1      18.421   6.972  33.612  1.00  0.00     0.017 A 
BRANCH  15  18
HETATM   18  O4  UNK     1      16.549  10.112  33.451  1.00  0.00    -0.361 OA
HETATM   19  H12 UNK     1      16.801  10.621  32.661  1.00  0.00     0.217 HD
ENDBRANCH  15  18
ENDBRANCH   5  12
BRANCH  10  20
HETATM   20  O2  UNK     1      19.575  -0.781  29.954  1.00  0.00    -0.356 OA
HETATM   21  C16 UNK     1      20.559  -0.913  28.929  1.00  0.00     0.210 C 
ENDBRANCH  10  20
TORSDOF 3
ENDMDL
