MODEL 1
REMARK VINA RESULT:      -7.3      0.000      0.000
REMARK  1 active torsions:
REMARK  status: ('A' for Active; 'I' for Inactive)
REMARK    1  A    between atoms: C3_7  and  C6_10 
ROOT
HETATM    1 Cl1  UNK     1      17.790   8.166  33.242  1.00  0.00    -0.084 Cl
HETATM    2  O1  UNK     1      19.021   3.298  30.181  1.00  0.00    -0.308 OA
HETATM    3  O2  UNK     1      17.792   2.853  34.040  1.00  0.00    -0.287 OA
HETATM    4  C1  UNK     1      18.298   4.324  32.261  1.00  0.00     0.050 A 
HETATM    5  C2  UNK     1      18.722   4.404  30.935  1.00  0.00     0.090 A 
HETATM    6  C3  UNK     1      18.901   2.047  30.767  1.00  0.00     0.097 A 
HETATM    7  C4  UNK     1      18.163   2.997  32.883  1.00  0.00     0.187 A 
HETATM    8  C5  UNK     1      18.498   1.839  32.031  1.00  0.00     0.094 A 
HETATM    9  C7  UNK     1      18.007   5.484  32.981  1.00  0.00     0.042 A 
HETATM   10  C8  UNK     1      18.857   5.649  30.321  1.00  0.00     0.040 A 
HETATM   11  C9  UNK     1      18.143   6.728  32.364  1.00  0.00     0.035 A 
HETATM   12  C10 UNK     1      18.567   6.811  31.037  1.00  0.00     0.026 A 
ENDROOT
BRANCH   6  13
HETATM   13  C6  UNK     1      19.240   0.927  29.866  1.00  0.00     0.038 A 
HETATM   14  C11 UNK     1      18.739   0.643  28.607  1.00  0.00     0.022 A 
HETATM   15  C12 UNK     1      19.317  -0.533  28.046  1.00  0.00     0.008 A 
HETATM   16  C13 UNK     1      20.239  -1.110  28.890  1.00  0.00     0.050 A 
HETATM   17  S1  UNK     1      20.406  -0.236  30.352  1.00  0.00    -0.099 SA
ENDBRANCH   6  13
TORSDOF 1
ENDMDL
MODEL 2
REMARK VINA RESULT:      -7.1      3.434      4.929
REMARK  1 active torsions:
REMARK  status: ('A' for Active; 'I' for Inactive)
REMARK    1  A    between atoms: C3_7  and  C6_10 
ROOT
HETATM    1 Cl1  UNK     1      17.446   1.327  38.580  1.00  0.00    -0.084 Cl
HETATM    2  O1  UNK     1      19.121  -0.542  33.262  1.00  0.00    -0.308 OA
HETATM    3  O2  UNK     1      17.868   3.319  33.609  1.00  0.00    -0.287 OA
HETATM    4  C1  UNK     1      18.279   1.248  34.671  1.00  0.00     0.050 A 
HETATM    5  C2  UNK     1      18.721  -0.061  34.482  1.00  0.00     0.090 A 
HETATM    6  C3  UNK     1      19.078   0.310  32.168  1.00  0.00     0.097 A 
HETATM    7  C4  UNK     1      18.240   2.157  33.514  1.00  0.00     0.187 A 
HETATM    8  C5  UNK     1      18.679   1.590  32.224  1.00  0.00     0.094 A 
HETATM    9  C7  UNK     1      17.884   1.685  35.937  1.00  0.00     0.042 A 
HETATM   10  C8  UNK     1      18.769  -0.942  35.562  1.00  0.00     0.040 A 
HETATM   11  C9  UNK     1      17.933   0.801  37.015  1.00  0.00     0.035 A 
HETATM   12  C10 UNK     1      18.375  -0.510  36.829  1.00  0.00     0.026 A 
ENDROOT
BRANCH   6  13
HETATM   13  C6  UNK     1      19.537  -0.308  30.908  1.00  0.00     0.038 A 
HETATM   14  C11 UNK     1      20.060  -1.573  30.701  1.00  0.00     0.022 A 
HETATM   15  C12 UNK     1      20.389  -1.807  29.334  1.00  0.00     0.008 A 
HETATM   16  C13 UNK     1      20.108  -0.717  28.541  1.00  0.00     0.050 A 
HETATM   17  S1  UNK     1      19.450   0.582  29.442  1.00  0.00    -0.099 SA
ENDBRANCH   6  13
TORSDOF 1
ENDMDL
MODEL 3
REMARK VINA RESULT:      -7.0      4.296      6.825
REMARK  1 active torsions:
REMARK  status: ('A' for Active; 'I' for Inactive)
REMARK    1  A    between atoms: C3_7  and  C6_10 
ROOT
HETATM    1 Cl1  UNK     1      20.198  -0.663  28.246  1.00  0.00    -0.084 Cl
HETATM    2  O1  UNK     1      18.931  -0.481  33.985  1.00  0.00    -0.308 OA
HETATM    3  O2  UNK     1      18.032   2.797  31.738  1.00  0.00    -0.287 OA
HETATM    4  C1  UNK     1      18.928   0.612  31.815  1.00  0.00     0.050 A 
HETATM    5  C2  UNK     1      19.208  -0.476  32.642  1.00  0.00     0.090 A 
HETATM    6  C3  UNK     1      18.354   0.649  34.545  1.00  0.00     0.097 A 
HETATM    7  C4  UNK     1      18.308   1.809  32.405  1.00  0.00     0.187 A 
HETATM    8  C5  UNK     1      18.032   1.754  33.855  1.00  0.00     0.094 A 
HETATM    9  C7  UNK     1      19.231   0.560  30.453  1.00  0.00     0.042 A 
HETATM   10  C8  UNK     1      19.794  -1.624  32.108  1.00  0.00     0.040 A 
HETATM   11  C9  UNK     1      19.817  -0.589  29.923  1.00  0.00     0.035 A 
HETATM   12  C10 UNK     1      20.098  -1.679  30.748  1.00  0.00     0.026 A 
ENDROOT
BRANCH   6  13
HETATM   13  C6  UNK     1      18.093   0.534  35.994  1.00  0.00     0.038 A 
HETATM   14  C11 UNK     1      17.783   1.532  36.903  1.00  0.00     0.022 A 
HETATM   15  C12 UNK     1      17.599   1.025  38.222  1.00  0.00     0.008 A 
HETATM   16  C13 UNK     1      17.774  -0.339  38.282  1.00  0.00     0.050 A 
HETATM   17  S1  UNK     1      18.157  -1.006  36.752  1.00  0.00    -0.099 SA
ENDBRANCH   6  13
TORSDOF 1
ENDMDL
MODEL 4
REMARK VINA RESULT:      -6.9      3.228      5.108
REMARK  1 active torsions:
REMARK  status: ('A' for Active; 'I' for Inactive)
REMARK    1  A    between atoms: C3_7  and  C6_10 
ROOT
HETATM    1 Cl1  UNK     1      18.808   6.178  29.701  1.00  0.00    -0.084 Cl
HETATM    2  O1  UNK     1      18.201   3.021  34.625  1.00  0.00    -0.308 OA
HETATM    3  O2  UNK     1      18.610   0.998  31.112  1.00  0.00    -0.287 OA
HETATM    4  C1  UNK     1      18.488   3.086  32.213  1.00  0.00     0.050 A 
HETATM    5  C2  UNK     1      18.346   3.714  33.450  1.00  0.00     0.090 A 
HETATM    6  C3  UNK     1      18.190   1.635  34.577  1.00  0.00     0.097 A 
HETATM    7  C4  UNK     1      18.485   1.615  32.161  1.00  0.00     0.187 A 
HETATM    8  C5  UNK     1      18.325   0.916  33.452  1.00  0.00     0.094 A 
HETATM    9  C7  UNK     1      18.633   3.842  31.049  1.00  0.00     0.042 A 
HETATM   10  C8  UNK     1      18.347   5.106  33.528  1.00  0.00     0.040 A 
HETATM   11  C9  UNK     1      18.634   5.235  31.130  1.00  0.00     0.035 A 
HETATM   12  C10 UNK     1      18.492   5.866  32.366  1.00  0.00     0.026 A 
ENDROOT
BRANCH   6  13
HETATM   13  C6  UNK     1      18.036   0.991  35.897  1.00  0.00     0.038 A 
HETATM   14  C11 UNK     1      17.671   1.561  37.105  1.00  0.00     0.022 A 
HETATM   15  C12 UNK     1      17.631   0.609  38.164  1.00  0.00     0.008 A 
HETATM   16  C13 UNK     1      17.966  -0.656  37.736  1.00  0.00     0.050 A 
HETATM   17  S1  UNK     1      18.327  -0.693  36.063  1.00  0.00    -0.099 SA
ENDBRANCH   6  13
TORSDOF 1
ENDMDL
MODEL 5
REMARK VINA RESULT:      -6.9      4.710      6.222
REMARK  1 active torsions:
REMARK  status: ('A' for Active; 'I' for Inactive)
REMARK    1  A    between atoms: C3_7  and  C6_10 
ROOT
HETATM    1 Cl1  UNK     1      13.324  11.773  35.637  1.00  0.00    -0.084 Cl
HETATM    2  O1  UNK     1      17.485   8.663  32.882  1.00  0.00    -0.308 OA
HETATM    3  O2  UNK     1      13.688   7.187  32.863  1.00  0.00    -0.287 OA
HETATM    4  C1  UNK     1      15.161   8.905  33.545  1.00  0.00     0.050 A 
HETATM    5  C2  UNK     1      16.481   9.353  33.512  1.00  0.00     0.090 A 
HETATM    6  C3  UNK     1      17.173   7.464  32.258  1.00  0.00     0.097 A 
HETATM    7  C4  UNK     1      14.825   7.637  32.877  1.00  0.00     0.187 A 
HETATM    8  C5  UNK     1      15.942   6.932  32.216  1.00  0.00     0.094 A 
HETATM    9  C7  UNK     1      14.178   9.650  34.201  1.00  0.00     0.042 A 
HETATM   10  C8  UNK     1      16.825  10.551  34.135  1.00  0.00     0.040 A 
HETATM   11  C9  UNK     1      14.526  10.848  34.824  1.00  0.00     0.035 A 
HETATM   12  C10 UNK     1      15.846  11.299  34.791  1.00  0.00     0.026 A 
ENDROOT
BRANCH   6  13
HETATM   13  C6  UNK     1      18.326   6.809  31.608  1.00  0.00     0.038 A 
HETATM   14  C11 UNK     1      18.457   6.382  30.297  1.00  0.00     0.022 A 
HETATM   15  C12 UNK     1      19.729   5.792  30.043  1.00  0.00     0.008 A 
HETATM   16  C13 UNK     1      20.529   5.786  31.164  1.00  0.00     0.050 A 
HETATM   17  S1  UNK     1      19.748   6.489  32.515  1.00  0.00    -0.099 SA
ENDBRANCH   6  13
TORSDOF 1
ENDMDL
MODEL 6
REMARK VINA RESULT:      -6.8     16.385     17.515
REMARK  1 active torsions:
REMARK  status: ('A' for Active; 'I' for Inactive)
REMARK    1  A    between atoms: C3_7  and  C6_10 
ROOT
HETATM    1 Cl1  UNK     1      26.329  -9.217  39.792  1.00  0.00    -0.084 Cl
HETATM    2  O1  UNK     1      31.286  -7.173  37.377  1.00  0.00    -0.308 OA
HETATM    3  O2  UNK     1      28.943  -4.538  39.420  1.00  0.00    -0.287 OA
HETATM    4  C1  UNK     1      29.271  -6.755  38.669  1.00  0.00     0.050 A 
HETATM    5  C2  UNK     1      30.120  -7.603  37.958  1.00  0.00     0.090 A 
HETATM    6  C3  UNK     1      31.630  -5.835  37.498  1.00  0.00     0.097 A 
HETATM    7  C4  UNK     1      29.638  -5.337  38.806  1.00  0.00     0.187 A 
HETATM    8  C5  UNK     1      30.901  -4.924  38.161  1.00  0.00     0.094 A 
HETATM    9  C7  UNK     1      28.096  -7.248  39.240  1.00  0.00     0.042 A 
HETATM   10  C8  UNK     1      29.796  -8.952  37.814  1.00  0.00     0.040 A 
HETATM   11  C9  UNK     1      27.775  -8.598  39.095  1.00  0.00     0.035 A 
HETATM   12  C10 UNK     1      28.623  -9.449  38.384  1.00  0.00     0.026 A 
ENDROOT
BRANCH   6  13
HETATM   13  C6  UNK     1      32.905  -5.483  36.842  1.00  0.00     0.038 A 
HETATM   14  C11 UNK     1      33.143  -4.544  35.853  1.00  0.00     0.022 A 
HETATM   15  C12 UNK     1      34.516  -4.492  35.473  1.00  0.00     0.008 A 
HETATM   16  C13 UNK     1      35.283  -5.389  36.181  1.00  0.00     0.050 A 
HETATM   17  S1  UNK     1      34.350  -6.290  37.299  1.00  0.00    -0.099 SA
ENDBRANCH   6  13
TORSDOF 1
ENDMDL
MODEL 7
REMARK VINA RESULT:      -6.8      3.767      6.599
REMARK  1 active torsions:
REMARK  status: ('A' for Active; 'I' for Inactive)
REMARK    1  A    between atoms: C3_7  and  C6_10 
ROOT
HETATM    1 Cl1  UNK     1      18.249   1.217  29.074  1.00  0.00    -0.084 Cl
HETATM    2  O1  UNK     1      18.994   6.426  31.700  1.00  0.00    -0.308 OA
HETATM    3  O2  UNK     1      17.876   3.272  34.024  1.00  0.00    -0.287 OA
HETATM    4  C1  UNK     1      18.424   4.071  31.868  1.00  0.00     0.050 A 
HETATM    5  C2  UNK     1      18.808   5.191  31.133  1.00  0.00     0.090 A 
HETATM    6  C3  UNK     1      18.784   6.565  33.064  1.00  0.00     0.097 A 
HETATM    7  C4  UNK     1      18.209   4.213  33.317  1.00  0.00     0.187 A 
HETATM    8  C5  UNK     1      18.420   5.563  33.879  1.00  0.00     0.094 A 
HETATM    9  C7  UNK     1      18.250   2.837  31.238  1.00  0.00     0.042 A 
HETATM   10  C8  UNK     1      19.020   5.083  29.759  1.00  0.00     0.040 A 
HETATM   11  C9  UNK     1      18.463   2.732  29.863  1.00  0.00     0.035 A 
HETATM   12  C10 UNK     1      18.848   3.852  29.125  1.00  0.00     0.026 A 
ENDROOT
BRANCH   6  13
HETATM   13  C6  UNK     1      19.018   7.933  33.570  1.00  0.00     0.038 A 
HETATM   14  C11 UNK     1      20.172   8.473  34.111  1.00  0.00     0.022 A 
HETATM   15  C12 UNK     1      20.008   9.838  34.487  1.00  0.00     0.008 A 
HETATM   16  C13 UNK     1      18.737  10.298  34.223  1.00  0.00     0.050 A 
HETATM   17  S1  UNK     1      17.748   9.088  33.525  1.00  0.00    -0.099 SA
ENDBRANCH   6  13
TORSDOF 1
ENDMDL
MODEL 8
REMARK VINA RESULT:      -6.7     22.477     23.801
REMARK  1 active torsions:
REMARK  status: ('A' for Active; 'I' for Inactive)
REMARK    1  A    between atoms: C3_7  and  C6_10 
ROOT
HETATM    1 Cl1  UNK     1      18.040  10.241  10.315  1.00  0.00    -0.084 Cl
HETATM    2  O1  UNK     1      13.031   8.265   7.952  1.00  0.00    -0.308 OA
HETATM    3  O2  UNK     1      14.894   5.903  10.700  1.00  0.00    -0.287 OA
HETATM    4  C1  UNK     1      14.892   7.925   9.476  1.00  0.00     0.050 A 
HETATM    5  C2  UNK     1      14.202   8.683   8.531  1.00  0.00     0.090 A 
HETATM    6  C3  UNK     1      12.516   7.030   8.320  1.00  0.00     0.097 A 
HETATM    7  C4  UNK     1      14.344   6.618   9.874  1.00  0.00     0.187 A 
HETATM    8  C5  UNK     1      13.083   6.213   9.221  1.00  0.00     0.094 A 
HETATM    9  C7  UNK     1      16.080   8.401  10.033  1.00  0.00     0.042 A 
HETATM   10  C8  UNK     1      14.699   9.925   8.137  1.00  0.00     0.040 A 
HETATM   11  C9  UNK     1      16.575   9.644   9.637  1.00  0.00     0.035 A 
HETATM   12  C10 UNK     1      15.886  10.405   8.692  1.00  0.00     0.026 A 
ENDROOT
BRANCH   6  13
HETATM   13  C6  UNK     1      11.251   6.683   7.642  1.00  0.00     0.038 A 
HETATM   14  C11 UNK     1      11.010   6.504   6.291  1.00  0.00     0.022 A 
HETATM   15  C12 UNK     1       9.650   6.171   6.022  1.00  0.00     0.008 A 
HETATM   16  C13 UNK     1       8.896   6.107   7.172  1.00  0.00     0.050 A 
HETATM   17  S1  UNK     1       9.825   6.446   8.569  1.00  0.00    -0.099 SA
ENDBRANCH   6  13
TORSDOF 1
ENDMDL
MODEL 9
REMARK VINA RESULT:      -6.7      3.902      6.037
REMARK  1 active torsions:
REMARK  status: ('A' for Active; 'I' for Inactive)
REMARK    1  A    between atoms: C3_7  and  C6_10 
ROOT
HETATM    1 Cl1  UNK     1      18.045  -1.742  37.266  1.00  0.00    -0.084 Cl
HETATM    2  O1  UNK     1      18.160   3.120  33.960  1.00  0.00    -0.308 OA
HETATM    3  O2  UNK     1      18.702  -0.460  32.091  1.00  0.00    -0.287 OA
HETATM    4  C1  UNK     1      18.321   0.701  34.114  1.00  0.00     0.050 A 
HETATM    5  C2  UNK     1      18.141   1.958  34.689  1.00  0.00     0.090 A 
HETATM    6  C3  UNK     1      18.374   3.038  32.592  1.00  0.00     0.097 A 
HETATM    7  C4  UNK     1      18.541   0.610  32.662  1.00  0.00     0.187 A 
HETATM    8  C5  UNK     1      18.554   1.889  31.923  1.00  0.00     0.094 A 
HETATM    9  C7  UNK     1      18.292  -0.449  34.906  1.00  0.00     0.042 A 
HETATM   10  C8  UNK     1      17.930   2.072  36.063  1.00  0.00     0.040 A 
HETATM   11  C9  UNK     1      18.081  -0.332  36.279  1.00  0.00     0.035 A 
HETATM   12  C10 UNK     1      17.899   0.925  36.858  1.00  0.00     0.026 A 
ENDROOT
BRANCH   6  13
HETATM   13  C6  UNK     1      18.368   4.345  31.905  1.00  0.00     0.038 A 
HETATM   14  C11 UNK     1      18.984   4.706  30.719  1.00  0.00     0.022 A 
HETATM   15  C12 UNK     1      18.745   6.069  30.377  1.00  0.00     0.008 A 
HETATM   16  C13 UNK     1      17.956   6.706  31.308  1.00  0.00     0.050 A 
HETATM   17  S1  UNK     1      17.506   5.663  32.589  1.00  0.00    -0.099 SA
ENDBRANCH   6  13
TORSDOF 1
ENDMDL
MODEL 10
REMARK VINA RESULT:      -6.7      5.721      8.966
REMARK  1 active torsions:
REMARK  status: ('A' for Active; 'I' for Inactive)
REMARK    1  A    between atoms: C3_7  and  C6_10 
ROOT
HETATM    1 Cl1  UNK     1      19.827   5.075  30.870  1.00  0.00    -0.084 Cl
HETATM    2  O1  UNK     1      17.334   9.251  34.175  1.00  0.00    -0.308 OA
HETATM    3  O2  UNK     1      15.170   7.747  31.067  1.00  0.00    -0.287 OA
HETATM    4  C1  UNK     1      17.189   7.718  32.296  1.00  0.00     0.050 A 
HETATM    5  C2  UNK     1      17.873   8.276  33.376  1.00  0.00     0.090 A 
HETATM    6  C3  UNK     1      16.055   9.707  33.890  1.00  0.00     0.097 A 
HETATM    7  C4  UNK     1      15.829   8.194  31.996  1.00  0.00     0.187 A 
HETATM    8  C5  UNK     1      15.295   9.246  32.884  1.00  0.00     0.094 A 
HETATM    9  C7  UNK     1      17.788   6.727  31.516  1.00  0.00     0.042 A 
HETATM   10  C8  UNK     1      19.162   7.842  33.683  1.00  0.00     0.040 A 
HETATM   11  C9  UNK     1      19.078   6.295  31.825  1.00  0.00     0.035 A 
HETATM   12  C10 UNK     1      19.764   6.851  32.906  1.00  0.00     0.026 A 
ENDROOT
BRANCH   6  13
HETATM   13  C6  UNK     1      15.570  10.751  34.815  1.00  0.00     0.038 A 
HETATM   14  C11 UNK     1      14.444  10.744  35.620  1.00  0.00     0.022 A 
HETATM   15  C12 UNK     1      14.312  11.943  36.380  1.00  0.00     0.008 A 
HETATM   16  C13 UNK     1      15.338  12.827  36.132  1.00  0.00     0.050 A 
HETATM   17  S1  UNK     1      16.455  12.212  34.990  1.00  0.00    -0.099 SA
ENDBRANCH   6  13
TORSDOF 1
ENDMDL
