MODEL 1
REMARK VINA RESULT:      -7.3      0.000      0.000
REMARK  5 active torsions:
REMARK  status: ('A' for Active; 'I' for Inactive)
REMARK    1  A    between atoms: C14_17  and  O1_1 
REMARK    2  A    between atoms: C9_12  and  N1_3 
REMARK    3  A    between atoms: C1_4  and  C4_7 
REMARK    4  A    between atoms: C14_17  and  C2_5 
REMARK    5  A    between atoms: C2_5  and  C3_6 
ROOT
HETATM    1  C2  UNK     1      18.424   7.932  33.280  1.00  0.00     0.048 C 
HETATM    2  C4  UNK     1      19.315   7.000  32.853  1.00  0.00     0.030 C 
ENDROOT
BRANCH   1   3
HETATM    3  C14 UNK     1      18.988   9.152  33.926  1.00  0.00     0.177 C 
HETATM    4  O2  UNK     1      19.961   9.182  34.664  1.00  0.00    -0.646 OA
BRANCH   3   5
HETATM    5  O1  UNK     1      18.277  10.251  33.578  1.00  0.00    -0.773 OA
HETATM    6  H13 UNK     1      17.887  10.166  32.682  1.00  0.00     0.167 HD
ENDBRANCH   3   5
ENDBRANCH   1   3
BRANCH   1   7
HETATM    7  C3  UNK     1      16.970   7.755  33.108  1.00  0.00    -0.019 A 
HETATM    8  C7  UNK     1      16.177   7.544  34.224  1.00  0.00     0.012 A 
HETATM    9  C12 UNK     1      14.802   7.377  34.062  1.00  0.00     0.001 A 
HETATM   10  C15 UNK     1      14.240   7.423  32.787  1.00  0.00     0.000 A 
HETATM   11  C13 UNK     1      15.052   7.636  31.673  1.00  0.00     0.001 A 
HETATM   12  C8  UNK     1      16.427   7.803  31.835  1.00  0.00     0.012 A 
ENDBRANCH   1   7
BRANCH   2  13
HETATM   13  C1  UNK     1      18.989   5.739  32.208  1.00  0.00    -0.035 A 
HETATM   14  C5  UNK     1      19.287   5.548  30.858  1.00  0.00     0.013 A 
HETATM   15  C10 UNK     1      18.974   4.337  30.240  1.00  0.00     0.030 A 
HETATM   16  C9  UNK     1      18.365   3.318  30.971  1.00  0.00     0.025 A 
HETATM   17  C11 UNK     1      18.068   3.507  32.320  1.00  0.00     0.030 A 
HETATM   18  C6  UNK     1      18.380   4.718  32.938  1.00  0.00     0.013 A 
BRANCH  16  19
HETATM   19  N1  UNK     1      18.050   2.093  30.345  1.00  0.00    -0.399 N 
HETATM   20  H11 UNK     1      18.058   2.024  29.336  1.00  0.00     0.156 HD
HETATM   21  H12 UNK     1      17.820   1.284  30.904  1.00  0.00     0.156 HD
ENDBRANCH  16  19
ENDBRANCH   2  13
TORSDOF 5
ENDMDL
MODEL 2
REMARK VINA RESULT:      -6.8     23.189     24.745
REMARK  5 active torsions:
REMARK  status: ('A' for Active; 'I' for Inactive)
REMARK    1  A    between atoms: C14_17  and  O1_1 
REMARK    2  A    between atoms: C9_12  and  N1_3 
REMARK    3  A    between atoms: C1_4  and  C4_7 
REMARK    4  A    between atoms: C14_17  and  C2_5 
REMARK    5  A    between atoms: C2_5  and  C3_6 
ROOT
HETATM    1  C2  UNK     1      14.082   5.704   9.108  1.00  0.00     0.048 C 
HETATM    2  C4  UNK     1      13.119   4.959   8.508  1.00  0.00     0.030 C 
ENDROOT
BRANCH   1   3
HETATM    3  C14 UNK     1      15.332   4.992   9.502  1.00  0.00     0.177 C 
HETATM    4  O2  UNK     1      16.470   5.370   9.269  1.00  0.00    -0.646 OA
BRANCH   3   5
HETATM    5  O1  UNK     1      15.043   3.852  10.173  1.00  0.00    -0.773 OA
HETATM    6  H13 UNK     1      15.686   3.677  10.893  1.00  0.00     0.167 HD
ENDBRANCH   3   5
ENDBRANCH   1   3
BRANCH   1   7
HETATM    7  C3  UNK     1      13.910   7.149   9.351  1.00  0.00    -0.019 A 
HETATM    8  C7  UNK     1      13.377   7.573  10.558  1.00  0.00     0.012 A 
HETATM    9  C12 UNK     1      13.215   8.938  10.789  1.00  0.00     0.001 A 
HETATM   10  C15 UNK     1      13.587   9.860   9.811  1.00  0.00     0.000 A 
HETATM   11  C13 UNK     1      14.122   9.417   8.602  1.00  0.00     0.001 A 
HETATM   12  C8  UNK     1      14.285   8.051   8.370  1.00  0.00     0.012 A 
ENDBRANCH   1   7
BRANCH   2  13
HETATM   13  C1  UNK     1      11.825   5.442   8.052  1.00  0.00    -0.035 A 
HETATM   14  C5  UNK     1      10.753   5.511   8.942  1.00  0.00     0.013 A 
HETATM   15  C10 UNK     1       9.512   5.974   8.505  1.00  0.00     0.030 A 
HETATM   16  C9  UNK     1       9.344   6.368   7.178  1.00  0.00     0.025 A 
HETATM   17  C11 UNK     1      10.415   6.301   6.288  1.00  0.00     0.030 A 
HETATM   18  C6  UNK     1      11.656   5.837   6.725  1.00  0.00     0.013 A 
BRANCH  16  19
HETATM   19  N1  UNK     1       8.089   6.838   6.736  1.00  0.00    -0.399 N 
HETATM   20  H11 UNK     1       7.731   6.553   5.834  1.00  0.00     0.156 HD
HETATM   21  H12 UNK     1       7.545   7.457   7.322  1.00  0.00     0.156 HD
ENDBRANCH  16  19
ENDBRANCH   2  13
TORSDOF 5
ENDMDL
MODEL 3
REMARK VINA RESULT:      -6.8     23.205     24.760
REMARK  5 active torsions:
REMARK  status: ('A' for Active; 'I' for Inactive)
REMARK    1  A    between atoms: C14_17  and  O1_1 
REMARK    2  A    between atoms: C9_12  and  N1_3 
REMARK    3  A    between atoms: C1_4  and  C4_7 
REMARK    4  A    between atoms: C14_17  and  C2_5 
REMARK    5  A    between atoms: C2_5  and  C3_6 
ROOT
HETATM    1  C2  UNK     1      14.067   5.706   9.094  1.00  0.00     0.048 C 
HETATM    2  C4  UNK     1      13.105   4.964   8.489  1.00  0.00     0.030 C 
ENDROOT
BRANCH   1   3
HETATM    3  C14 UNK     1      15.317   4.992   9.486  1.00  0.00     0.177 C 
HETATM    4  O2  UNK     1      16.455   5.365   9.245  1.00  0.00    -0.646 OA
BRANCH   3   5
HETATM    5  O1  UNK     1      15.028   3.857  10.166  1.00  0.00    -0.773 OA
HETATM    6  H13 UNK     1      14.872   3.099   9.563  1.00  0.00     0.167 HD
ENDBRANCH   3   5
ENDBRANCH   1   3
BRANCH   1   7
HETATM    7  C3  UNK     1      13.894   7.149   9.345  1.00  0.00    -0.019 A 
HETATM    8  C7  UNK     1      14.274   8.056   8.370  1.00  0.00     0.012 A 
HETATM    9  C12 UNK     1      14.110   9.420   8.607  1.00  0.00     0.001 A 
HETATM   10  C15 UNK     1      13.569   9.858   9.815  1.00  0.00     0.000 A 
HETATM   11  C13 UNK     1      13.191   8.932  10.787  1.00  0.00     0.001 A 
HETATM   12  C8  UNK     1      13.355   7.567  10.550  1.00  0.00     0.012 A 
ENDBRANCH   1   7
BRANCH   2  13
HETATM   13  C1  UNK     1      11.812   5.448   8.034  1.00  0.00    -0.035 A 
HETATM   14  C5  UNK     1      11.643   5.841   6.706  1.00  0.00     0.013 A 
HETATM   15  C10 UNK     1      10.402   6.306   6.268  1.00  0.00     0.030 A 
HETATM   16  C9  UNK     1       9.331   6.376   7.159  1.00  0.00     0.025 A 
HETATM   17  C11 UNK     1       9.499   5.982   8.486  1.00  0.00     0.030 A 
HETATM   18  C6  UNK     1      10.740   5.518   8.923  1.00  0.00     0.013 A 
BRANCH  16  19
HETATM   19  N1  UNK     1       8.076   6.845   6.716  1.00  0.00    -0.399 N 
HETATM   20  H11 UNK     1       7.494   7.395   7.334  1.00  0.00     0.156 HD
HETATM   21  H12 UNK     1       7.759   6.633   5.780  1.00  0.00     0.156 HD
ENDBRANCH  16  19
ENDBRANCH   2  13
TORSDOF 5
ENDMDL
MODEL 4
REMARK VINA RESULT:      -6.8     23.202     24.783
REMARK  5 active torsions:
REMARK  status: ('A' for Active; 'I' for Inactive)
REMARK    1  A    between atoms: C14_17  and  O1_1 
REMARK    2  A    between atoms: C9_12  and  N1_3 
REMARK    3  A    between atoms: C1_4  and  C4_7 
REMARK    4  A    between atoms: C14_17  and  C2_5 
REMARK    5  A    between atoms: C2_5  and  C3_6 
ROOT
HETATM    1  C2  UNK     1      14.073   5.703   9.093  1.00  0.00     0.048 C 
HETATM    2  C4  UNK     1      13.109   4.961   8.490  1.00  0.00     0.030 C 
ENDROOT
BRANCH   1   3
HETATM    3  C14 UNK     1      15.323   4.990   9.484  1.00  0.00     0.177 C 
HETATM    4  O2  UNK     1      16.460   5.362   9.238  1.00  0.00    -0.646 OA
BRANCH   3   5
HETATM    5  O1  UNK     1      15.035   3.857  10.166  1.00  0.00    -0.773 OA
HETATM    6  H13 UNK     1      15.538   3.086   9.827  1.00  0.00     0.167 HD
ENDBRANCH   3   5
ENDBRANCH   1   3
BRANCH   1   7
HETATM    7  C3  UNK     1      13.899   7.146   9.344  1.00  0.00    -0.019 A 
HETATM    8  C7  UNK     1      14.274   8.054   8.366  1.00  0.00     0.012 A 
HETATM    9  C12 UNK     1      14.110   9.418   8.603  1.00  0.00     0.001 A 
HETATM   10  C15 UNK     1      13.574   9.856   9.813  1.00  0.00     0.000 A 
HETATM   11  C13 UNK     1      13.202   8.930  10.788  1.00  0.00     0.001 A 
HETATM   12  C8  UNK     1      13.366   7.565  10.551  1.00  0.00     0.012 A 
ENDBRANCH   1   7
BRANCH   2  13
HETATM   13  C1  UNK     1      11.815   5.444   8.037  1.00  0.00    -0.035 A 
HETATM   14  C5  UNK     1      10.746   5.519   8.931  1.00  0.00     0.013 A 
HETATM   15  C10 UNK     1       9.505   5.983   8.496  1.00  0.00     0.030 A 
HETATM   16  C9  UNK     1       9.333   6.374   7.169  1.00  0.00     0.025 A 
HETATM   17  C11 UNK     1      10.400   6.301   6.275  1.00  0.00     0.030 A 
HETATM   18  C6  UNK     1      11.642   5.836   6.710  1.00  0.00     0.013 A 
BRANCH  16  19
HETATM   19  N1  UNK     1       8.077   6.845   6.730  1.00  0.00    -0.399 N 
HETATM   20  H11 UNK     1       7.229   6.387   7.037  1.00  0.00     0.156 HD
HETATM   21  H12 UNK     1       8.024   7.641   6.110  1.00  0.00     0.156 HD
ENDBRANCH  16  19
ENDBRANCH   2  13
TORSDOF 5
ENDMDL
MODEL 5
REMARK VINA RESULT:      -6.7     17.457     19.351
REMARK  5 active torsions:
REMARK  status: ('A' for Active; 'I' for Inactive)
REMARK    1  A    between atoms: C14_17  and  O1_1 
REMARK    2  A    between atoms: C9_12  and  N1_3 
REMARK    3  A    between atoms: C1_4  and  C4_7 
REMARK    4  A    between atoms: C14_17  and  C2_5 
REMARK    5  A    between atoms: C2_5  and  C3_6 
ROOT
HETATM    1  C2  UNK     1      30.043  -5.002  38.347  1.00  0.00     0.048 C 
HETATM    2  C4  UNK     1      31.272  -4.425  38.330  1.00  0.00     0.030 C 
ENDROOT
BRANCH   1   3
HETATM    3  C14 UNK     1      28.979  -4.289  39.111  1.00  0.00     0.177 C 
HETATM    4  O2  UNK     1      27.782  -4.324  38.865  1.00  0.00    -0.646 OA
BRANCH   3   5
HETATM    5  O1  UNK     1      29.513  -3.588  40.139  1.00  0.00    -0.773 OA
HETATM    6  H13 UNK     1      30.420  -3.273  39.935  1.00  0.00     0.167 HD
ENDBRANCH   3   5
ENDBRANCH   1   3
BRANCH   1   7
HETATM    7  C3  UNK     1      29.767  -6.266  37.640  1.00  0.00    -0.019 A 
HETATM    8  C7  UNK     1      29.477  -6.236  36.286  1.00  0.00     0.012 A 
HETATM    9  C12 UNK     1      29.217  -7.431  35.617  1.00  0.00     0.001 A 
HETATM   10  C15 UNK     1      29.250  -8.640  36.311  1.00  0.00     0.000 A 
HETATM   11  C13 UNK     1      29.544  -8.655  37.675  1.00  0.00     0.001 A 
HETATM   12  C8  UNK     1      29.804  -7.459  38.344  1.00  0.00     0.012 A 
ENDBRANCH   1   7
BRANCH   2  13
HETATM   13  C1  UNK     1      32.452  -4.947  37.660  1.00  0.00    -0.035 A 
HETATM   14  C5  UNK     1      32.811  -4.464  36.401  1.00  0.00     0.013 A 
HETATM   15  C10 UNK     1      33.943  -4.965  35.758  1.00  0.00     0.030 A 
HETATM   16  C9  UNK     1      34.717  -5.948  36.375  1.00  0.00     0.025 A 
HETATM   17  C11 UNK     1      34.359  -6.430  37.633  1.00  0.00     0.030 A 
HETATM   18  C6  UNK     1      33.227  -5.930  38.276  1.00  0.00     0.013 A 
BRANCH  16  19
HETATM   19  N1  UNK     1      35.862  -6.453  35.725  1.00  0.00    -0.399 N 
HETATM   20  H11 UNK     1      36.165  -7.403  35.898  1.00  0.00     0.156 HD
HETATM   21  H12 UNK     1      36.380  -5.868  35.084  1.00  0.00     0.156 HD
ENDBRANCH  16  19
ENDBRANCH   2  13
TORSDOF 5
ENDMDL
MODEL 6
REMARK VINA RESULT:      -6.7     17.458     19.322
REMARK  5 active torsions:
REMARK  status: ('A' for Active; 'I' for Inactive)
REMARK    1  A    between atoms: C14_17  and  O1_1 
REMARK    2  A    between atoms: C9_12  and  N1_3 
REMARK    3  A    between atoms: C1_4  and  C4_7 
REMARK    4  A    between atoms: C14_17  and  C2_5 
REMARK    5  A    between atoms: C2_5  and  C3_6 
ROOT
HETATM    1  C2  UNK     1      30.042  -5.004  38.347  1.00  0.00     0.048 C 
HETATM    2  C4  UNK     1      31.271  -4.427  38.330  1.00  0.00     0.030 C 
ENDROOT
BRANCH   1   3
HETATM    3  C14 UNK     1      28.977  -4.291  39.111  1.00  0.00     0.177 C 
HETATM    4  O2  UNK     1      27.781  -4.327  38.865  1.00  0.00    -0.646 OA
BRANCH   3   5
HETATM    5  O1  UNK     1      29.512  -3.590  40.138  1.00  0.00    -0.773 OA
HETATM    6  H13 UNK     1      30.256  -3.021  39.846  1.00  0.00     0.167 HD
ENDBRANCH   3   5
ENDBRANCH   1   3
BRANCH   1   7
HETATM    7  C3  UNK     1      29.767  -6.268  37.639  1.00  0.00    -0.019 A 
HETATM    8  C7  UNK     1      29.801  -7.460  38.344  1.00  0.00     0.012 A 
HETATM    9  C12 UNK     1      29.541  -8.656  37.676  1.00  0.00     0.001 A 
HETATM   10  C15 UNK     1      29.249  -8.643  36.313  1.00  0.00     0.000 A 
HETATM   11  C13 UNK     1      29.218  -7.435  35.617  1.00  0.00     0.001 A 
HETATM   12  C8  UNK     1      29.479  -6.239  36.285  1.00  0.00     0.012 A 
ENDBRANCH   1   7
BRANCH   2  13
HETATM   13  C1  UNK     1      32.451  -4.948  37.660  1.00  0.00    -0.035 A 
HETATM   14  C5  UNK     1      32.810  -4.463  36.402  1.00  0.00     0.013 A 
HETATM   15  C10 UNK     1      33.943  -4.964  35.759  1.00  0.00     0.030 A 
HETATM   16  C9  UNK     1      34.716  -5.947  36.375  1.00  0.00     0.025 A 
HETATM   17  C11 UNK     1      34.358  -6.432  37.632  1.00  0.00     0.030 A 
HETATM   18  C6  UNK     1      33.225  -5.932  38.275  1.00  0.00     0.013 A 
BRANCH  16  19
HETATM   19  N1  UNK     1      35.862  -6.452  35.725  1.00  0.00    -0.399 N 
HETATM   20  H11 UNK     1      36.765  -6.024  35.884  1.00  0.00     0.156 HD
HETATM   21  H12 UNK     1      35.783  -7.243  35.101  1.00  0.00     0.156 HD
ENDBRANCH  16  19
ENDBRANCH   2  13
TORSDOF 5
ENDMDL
MODEL 7
REMARK VINA RESULT:      -6.7      3.676      5.768
REMARK  5 active torsions:
REMARK  status: ('A' for Active; 'I' for Inactive)
REMARK    1  A    between atoms: C14_17  and  O1_1 
REMARK    2  A    between atoms: C9_12  and  N1_3 
REMARK    3  A    between atoms: C1_4  and  C4_7 
REMARK    4  A    between atoms: C14_17  and  C2_5 
REMARK    5  A    between atoms: C2_5  and  C3_6 
ROOT
HETATM    1  C2  UNK     1      18.494   5.066  33.489  1.00  0.00     0.048 C 
HETATM    2  C4  UNK     1      18.187   6.008  34.417  1.00  0.00     0.030 C 
ENDROOT
BRANCH   1   3
HETATM    3  C14 UNK     1      18.207   3.648  33.851  1.00  0.00     0.177 C 
HETATM    4  O2  UNK     1      17.785   2.790  33.091  1.00  0.00    -0.646 OA
BRANCH   3   5
HETATM    5  O1  UNK     1      18.485   3.421  35.157  1.00  0.00    -0.773 OA
HETATM    6  H13 UNK     1      17.781   2.899  35.597  1.00  0.00     0.167 HD
ENDBRANCH   3   5
ENDBRANCH   1   3
BRANCH   1   7
HETATM    7  C3  UNK     1      19.076   5.423  32.181  1.00  0.00    -0.019 A 
HETATM    8  C7  UNK     1      18.234   5.659  31.107  1.00  0.00     0.012 A 
HETATM    9  C12 UNK     1      18.783   5.997  29.871  1.00  0.00     0.001 A 
HETATM   10  C15 UNK     1      20.167   6.093  29.726  1.00  0.00     0.000 A 
HETATM   11  C13 UNK     1      21.002   5.853  30.817  1.00  0.00     0.001 A 
HETATM   12  C8  UNK     1      20.452   5.514  32.053  1.00  0.00     0.012 A 
ENDBRANCH   1   7
BRANCH   2  13
HETATM   13  C1  UNK     1      18.390   7.441  34.280  1.00  0.00    -0.035 A 
HETATM   14  C5  UNK     1      17.339   8.257  33.858  1.00  0.00     0.013 A 
HETATM   15  C10 UNK     1      17.534   9.632  33.726  1.00  0.00     0.030 A 
HETATM   16  C9  UNK     1      18.777  10.191  34.018  1.00  0.00     0.025 A 
HETATM   17  C11 UNK     1      19.827   9.377  34.440  1.00  0.00     0.030 A 
HETATM   18  C6  UNK     1      19.633   8.001  34.571  1.00  0.00     0.013 A 
BRANCH  16  19
HETATM   19  N1  UNK     1      18.973  11.582  33.886  1.00  0.00    -0.399 N 
HETATM   20  H11 UNK     1      19.202  11.978  32.984  1.00  0.00     0.156 HD
HETATM   21  H12 UNK     1      18.882  12.184  34.692  1.00  0.00     0.156 HD
ENDBRANCH  16  19
ENDBRANCH   2  13
TORSDOF 5
ENDMDL
MODEL 8
REMARK VINA RESULT:      -6.6     16.781     18.927
REMARK  5 active torsions:
REMARK  status: ('A' for Active; 'I' for Inactive)
REMARK    1  A    between atoms: C14_17  and  O1_1 
REMARK    2  A    between atoms: C9_12  and  N1_3 
REMARK    3  A    between atoms: C1_4  and  C4_7 
REMARK    4  A    between atoms: C14_17  and  C2_5 
REMARK    5  A    between atoms: C2_5  and  C3_6 
ROOT
HETATM    1  C2  UNK     1      27.644  -6.169  38.320  1.00  0.00     0.048 C 
HETATM    2  C4  UNK     1      28.798  -5.632  37.848  1.00  0.00     0.030 C 
ENDROOT
BRANCH   1   3
HETATM    3  C14 UNK     1      26.551  -5.215  38.664  1.00  0.00     0.177 C 
HETATM    4  O2  UNK     1      25.367  -5.496  38.770  1.00  0.00    -0.646 OA
BRANCH   3   5
HETATM    5  O1  UNK     1      27.045  -3.969  38.856  1.00  0.00    -0.773 OA
HETATM    6  H13 UNK     1      27.320  -3.550  38.012  1.00  0.00     0.167 HD
ENDBRANCH   3   5
ENDBRANCH   1   3
BRANCH   1   7
HETATM    7  C3  UNK     1      27.471  -7.626  38.478  1.00  0.00    -0.019 A 
HETATM    8  C7  UNK     1      27.052  -8.380  37.394  1.00  0.00     0.012 A 
HETATM    9  C12 UNK     1      26.890  -9.756  37.542  1.00  0.00     0.001 A 
HETATM   10  C15 UNK     1      27.147 -10.360  38.772  1.00  0.00     0.000 A 
HETATM   11  C13 UNK     1      27.569  -9.587  39.855  1.00  0.00     0.001 A 
HETATM   12  C8  UNK     1      27.731  -8.210  39.706  1.00  0.00     0.012 A 
ENDBRANCH   1   7
BRANCH   2  13
HETATM   13  C1  UNK     1      29.989  -6.370  37.462  1.00  0.00    -0.035 A 
HETATM   14  C5  UNK     1      30.200  -6.702  36.123  1.00  0.00     0.013 A 
HETATM   15  C10 UNK     1      31.343  -7.411  35.752  1.00  0.00     0.030 A 
HETATM   16  C9  UNK     1      32.275  -7.785  36.719  1.00  0.00     0.025 A 
HETATM   17  C11 UNK     1      32.066  -7.453  38.057  1.00  0.00     0.030 A 
HETATM   18  C6  UNK     1      30.922  -6.745  38.428  1.00  0.00     0.013 A 
BRANCH  16  19
HETATM   19  N1  UNK     1      33.432  -8.500  36.343  1.00  0.00    -0.399 N 
HETATM   20  H11 UNK     1      34.341  -8.200  36.670  1.00  0.00     0.156 HD
HETATM   21  H12 UNK     1      33.353  -9.315  35.750  1.00  0.00     0.156 HD
ENDBRANCH  16  19
ENDBRANCH   2  13
TORSDOF 5
ENDMDL
MODEL 9
REMARK VINA RESULT:      -6.6     17.598     19.171
REMARK  5 active torsions:
REMARK  status: ('A' for Active; 'I' for Inactive)
REMARK    1  A    between atoms: C14_17  and  O1_1 
REMARK    2  A    between atoms: C9_12  and  N1_3 
REMARK    3  A    between atoms: C1_4  and  C4_7 
REMARK    4  A    between atoms: C14_17  and  C2_5 
REMARK    5  A    between atoms: C2_5  and  C3_6 
ROOT
HETATM    1  C2  UNK     1      29.467  -5.622  38.432  1.00  0.00     0.048 C 
HETATM    2  C4  UNK     1      28.233  -6.084  38.758  1.00  0.00     0.030 C 
ENDROOT
BRANCH   1   3
HETATM    3  C14 UNK     1      29.758  -4.198  38.763  1.00  0.00     0.177 C 
HETATM    4  O2  UNK     1      29.644  -3.685  39.866  1.00  0.00    -0.646 OA
BRANCH   3   5
HETATM    5  O1  UNK     1      30.183  -3.528  37.665  1.00  0.00    -0.773 OA
HETATM    6  H13 UNK     1      29.664  -2.710  37.511  1.00  0.00     0.167 HD
ENDBRANCH   3   5
ENDBRANCH   1   3
BRANCH   1   7
HETATM    7  C3  UNK     1      30.476  -6.486  37.791  1.00  0.00    -0.019 A 
HETATM    8  C7  UNK     1      31.387  -7.166  38.583  1.00  0.00     0.012 A 
HETATM    9  C12 UNK     1      32.342  -7.982  37.978  1.00  0.00     0.001 A 
HETATM   10  C15 UNK     1      32.372  -8.108  36.589  1.00  0.00     0.000 A 
HETATM   11  C13 UNK     1      31.448  -7.416  35.806  1.00  0.00     0.001 A 
HETATM   12  C8  UNK     1      30.494  -6.599  36.411  1.00  0.00     0.012 A 
ENDBRANCH   1   7
BRANCH   2  13
HETATM   13  C1  UNK     1      27.733  -7.429  38.521  1.00  0.00    -0.035 A 
HETATM   14  C5  UNK     1      27.767  -8.376  39.546  1.00  0.00     0.013 A 
HETATM   15  C10 UNK     1      27.288  -9.667  39.318  1.00  0.00     0.030 A 
HETATM   16  C9  UNK     1      26.774 -10.009  38.068  1.00  0.00     0.025 A 
HETATM   17  C11 UNK     1      26.739  -9.063  37.045  1.00  0.00     0.030 A 
HETATM   18  C6  UNK     1      27.219  -7.773  37.271  1.00  0.00     0.013 A 
BRANCH  16  19
HETATM   19  N1  UNK     1      26.289 -11.314  37.840  1.00  0.00    -0.399 N 
HETATM   20  H11 UNK     1      25.342 -11.555  38.103  1.00  0.00     0.156 HD
HETATM   21  H12 UNK     1      26.885 -12.008  37.410  1.00  0.00     0.156 HD
ENDBRANCH  16  19
ENDBRANCH   2  13
TORSDOF 5
ENDMDL
MODEL 10
REMARK VINA RESULT:      -6.6      3.286      5.351
REMARK  5 active torsions:
REMARK  status: ('A' for Active; 'I' for Inactive)
REMARK    1  A    between atoms: C14_17  and  O1_1 
REMARK    2  A    between atoms: C9_12  and  N1_3 
REMARK    3  A    between atoms: C1_4  and  C4_7 
REMARK    4  A    between atoms: C14_17  and  C2_5 
REMARK    5  A    between atoms: C2_5  and  C3_6 
ROOT
HETATM    1  C2  UNK     1      15.847   7.375  32.757  1.00  0.00     0.048 C 
HETATM    2  C4  UNK     1      16.148   8.399  33.595  1.00  0.00     0.030 C 
ENDROOT
BRANCH   1   3
HETATM    3  C14 UNK     1      14.400   7.067  32.566  1.00  0.00     0.177 C 
HETATM    4  O2  UNK     1      13.891   6.648  31.537  1.00  0.00    -0.646 OA
BRANCH   3   5
HETATM    5  O1  UNK     1      13.705   7.309  33.702  1.00  0.00    -0.773 OA
HETATM    6  H13 UNK     1      14.297   7.455  34.470  1.00  0.00     0.167 HD
ENDBRANCH   3   5
ENDBRANCH   1   3
BRANCH   1   7
HETATM    7  C3  UNK     1      16.895   6.606  32.060  1.00  0.00    -0.019 A 
HETATM    8  C7  UNK     1      17.268   5.366  32.555  1.00  0.00     0.012 A 
HETATM    9  C12 UNK     1      18.258   4.639  31.897  1.00  0.00     0.001 A 
HETATM   10  C15 UNK     1      18.863   5.160  30.754  1.00  0.00     0.000 A 
HETATM   11  C13 UNK     1      18.477   6.409  30.267  1.00  0.00     0.001 A 
HETATM   12  C8  UNK     1      17.486   7.137  30.926  1.00  0.00     0.012 A 
ENDBRANCH   1   7
BRANCH   2  13
HETATM   13  C1  UNK     1      17.484   8.863  33.933  1.00  0.00    -0.035 A 
HETATM   14  C5  UNK     1      17.820  10.206  33.758  1.00  0.00     0.013 A 
HETATM   15  C10 UNK     1      19.102  10.651  34.082  1.00  0.00     0.030 A 
HETATM   16  C9  UNK     1      20.046   9.754  34.582  1.00  0.00     0.025 A 
HETATM   17  C11 UNK     1      19.710   8.413  34.757  1.00  0.00     0.030 A 
HETATM   18  C6  UNK     1      18.428   7.967  34.432  1.00  0.00     0.013 A 
BRANCH  16  19
HETATM   19  N1  UNK     1      21.342  10.206  34.911  1.00  0.00    -0.399 N 
HETATM   20  H11 UNK     1      22.057   9.541  35.176  1.00  0.00     0.156 HD
HETATM   21  H12 UNK     1      21.557  11.192  34.879  1.00  0.00     0.156 HD
ENDBRANCH  16  19
ENDBRANCH   2  13
TORSDOF 5
ENDMDL
