MODEL 1
REMARK VINA RESULT:      -9.0      0.000      0.000
REMARK  5 active torsions:
REMARK  status: ('A' for Active; 'I' for Inactive)
REMARK    1  A    between atoms: C6_12  and  O2_3 
REMARK       I    between atoms: C12_18  and  N1_6 
REMARK    2  A    between atoms: C13_19  and  N1_6 
REMARK    3  A    between atoms: C3_9  and  C5_11 
REMARK    4  A    between atoms: C12_18  and  C5_11 
REMARK    5  A    between atoms: C13_19  and  C15_21 
ROOT
HETATM    1  O1  UNK     1      19.731   7.956  34.006  1.00  0.00    -0.274 OA
HETATM    2  O3  UNK     1      20.415   5.803  33.808  1.00  0.00    -0.259 OA
HETATM    3  C1  UNK     1      17.395   8.541  33.656  1.00  0.00     0.038 A 
HETATM    4  C2  UNK     1      17.097   7.119  33.393  1.00  0.00    -0.034 A 
HETATM    5  C3  UNK     1      18.101   6.215  33.412  1.00  0.00     0.033 A 
HETATM    6  C4  UNK     1      18.704   8.911  33.956  1.00  0.00     0.093 A 
HETATM    7  C6  UNK     1      16.435   9.565  33.615  1.00  0.00     0.082 A 
HETATM    8  C7  UNK     1      19.498   6.616  33.749  1.00  0.00     0.295 A 
HETATM    9  C8  UNK     1      19.071  10.233  34.216  1.00  0.00     0.045 A 
HETATM   10  C9  UNK     1      18.103  11.229  34.176  1.00  0.00    -0.057 A 
HETATM   11  C10 UNK     1      15.669   6.695  33.147  1.00  0.00     0.050 C 
HETATM   12  C11 UNK     1      16.785  10.895  33.873  1.00  0.00     0.044 A 
HETATM   13  C14 UNK     1      18.473  12.647  34.450  1.00  0.00     0.048 C 
ENDROOT
BRANCH   5  14
HETATM   14  C5  UNK     1      17.940   4.748  33.096  1.00  0.00     0.148 C 
BRANCH  14  15
HETATM   15  C12 UNK     1      18.207   4.544  31.624  1.00  0.00     0.222 C 
HETATM   16  O4  UNK     1      18.511   5.470  30.874  1.00  0.00    -0.273 OA
HETATM   17  N1  UNK     1      18.054   3.221  31.239  1.00  0.00    -0.357 N 
HETATM   18  H10 UNK     1      17.809   2.524  31.935  1.00  0.00     0.162 HD
BRANCH  17  19
HETATM   19  C13 UNK     1      18.237   2.773  29.877  1.00  0.00     0.161 C 
BRANCH  19  20
HETATM   20  C15 UNK     1      18.935   1.445  29.812  1.00  0.00    -0.040 A 
HETATM   21  C16 UNK     1      18.987   0.752  28.610  1.00  0.00     0.012 A 
HETATM   22  C19 UNK     1      19.635  -0.481  28.551  1.00  0.00     0.043 A 
HETATM   23  C21 UNK     1      20.228  -1.013  29.696  1.00  0.00     0.116 A 
HETATM   24  C20 UNK     1      20.171  -0.312  30.900  1.00  0.00     0.043 A 
HETATM   25  F1  UNK     1      20.851  -2.197  29.639  1.00  0.00    -0.206 F 
HETATM   26  C17 UNK     1      19.523   0.923  30.959  1.00  0.00     0.012 A 
ENDBRANCH  19  20
ENDBRANCH  17  19
ENDBRANCH  14  15
ENDBRANCH   5  14
BRANCH   7  27
HETATM   27  O2  UNK     1      15.122   9.358  33.306  1.00  0.00    -0.355 OA
HETATM   28  C18 UNK     1      14.155   9.870  34.219  1.00  0.00     0.210 C 
ENDBRANCH   7  27
TORSDOF 5
ENDMDL
MODEL 2
REMARK VINA RESULT:      -8.9      3.603      9.388
REMARK  5 active torsions:
REMARK  status: ('A' for Active; 'I' for Inactive)
REMARK    1  A    between atoms: C6_12  and  O2_3 
REMARK       I    between atoms: C12_18  and  N1_6 
REMARK    2  A    between atoms: C13_19  and  N1_6 
REMARK    3  A    between atoms: C3_9  and  C5_11 
REMARK    4  A    between atoms: C12_18  and  C5_11 
REMARK    5  A    between atoms: C13_19  and  C15_21 
ROOT
HETATM    1  O1  UNK     1      19.242   1.654  29.368  1.00  0.00    -0.274 OA
HETATM    2  O3  UNK     1      18.542   3.766  28.928  1.00  0.00    -0.259 OA
HETATM    3  C1  UNK     1      19.043   0.735  31.612  1.00  0.00     0.038 A 
HETATM    4  C2  UNK     1      18.439   2.006  32.059  1.00  0.00    -0.034 A 
HETATM    5  C3  UNK     1      18.301   3.022  31.180  1.00  0.00     0.033 A 
HETATM    6  C4  UNK     1      19.423   0.602  30.279  1.00  0.00     0.093 A 
HETATM    7  C6  UNK     1      19.274  -0.364  32.455  1.00  0.00     0.082 A 
HETATM    8  C7  UNK     1      18.696   2.867  29.749  1.00  0.00     0.295 A 
HETATM    9  C8  UNK     1      20.002  -0.565  29.775  1.00  0.00     0.045 A 
HETATM   10  C9  UNK     1      20.216  -1.642  30.626  1.00  0.00    -0.057 A 
HETATM   11  C10 UNK     1      17.949   2.133  33.482  1.00  0.00     0.050 C 
HETATM   12  C11 UNK     1      19.853  -1.541  31.967  1.00  0.00     0.044 A 
HETATM   13  C14 UNK     1      20.833  -2.896  30.109  1.00  0.00     0.048 C 
ENDROOT
BRANCH   5  14
HETATM   14  C5  UNK     1      17.761   4.388  31.525  1.00  0.00     0.148 C 
BRANCH  14  15
HETATM   15  C12 UNK     1      18.890   5.222  32.082  1.00  0.00     0.222 C 
HETATM   16  O4  UNK     1      19.902   5.479  31.432  1.00  0.00    -0.273 OA
HETATM   17  N1  UNK     1      18.652   5.631  33.384  1.00  0.00    -0.357 N 
HETATM   18  H10 UNK     1      17.779   5.376  33.836  1.00  0.00     0.162 HD
BRANCH  17  19
HETATM   19  C13 UNK     1      19.591   6.425  34.143  1.00  0.00     0.161 C 
BRANCH  19  20
HETATM   20  C15 UNK     1      19.247   7.886  34.111  1.00  0.00    -0.040 A 
HETATM   21  C16 UNK     1      17.963   8.284  33.759  1.00  0.00     0.012 A 
HETATM   22  C19 UNK     1      17.645   9.641  33.729  1.00  0.00     0.043 A 
HETATM   23  C21 UNK     1      18.613  10.592  34.053  1.00  0.00     0.116 A 
HETATM   24  C20 UNK     1      19.899  10.185  34.405  1.00  0.00     0.043 A 
HETATM   25  F1  UNK     1      18.307  11.895  34.025  1.00  0.00    -0.206 F 
HETATM   26  C17 UNK     1      20.218   8.827  34.435  1.00  0.00     0.012 A 
ENDBRANCH  19  20
ENDBRANCH  17  19
ENDBRANCH  14  15
ENDBRANCH   5  14
BRANCH   7  27
HETATM   27  O2  UNK     1      18.982  -0.369  33.788  1.00  0.00    -0.355 OA
HETATM   28  C18 UNK     1      19.327  -1.541  34.521  1.00  0.00     0.210 C 
ENDBRANCH   7  27
TORSDOF 5
ENDMDL
MODEL 3
REMARK VINA RESULT:      -8.8     15.805     18.410
REMARK  5 active torsions:
REMARK  status: ('A' for Active; 'I' for Inactive)
REMARK    1  A    between atoms: C6_12  and  O2_3 
REMARK       I    between atoms: C12_18  and  N1_6 
REMARK    2  A    between atoms: C13_19  and  N1_6 
REMARK    3  A    between atoms: C3_9  and  C5_11 
REMARK    4  A    between atoms: C12_18  and  C5_11 
REMARK    5  A    between atoms: C13_19  and  C15_21 
ROOT
HETATM    1  O1  UNK     1      31.297  -8.749  37.972  1.00  0.00    -0.274 OA
HETATM    2  O3  UNK     1      33.343  -8.060  37.280  1.00  0.00    -0.259 OA
HETATM    3  C1  UNK     1      29.605  -7.123  38.618  1.00  0.00     0.038 A 
HETATM    4  C2  UNK     1      30.558  -6.037  38.312  1.00  0.00    -0.034 A 
HETATM    5  C3  UNK     1      31.806  -6.346  37.899  1.00  0.00     0.033 A 
HETATM    6  C4  UNK     1      30.007  -8.444  38.436  1.00  0.00     0.093 A 
HETATM    7  C6  UNK     1      28.302  -6.912  39.096  1.00  0.00     0.082 A 
HETATM    8  C7  UNK     1      32.226  -7.763  37.691  1.00  0.00     0.295 A 
HETATM    9  C8  UNK     1      29.170  -9.529  38.701  1.00  0.00     0.045 A 
HETATM   10  C9  UNK     1      27.882  -9.296  39.170  1.00  0.00    -0.057 A 
HETATM   11  C10 UNK     1      30.106  -4.601  38.427  1.00  0.00     0.050 C 
HETATM   12  C11 UNK     1      27.448  -7.988  39.369  1.00  0.00     0.044 A 
HETATM   13  C14 UNK     1      26.971 -10.440  39.461  1.00  0.00     0.048 C 
ENDROOT
BRANCH   5  14
HETATM   14  C5  UNK     1      32.891  -5.335  37.618  1.00  0.00     0.148 C 
BRANCH  14  15
HETATM   15  C12 UNK     1      32.684  -4.785  36.227  1.00  0.00     0.222 C 
HETATM   16  O4  UNK     1      32.662  -3.578  35.992  1.00  0.00    -0.273 OA
HETATM   17  N1  UNK     1      32.511  -5.786  35.284  1.00  0.00    -0.357 N 
HETATM   18  H10 UNK     1      32.555  -6.758  35.575  1.00  0.00     0.162 HD
BRANCH  17  19
HETATM   19  C13 UNK     1      32.278  -5.515  33.884  1.00  0.00     0.161 C 
BRANCH  19  20
HETATM   20  C15 UNK     1      30.832  -5.676  33.514  1.00  0.00    -0.040 A 
HETATM   21  C16 UNK     1      29.959  -6.295  34.400  1.00  0.00     0.012 A 
HETATM   22  C19 UNK     1      28.616  -6.444  34.056  1.00  0.00     0.043 A 
HETATM   23  C21 UNK     1      28.155  -5.971  32.827  1.00  0.00     0.116 A 
HETATM   24  C20 UNK     1      29.037  -5.351  31.943  1.00  0.00     0.043 A 
HETATM   25  F1  UNK     1      26.864  -6.113  32.497  1.00  0.00    -0.206 F 
HETATM   26  C17 UNK     1      30.381  -5.202  32.288  1.00  0.00     0.012 A 
ENDBRANCH  19  20
ENDBRANCH  17  19
ENDBRANCH  14  15
ENDBRANCH   5  14
BRANCH   7  27
HETATM   27  O2  UNK     1      27.781  -5.677  39.351  1.00  0.00    -0.355 OA
HETATM   28  C18 UNK     1      26.569  -5.337  38.683  1.00  0.00     0.210 C 
ENDBRANCH   7  27
TORSDOF 5
ENDMDL
MODEL 4
REMARK VINA RESULT:      -8.7     10.095     15.433
REMARK  5 active torsions:
REMARK  status: ('A' for Active; 'I' for Inactive)
REMARK    1  A    between atoms: C6_12  and  O2_3 
REMARK       I    between atoms: C12_18  and  N1_6 
REMARK    2  A    between atoms: C13_19  and  N1_6 
REMARK    3  A    between atoms: C3_9  and  C5_11 
REMARK    4  A    between atoms: C12_18  and  C5_11 
REMARK    5  A    between atoms: C13_19  and  C15_21 
ROOT
HETATM    1  O1  UNK     1      20.257  -9.428  35.900  1.00  0.00    -0.274 OA
HETATM    2  O3  UNK     1      18.354  -8.198  35.985  1.00  0.00    -0.259 OA
HETATM    3  C1  UNK     1      22.286  -8.630  36.979  1.00  0.00     0.038 A 
HETATM    4  C2  UNK     1      21.555  -7.428  37.426  1.00  0.00    -0.034 A 
HETATM    5  C3  UNK     1      20.261  -7.268  37.071  1.00  0.00     0.033 A 
HETATM    6  C4  UNK     1      21.611  -9.591  36.231  1.00  0.00     0.093 A 
HETATM    7  C6  UNK     1      23.643  -8.870  37.253  1.00  0.00     0.082 A 
HETATM    8  C7  UNK     1      19.539  -8.308  36.283  1.00  0.00     0.295 A 
HETATM    9  C8  UNK     1      22.228 -10.755  35.769  1.00  0.00     0.045 A 
HETATM   10  C9  UNK     1      23.570 -10.975  36.057  1.00  0.00    -0.057 A 
HETATM   11  C10 UNK     1      22.254  -6.419  38.305  1.00  0.00     0.050 C 
HETATM   12  C11 UNK     1      24.278 -10.032  36.798  1.00  0.00     0.044 A 
HETATM   13  C14 UNK     1      24.249 -12.211  35.573  1.00  0.00     0.048 C 
ENDROOT
BRANCH   5  14
HETATM   14  C5  UNK     1      19.424  -6.058  37.407  1.00  0.00     0.148 C 
BRANCH  14  15
HETATM   15  C12 UNK     1      19.847  -4.920  36.509  1.00  0.00     0.222 C 
HETATM   16  O4  UNK     1      20.152  -5.089  35.330  1.00  0.00    -0.273 OA
HETATM   17  N1  UNK     1      19.861  -3.702  37.171  1.00  0.00    -0.357 N 
HETATM   18  H10 UNK     1      19.583  -3.662  38.147  1.00  0.00     0.162 HD
BRANCH  17  19
HETATM   19  C13 UNK     1      20.248  -2.465  36.533  1.00  0.00     0.161 C 
BRANCH  19  20
HETATM   20  C15 UNK     1      19.060  -1.692  36.039  1.00  0.00    -0.040 A 
HETATM   21  C16 UNK     1      18.056  -1.329  36.928  1.00  0.00     0.012 A 
HETATM   22  C19 UNK     1      16.952  -0.611  36.468  1.00  0.00     0.043 A 
HETATM   23  C21 UNK     1      16.861  -0.260  35.121  1.00  0.00     0.116 A 
HETATM   24  C20 UNK     1      17.873  -0.628  34.235  1.00  0.00     0.043 A 
HETATM   25  F1  UNK     1      15.802   0.430  34.679  1.00  0.00    -0.206 F 
HETATM   26  C17 UNK     1      18.977  -1.346  34.695  1.00  0.00     0.012 A 
ENDBRANCH  19  20
ENDBRANCH  17  19
ENDBRANCH  14  15
ENDBRANCH   5  14
BRANCH   7  27
HETATM   27  O2  UNK     1      24.439  -8.006  37.947  1.00  0.00    -0.355 OA
HETATM   28  C18 UNK     1      25.703  -8.500  38.382  1.00  0.00     0.210 C 
ENDBRANCH   7  27
TORSDOF 5
ENDMDL
MODEL 5
REMARK VINA RESULT:      -8.6     16.436     19.859
REMARK  5 active torsions:
REMARK  status: ('A' for Active; 'I' for Inactive)
REMARK    1  A    between atoms: C6_12  and  O2_3 
REMARK       I    between atoms: C12_18  and  N1_6 
REMARK    2  A    between atoms: C13_19  and  N1_6 
REMARK    3  A    between atoms: C3_9  and  C5_11 
REMARK    4  A    between atoms: C12_18  and  C5_11 
REMARK    5  A    between atoms: C13_19  and  C15_21 
ROOT
HETATM    1  O1  UNK     1      31.361  -8.550  38.038  1.00  0.00    -0.274 OA
HETATM    2  O3  UNK     1      33.419  -7.763  37.500  1.00  0.00    -0.259 OA
HETATM    3  C1  UNK     1      29.585  -7.014  38.675  1.00  0.00     0.038 A 
HETATM    4  C2  UNK     1      30.518  -5.885  38.484  1.00  0.00    -0.034 A 
HETATM    5  C3  UNK     1      31.796  -6.133  38.125  1.00  0.00     0.033 A 
HETATM    6  C4  UNK     1      30.039  -8.309  38.444  1.00  0.00     0.093 A 
HETATM    7  C6  UNK     1      28.252  -6.868  39.091  1.00  0.00     0.082 A 
HETATM    8  C7  UNK     1      32.272  -7.523  37.864  1.00  0.00     0.295 A 
HETATM    9  C8  UNK     1      29.224  -9.432  38.602  1.00  0.00     0.045 A 
HETATM   10  C9  UNK     1      27.905  -9.264  39.009  1.00  0.00    -0.057 A 
HETATM   11  C10 UNK     1      30.014  -4.471  38.653  1.00  0.00     0.050 C 
HETATM   12  C11 UNK     1      27.420  -7.982  39.255  1.00  0.00     0.044 A 
HETATM   13  C14 UNK     1      27.018 -10.449  39.185  1.00  0.00     0.048 C 
ENDROOT
BRANCH   5  14
HETATM   14  C5  UNK     1      32.861  -5.076  37.962  1.00  0.00     0.148 C 
BRANCH  14  15
HETATM   15  C12 UNK     1      33.002  -4.761  36.492  1.00  0.00     0.222 C 
HETATM   16  O4  UNK     1      32.098  -4.241  35.841  1.00  0.00    -0.273 OA
HETATM   17  N1  UNK     1      34.236  -5.139  35.987  1.00  0.00    -0.357 N 
HETATM   18  H10 UNK     1      34.923  -5.556  36.609  1.00  0.00     0.162 HD
BRANCH  17  19
HETATM   19  C13 UNK     1      34.607  -4.961  34.602  1.00  0.00     0.161 C 
BRANCH  19  20
HETATM   20  C15 UNK     1      35.392  -6.127  34.076  1.00  0.00    -0.040 A 
HETATM   21  C16 UNK     1      35.187  -6.564  32.773  1.00  0.00     0.012 A 
HETATM   22  C19 UNK     1      35.916  -7.648  32.286  1.00  0.00     0.043 A 
HETATM   23  C21 UNK     1      36.848  -8.287  33.105  1.00  0.00     0.116 A 
HETATM   24  C20 UNK     1      37.048  -7.842  34.412  1.00  0.00     0.043 A 
HETATM   25  F1  UNK     1      37.550  -9.327  32.636  1.00  0.00    -0.206 F 
HETATM   26  C17 UNK     1      36.318  -6.758  34.899  1.00  0.00     0.012 A 
ENDBRANCH  19  20
ENDBRANCH  17  19
ENDBRANCH  14  15
ENDBRANCH   5  14
BRANCH   7  27
HETATM   27  O2  UNK     1      27.678  -5.665  39.384  1.00  0.00    -0.355 OA
HETATM   28  C18 UNK     1      26.489  -5.327  38.674  1.00  0.00     0.210 C 
ENDBRANCH   7  27
TORSDOF 5
ENDMDL
MODEL 6
REMARK VINA RESULT:      -8.6      3.601      9.499
REMARK  5 active torsions:
REMARK  status: ('A' for Active; 'I' for Inactive)
REMARK    1  A    between atoms: C6_12  and  O2_3 
REMARK       I    between atoms: C12_18  and  N1_6 
REMARK    2  A    between atoms: C13_19  and  N1_6 
REMARK    3  A    between atoms: C3_9  and  C5_11 
REMARK    4  A    between atoms: C12_18  and  C5_11 
REMARK    5  A    between atoms: C13_19  and  C15_21 
ROOT
HETATM    1  O1  UNK     1      18.973   0.467  33.262  1.00  0.00    -0.274 OA
HETATM    2  O3  UNK     1      18.005   2.294  34.192  1.00  0.00    -0.259 OA
HETATM    3  C1  UNK     1      19.392   0.382  30.867  1.00  0.00     0.038 A 
HETATM    4  C2  UNK     1      18.815   1.736  30.736  1.00  0.00    -0.034 A 
HETATM    5  C3  UNK     1      18.327   2.357  31.831  1.00  0.00     0.033 A 
HETATM    6  C4  UNK     1      19.452  -0.206  32.127  1.00  0.00     0.093 A 
HETATM    7  C6  UNK     1      19.884  -0.369  29.787  1.00  0.00     0.082 A 
HETATM    8  C7  UNK     1      18.408   1.728  33.181  1.00  0.00     0.295 A 
HETATM    9  C8  UNK     1      19.981  -1.481  32.338  1.00  0.00     0.045 A 
HETATM   10  C9  UNK     1      20.467  -2.204  31.255  1.00  0.00    -0.057 A 
HETATM   11  C10 UNK     1      18.820   2.415  29.388  1.00  0.00     0.050 C 
HETATM   12  C11 UNK     1      20.417  -1.649  29.979  1.00  0.00     0.044 A 
HETATM   13  C14 UNK     1      21.035  -3.568  31.458  1.00  0.00     0.048 C 
ENDROOT
BRANCH   5  14
HETATM   14  C5  UNK     1      17.655   3.709  31.821  1.00  0.00     0.148 C 
BRANCH  14  15
HETATM   15  C12 UNK     1      18.695   4.762  32.117  1.00  0.00     0.222 C 
HETATM   16  O4  UNK     1      19.451   5.203  31.253  1.00  0.00    -0.273 OA
HETATM   17  N1  UNK     1      18.696   5.143  33.449  1.00  0.00    -0.357 N 
HETATM   18  H10 UNK     1      18.024   4.727  34.088  1.00  0.00     0.162 HD
BRANCH  17  19
HETATM   19  C13 UNK     1      19.611   6.124  33.986  1.00  0.00     0.161 C 
BRANCH  19  20
HETATM   20  C15 UNK     1      19.025   7.506  33.973  1.00  0.00    -0.040 A 
HETATM   21  C16 UNK     1      17.669   7.676  33.727  1.00  0.00     0.012 A 
HETATM   22  C19 UNK     1      17.125   8.960  33.714  1.00  0.00     0.043 A 
HETATM   23  C21 UNK     1      17.943  10.066  33.950  1.00  0.00     0.116 A 
HETATM   24  C20 UNK     1      19.303   9.887  34.197  1.00  0.00     0.043 A 
HETATM   25  F1  UNK     1      17.420  11.299  33.940  1.00  0.00    -0.206 F 
HETATM   26  C17 UNK     1      19.847   8.602  34.209  1.00  0.00     0.012 A 
ENDBRANCH  19  20
ENDBRANCH  17  19
ENDBRANCH  14  15
ENDBRANCH   5  14
BRANCH   7  27
HETATM   27  O2  UNK     1      19.863   0.064  28.493  1.00  0.00    -0.355 OA
HETATM   28  C18 UNK     1      18.904  -0.536  27.626  1.00  0.00     0.210 C 
ENDBRANCH   7  27
TORSDOF 5
ENDMDL
MODEL 7
REMARK VINA RESULT:      -8.6      6.057      8.477
REMARK  5 active torsions:
REMARK  status: ('A' for Active; 'I' for Inactive)
REMARK    1  A    between atoms: C6_12  and  O2_3 
REMARK       I    between atoms: C12_18  and  N1_6 
REMARK    2  A    between atoms: C13_19  and  N1_6 
REMARK    3  A    between atoms: C3_9  and  C5_11 
REMARK    4  A    between atoms: C12_18  and  C5_11 
REMARK    5  A    between atoms: C13_19  and  C15_21 
ROOT
HETATM    1  O1  UNK     1      18.027   2.821  35.151  1.00  0.00    -0.274 OA
HETATM    2  O3  UNK     1      17.729   1.665  37.079  1.00  0.00    -0.259 OA
HETATM    3  C1  UNK     1      18.291   1.642  33.039  1.00  0.00     0.038 A 
HETATM    4  C2  UNK     1      18.151   0.360  33.758  1.00  0.00    -0.034 A 
HETATM    5  C3  UNK     1      17.996   0.364  35.099  1.00  0.00     0.033 A 
HETATM    6  C4  UNK     1      18.223   2.830  33.761  1.00  0.00     0.093 A 
HETATM    7  C6  UNK     1      18.502   1.746  31.654  1.00  0.00     0.082 A 
HETATM    8  C7  UNK     1      17.908   1.641  35.865  1.00  0.00     0.295 A 
HETATM    9  C8  UNK     1      18.347   4.085  33.159  1.00  0.00     0.045 A 
HETATM   10  C9  UNK     1      18.550   4.164  31.786  1.00  0.00    -0.057 A 
HETATM   11  C10 UNK     1      18.142  -0.931  32.974  1.00  0.00     0.050 C 
HETATM   12  C11 UNK     1      18.629   2.995  31.034  1.00  0.00     0.044 A 
HETATM   13  C14 UNK     1      18.685   5.493  31.124  1.00  0.00     0.048 C 
ENDROOT
BRANCH   5  14
HETATM   14  C5  UNK     1      17.907  -0.875  35.956  1.00  0.00     0.148 C 
BRANCH  14  15
HETATM   15  C12 UNK     1      19.241  -1.581  35.915  1.00  0.00     0.222 C 
HETATM   16  O4  UNK     1      20.302  -0.978  35.760  1.00  0.00    -0.273 OA
HETATM   17  N1  UNK     1      19.116  -2.954  36.054  1.00  0.00    -0.357 N 
HETATM   18  H10 UNK     1      18.195  -3.361  36.187  1.00  0.00     0.162 HD
BRANCH  17  19
HETATM   19  C13 UNK     1      20.247  -3.854  36.030  1.00  0.00     0.161 C 
BRANCH  19  20
HETATM   20  C15 UNK     1      20.050  -5.030  36.942  1.00  0.00    -0.040 A 
HETATM   21  C16 UNK     1      18.974  -5.885  36.740  1.00  0.00     0.012 A 
HETATM   22  C19 UNK     1      18.791  -6.977  37.588  1.00  0.00     0.043 A 
HETATM   23  C21 UNK     1      19.688  -7.206  38.632  1.00  0.00     0.116 A 
HETATM   24  C20 UNK     1      20.765  -6.343  38.829  1.00  0.00     0.043 A 
HETATM   25  F1  UNK     1      19.513  -8.256  39.446  1.00  0.00    -0.206 F 
HETATM   26  C17 UNK     1      20.948  -5.251  37.980  1.00  0.00     0.012 A 
ENDBRANCH  19  20
ENDBRANCH  17  19
ENDBRANCH  14  15
ENDBRANCH   5  14
BRANCH   7  27
HETATM   27  O2  UNK     1      18.621   0.670  30.824  1.00  0.00    -0.355 OA
HETATM   28  C18 UNK     1      19.337   0.868  29.608  1.00  0.00     0.210 C 
ENDBRANCH   7  27
TORSDOF 5
ENDMDL
MODEL 8
REMARK VINA RESULT:      -8.5      5.814      8.017
REMARK  5 active torsions:
REMARK  status: ('A' for Active; 'I' for Inactive)
REMARK    1  A    between atoms: C6_12  and  O2_3 
REMARK       I    between atoms: C12_18  and  N1_6 
REMARK    2  A    between atoms: C13_19  and  N1_6 
REMARK    3  A    between atoms: C3_9  and  C5_11 
REMARK    4  A    between atoms: C12_18  and  C5_11 
REMARK    5  A    between atoms: C13_19  and  C15_21 
ROOT
HETATM    1  O1  UNK     1      18.760   0.481  31.543  1.00  0.00    -0.274 OA
HETATM    2  O3  UNK     1      18.637  -1.609  32.415  1.00  0.00    -0.259 OA
HETATM    3  C1  UNK     1      18.337   2.424  32.944  1.00  0.00     0.038 A 
HETATM    4  C2  UNK     1      18.105   1.524  34.092  1.00  0.00    -0.034 A 
HETATM    5  C3  UNK     1      18.173   0.187  33.911  1.00  0.00     0.033 A 
HETATM    6  C4  UNK     1      18.659   1.871  31.708  1.00  0.00     0.093 A 
HETATM    7  C6  UNK     1      18.245   3.824  33.014  1.00  0.00     0.082 A 
HETATM    8  C7  UNK     1      18.533  -0.399  32.587  1.00  0.00     0.295 A 
HETATM    9  C8  UNK     1      18.893   2.650  30.573  1.00  0.00     0.045 A 
HETATM   10  C9  UNK     1      18.802   4.034  30.666  1.00  0.00    -0.057 A 
HETATM   11  C10 UNK     1      17.836   2.116  35.454  1.00  0.00     0.050 C 
HETATM   12  C11 UNK     1      18.476   4.621  31.886  1.00  0.00     0.044 A 
HETATM   13  C14 UNK     1      19.047   4.884  29.466  1.00  0.00     0.048 C 
ENDROOT
BRANCH   5  14
HETATM   14  C5  UNK     1      17.892  -0.838  34.983  1.00  0.00     0.148 C 
BRANCH  14  15
HETATM   15  C12 UNK     1      19.210  -1.313  35.547  1.00  0.00     0.222 C 
HETATM   16  O4  UNK     1      20.147  -0.547  35.767  1.00  0.00    -0.273 OA
HETATM   17  N1  UNK     1      19.230  -2.682  35.760  1.00  0.00    -0.357 N 
HETATM   18  H10 UNK     1      18.400  -3.231  35.555  1.00  0.00     0.162 HD
BRANCH  17  19
HETATM   19  C13 UNK     1      20.384  -3.381  36.277  1.00  0.00     0.161 C 
BRANCH  19  20
HETATM   20  C15 UNK     1      20.010  -4.685  36.919  1.00  0.00    -0.040 A 
HETATM   21  C16 UNK     1      18.917  -5.398  36.444  1.00  0.00     0.012 A 
HETATM   22  C19 UNK     1      18.570  -6.609  37.042  1.00  0.00     0.043 A 
HETATM   23  C21 UNK     1      19.321  -7.100  38.111  1.00  0.00     0.116 A 
HETATM   24  C20 UNK     1      20.417  -6.378  38.582  1.00  0.00     0.043 A 
HETATM   25  F1  UNK     1      18.989  -8.264  38.683  1.00  0.00    -0.206 F 
HETATM   26  C17 UNK     1      20.764  -5.167  37.984  1.00  0.00     0.012 A 
ENDBRANCH  19  20
ENDBRANCH  17  19
ENDBRANCH  14  15
ENDBRANCH   5  14
BRANCH   7  27
HETATM   27  O2  UNK     1      17.910   4.504  34.148  1.00  0.00    -0.355 OA
HETATM   28  C18 UNK     1      17.839   5.925  34.052  1.00  0.00     0.210 C 
ENDBRANCH   7  27
TORSDOF 5
ENDMDL
MODEL 9
REMARK VINA RESULT:      -8.5     22.588     25.120
REMARK  5 active torsions:
REMARK  status: ('A' for Active; 'I' for Inactive)
REMARK    1  A    between atoms: C6_12  and  O2_3 
REMARK       I    between atoms: C12_18  and  N1_6 
REMARK    2  A    between atoms: C13_19  and  N1_6 
REMARK    3  A    between atoms: C3_9  and  C5_11 
REMARK    4  A    between atoms: C12_18  and  C5_11 
REMARK    5  A    between atoms: C13_19  and  C15_21 
ROOT
HETATM    1  O1  UNK     1      14.089   5.416   8.161  1.00  0.00    -0.274 OA
HETATM    2  O3  UNK     1      16.089   5.052   9.166  1.00  0.00    -0.259 OA
HETATM    3  C1  UNK     1      12.690   7.283   8.849  1.00  0.00     0.038 A 
HETATM    4  C2  UNK     1      13.716   7.664   9.841  1.00  0.00    -0.034 A 
HETATM    5  C3  UNK     1      14.828   6.908   9.969  1.00  0.00     0.033 A 
HETATM    6  C4  UNK     1      12.913   6.172   8.041  1.00  0.00     0.093 A 
HETATM    7  C6  UNK     1      11.479   7.973   8.668  1.00  0.00     0.082 A 
HETATM    8  C7  UNK     1      15.067   5.727   9.090  1.00  0.00     0.295 A 
HETATM    9  C8  UNK     1      11.994   5.744   7.080  1.00  0.00     0.045 A 
HETATM   10  C9  UNK     1      10.805   6.444   6.915  1.00  0.00    -0.057 A 
HETATM   11  C10 UNK     1      13.521   8.914  10.665  1.00  0.00     0.050 C 
HETATM   12  C11 UNK     1      10.547   7.558   7.710  1.00  0.00     0.044 A 
HETATM   13  C14 UNK     1       9.811   6.004   5.895  1.00  0.00     0.048 C 
ENDROOT
BRANCH   5  14
HETATM   14  C5  UNK     1      15.916   7.151  10.985  1.00  0.00     0.148 C 
BRANCH  14  15
HETATM   15  C12 UNK     1      17.005   7.969  10.334  1.00  0.00     0.222 C 
HETATM   16  O4  UNK     1      17.969   7.453   9.770  1.00  0.00    -0.273 OA
HETATM   17  N1  UNK     1      16.792   9.332  10.466  1.00  0.00    -0.357 N 
HETATM   18  H10 UNK     1      15.958   9.662  10.943  1.00  0.00     0.162 HD
BRANCH  17  19
HETATM   19  C13 UNK     1      17.703  10.324   9.943  1.00  0.00     0.161 C 
BRANCH  19  20
HETATM   20  C15 UNK     1      17.024  11.261   8.986  1.00  0.00    -0.040 A 
HETATM   21  C16 UNK     1      17.516  12.549   8.818  1.00  0.00     0.012 A 
HETATM   22  C19 UNK     1      16.885  13.419   7.930  1.00  0.00     0.043 A 
HETATM   23  C21 UNK     1      15.765  12.993   7.214  1.00  0.00     0.116 A 
HETATM   24  C20 UNK     1      15.278  11.698   7.388  1.00  0.00     0.043 A 
HETATM   25  F1  UNK     1      15.160  13.827   6.359  1.00  0.00    -0.206 F 
HETATM   26  C17 UNK     1      15.910  10.828   8.277  1.00  0.00     0.012 A 
ENDBRANCH  19  20
ENDBRANCH  17  19
ENDBRANCH  14  15
ENDBRANCH   5  14
BRANCH   7  27
HETATM   27  O2  UNK     1      11.110   9.060   9.406  1.00  0.00    -0.355 OA
HETATM   28  C18 UNK     1       9.733   9.165   9.757  1.00  0.00     0.210 C 
ENDBRANCH   7  27
TORSDOF 5
ENDMDL
MODEL 10
REMARK VINA RESULT:      -8.4     22.677     24.447
REMARK  5 active torsions:
REMARK  status: ('A' for Active; 'I' for Inactive)
REMARK    1  A    between atoms: C6_12  and  O2_3 
REMARK       I    between atoms: C12_18  and  N1_6 
REMARK    2  A    between atoms: C13_19  and  N1_6 
REMARK    3  A    between atoms: C3_9  and  C5_11 
REMARK    4  A    between atoms: C12_18  and  C5_11 
REMARK    5  A    between atoms: C13_19  and  C15_21 
ROOT
HETATM    1  O1  UNK     1      13.609   9.987  10.220  1.00  0.00    -0.274 OA
HETATM    2  O3  UNK     1      12.766   7.993  10.896  1.00  0.00    -0.259 OA
HETATM    3  C1  UNK     1      15.958  10.190   9.622  1.00  0.00     0.038 A 
HETATM    4  C2  UNK     1      16.138   8.754   9.917  1.00  0.00    -0.034 A 
HETATM    5  C3  UNK     1      15.090   8.032  10.368  1.00  0.00     0.033 A 
HETATM    6  C4  UNK     1      14.697  10.758   9.783  1.00  0.00     0.093 A 
HETATM    7  C6  UNK     1      16.992  11.038   9.193  1.00  0.00     0.082 A 
HETATM    8  C7  UNK     1      13.738   8.643  10.524  1.00  0.00     0.295 A 
HETATM    9  C8  UNK     1      14.441  12.106   9.528  1.00  0.00     0.045 A 
HETATM   10  C9  UNK     1      15.478  12.927   9.098  1.00  0.00    -0.057 A 
HETATM   11  C10 UNK     1      17.481   8.110   9.668  1.00  0.00     0.050 C 
HETATM   12  C11 UNK     1      16.754  12.393   8.933  1.00  0.00     0.044 A 
HETATM   13  C14 UNK     1      15.227  14.370   8.821  1.00  0.00     0.048 C 
ENDROOT
BRANCH   5  14
HETATM   14  C5  UNK     1      15.158   6.578  10.766  1.00  0.00     0.148 C 
BRANCH  14  15
HETATM   15  C12 UNK     1      14.855   5.735   9.551  1.00  0.00     0.222 C 
HETATM   16  O4  UNK     1      15.736   5.179   8.898  1.00  0.00    -0.273 OA
HETATM   17  N1  UNK     1      13.499   5.685   9.269  1.00  0.00    -0.357 N 
HETATM   18  H10 UNK     1      12.845   6.171   9.875  1.00  0.00     0.162 HD
BRANCH  17  19
HETATM   19  C13 UNK     1      12.956   4.957   8.145  1.00  0.00     0.161 C 
BRANCH  19  20
HETATM   20  C15 UNK     1      11.627   5.504   7.710  1.00  0.00    -0.040 A 
HETATM   21  C16 UNK     1      11.453   5.928   6.399  1.00  0.00     0.012 A 
HETATM   22  C19 UNK     1      10.218   6.436   5.996  1.00  0.00     0.043 A 
HETATM   23  C21 UNK     1       9.166   6.516   6.909  1.00  0.00     0.116 A 
HETATM   24  C20 UNK     1       9.349   6.088   8.223  1.00  0.00     0.043 A 
HETATM   25  F1  UNK     1       7.980   7.003   6.522  1.00  0.00    -0.206 F 
HETATM   26  C17 UNK     1      10.584   5.579   8.626  1.00  0.00     0.012 A 
ENDBRANCH  19  20
ENDBRANCH  17  19
ENDBRANCH  14  15
ENDBRANCH   5  14
BRANCH   7  27
HETATM   27  O2  UNK     1      18.282  10.631   9.021  1.00  0.00    -0.355 OA
HETATM   28  C18 UNK     1      19.112  11.444   8.194  1.00  0.00     0.210 C 
ENDBRANCH   7  27
TORSDOF 5
ENDMDL
