MODEL 1
REMARK VINA RESULT:      -7.6      0.000      0.000
REMARK  3 active torsions:
REMARK  status: ('A' for Active; 'I' for Inactive)
REMARK    1  A    between atoms: C8_12  and  O2_2 
REMARK    2  A    between atoms: C9_13  and  O3_3 
REMARK    3  A    between atoms: C3_7  and  C6_10 
ROOT
HETATM    1  O1  UNK     1      18.882   4.936  29.754  1.00  0.00    -0.321 OA
HETATM    2  O4  UNK     1      18.071   4.609  33.738  1.00  0.00    -0.286 OA
HETATM    3  C1  UNK     1      18.510   3.531  31.695  1.00  0.00     0.052 A 
HETATM    4  C2  UNK     1      18.797   3.701  30.342  1.00  0.00     0.092 A 
HETATM    5  C3  UNK     1      18.357   6.046  31.854  1.00  0.00     0.048 A 
HETATM    6  C4  UNK     1      18.288   4.720  32.537  1.00  0.00     0.198 A 
HETATM    7  C5  UNK     1      18.439   2.247  32.242  1.00  0.00     0.058 A 
HETATM    8  C7  UNK     1      19.015   2.589  29.527  1.00  0.00     0.077 A 
HETATM    9  C8  UNK     1      18.657   1.136  31.425  1.00  0.00     0.102 A 
HETATM   10  C9  UNK     1      18.944   1.307  30.071  1.00  0.00     0.104 A 
HETATM   11  C10 UNK     1      18.649   6.034  30.543  1.00  0.00     0.159 A 
ENDROOT
BRANCH   5  12
HETATM   12  C6  UNK     1      18.123   7.252  32.603  1.00  0.00    -0.020 A 
HETATM   13  C11 UNK     1      19.133   7.786  33.407  1.00  0.00     0.012 A 
HETATM   14  C13 UNK     1      18.907   8.955  34.133  1.00  0.00     0.001 A 
HETATM   15  C15 UNK     1      17.668   9.594  34.057  1.00  0.00     0.000 A 
HETATM   16  C14 UNK     1      16.658   9.063  33.256  1.00  0.00     0.001 A 
HETATM   17  C12 UNK     1      16.885   7.894  32.530  1.00  0.00     0.012 A 
ENDBRANCH   5  12
BRANCH   9  18
HETATM   18  O2  UNK     1      18.586  -0.114  31.963  1.00  0.00    -0.353 OA
HETATM   19  C16 UNK     1      18.538  -0.206  33.386  1.00  0.00     0.210 C 
ENDBRANCH   9  18
BRANCH  10  20
HETATM   20  O3  UNK     1      19.157   0.228  29.267  1.00  0.00    -0.353 OA
HETATM   21  C17 UNK     1      20.490  -0.273  29.194  1.00  0.00     0.210 C 
ENDBRANCH  10  20
TORSDOF 3
ENDMDL
MODEL 2
REMARK VINA RESULT:      -7.6      0.035      1.055
REMARK  3 active torsions:
REMARK  status: ('A' for Active; 'I' for Inactive)
REMARK    1  A    between atoms: C8_12  and  O2_2 
REMARK    2  A    between atoms: C9_13  and  O3_3 
REMARK    3  A    between atoms: C3_7  and  C6_10 
ROOT
HETATM    1  O1  UNK     1      18.895   4.901  29.762  1.00  0.00    -0.321 OA
HETATM    2  O4  UNK     1      18.054   4.589  33.741  1.00  0.00    -0.286 OA
HETATM    3  C1  UNK     1      18.509   3.503  31.706  1.00  0.00     0.052 A 
HETATM    4  C2  UNK     1      18.806   3.668  30.355  1.00  0.00     0.092 A 
HETATM    5  C3  UNK     1      18.354   6.019  31.854  1.00  0.00     0.048 A 
HETATM    6  C4  UNK     1      18.280   4.695  32.542  1.00  0.00     0.198 A 
HETATM    7  C5  UNK     1      18.435   2.221  32.258  1.00  0.00     0.058 A 
HETATM    8  C7  UNK     1      19.030   2.553  29.545  1.00  0.00     0.077 A 
HETATM    9  C8  UNK     1      18.659   1.107  31.447  1.00  0.00     0.102 A 
HETATM   10  C9  UNK     1      18.956   1.273  30.094  1.00  0.00     0.104 A 
HETATM   11  C10 UNK     1      18.655   6.002  30.545  1.00  0.00     0.159 A 
ENDROOT
BRANCH   5  12
HETATM   12  C6  UNK     1      18.114   7.228  32.596  1.00  0.00    -0.020 A 
HETATM   13  C11 UNK     1      16.869   7.859  32.524  1.00  0.00     0.012 A 
HETATM   14  C13 UNK     1      16.636   9.031  33.243  1.00  0.00     0.001 A 
HETATM   15  C15 UNK     1      17.648   9.576  34.036  1.00  0.00     0.000 A 
HETATM   16  C14 UNK     1      18.890   8.948  34.110  1.00  0.00     0.001 A 
HETATM   17  C12 UNK     1      19.123   7.776  33.390  1.00  0.00     0.012 A 
ENDBRANCH   5  12
BRANCH   9  18
HETATM   18  O2  UNK     1      18.585  -0.141  31.990  1.00  0.00    -0.353 OA
HETATM   19  C16 UNK     1      18.517  -0.226  33.411  1.00  0.00     0.210 C 
ENDBRANCH   9  18
BRANCH  10  20
HETATM   20  O3  UNK     1      19.175   0.190  29.296  1.00  0.00    -0.353 OA
HETATM   21  C17 UNK     1      20.519  -0.278  29.194  1.00  0.00     0.210 C 
ENDBRANCH  10  20
TORSDOF 3
ENDMDL
MODEL 3
REMARK VINA RESULT:      -7.4      1.699      6.947
REMARK  3 active torsions:
REMARK  status: ('A' for Active; 'I' for Inactive)
REMARK    1  A    between atoms: C8_12  and  O2_2 
REMARK    2  A    between atoms: C9_13  and  O3_3 
REMARK    3  A    between atoms: C3_7  and  C6_10 
ROOT
HETATM    1  O1  UNK     1      18.893   5.654  29.777  1.00  0.00    -0.321 OA
HETATM    2  O4  UNK     1      17.862   2.603  32.281  1.00  0.00    -0.286 OA
HETATM    3  C1  UNK     1      17.992   4.921  31.906  1.00  0.00     0.052 A 
HETATM    4  C2  UNK     1      18.350   5.923  31.007  1.00  0.00     0.092 A 
HETATM    5  C3  UNK     1      18.824   3.258  30.197  1.00  0.00     0.048 A 
HETATM    6  C4  UNK     1      18.200   3.510  31.531  1.00  0.00     0.198 A 
HETATM    7  C5  UNK     1      17.438   5.253  33.145  1.00  0.00     0.058 A 
HETATM    8  C7  UNK     1      18.158   7.264  31.340  1.00  0.00     0.077 A 
HETATM    9  C8  UNK     1      17.247   6.596  33.478  1.00  0.00     0.102 A 
HETATM   10  C9  UNK     1      17.607   7.599  32.577  1.00  0.00     0.104 A 
HETATM   11  C10 UNK     1      19.105   4.338  29.449  1.00  0.00     0.159 A 
ENDROOT
BRANCH   5  12
HETATM   12  C6  UNK     1      19.086   1.910  29.771  1.00  0.00    -0.020 A 
HETATM   13  C11 UNK     1      18.455   1.399  28.633  1.00  0.00     0.012 A 
HETATM   14  C13 UNK     1      18.709   0.091  28.220  1.00  0.00     0.001 A 
HETATM   15  C15 UNK     1      19.594  -0.710  28.944  1.00  0.00     0.000 A 
HETATM   16  C14 UNK     1      20.224  -0.203  30.079  1.00  0.00     0.001 A 
HETATM   17  C12 UNK     1      19.970   1.105  30.492  1.00  0.00     0.012 A 
ENDBRANCH   5  12
BRANCH   9  18
HETATM   18  O2  UNK     1      16.708   6.915  34.687  1.00  0.00    -0.353 OA
HETATM   19  C16 UNK     1      15.339   7.314  34.701  1.00  0.00     0.210 C 
ENDBRANCH   9  18
BRANCH  10  20
HETATM   20  O3  UNK     1      17.424   8.911  32.894  1.00  0.00    -0.353 OA
HETATM   21  C17 UNK     1      18.391   9.510  33.755  1.00  0.00     0.210 C 
ENDBRANCH  10  20
TORSDOF 3
ENDMDL
MODEL 4
REMARK VINA RESULT:      -7.4     13.127     17.188
REMARK  3 active torsions:
REMARK  status: ('A' for Active; 'I' for Inactive)
REMARK    1  A    between atoms: C8_12  and  O2_2 
REMARK    2  A    between atoms: C9_13  and  O3_3 
REMARK    3  A    between atoms: C3_7  and  C6_10 
ROOT
HETATM    1  O1  UNK     1      18.320  -1.317  17.926  1.00  0.00    -0.321 OA
HETATM    2  O4  UNK     1      19.727   0.943  14.836  1.00  0.00    -0.286 OA
HETATM    3  C1  UNK     1      19.119   0.820  17.104  1.00  0.00     0.052 A 
HETATM    4  C2  UNK     1      18.646  -0.001  18.126  1.00  0.00     0.092 A 
HETATM    5  C3  UNK     1      18.882  -1.167  15.564  1.00  0.00     0.048 A 
HETATM    6  C4  UNK     1      19.279   0.261  15.750  1.00  0.00     0.198 A 
HETATM    7  C5  UNK     1      19.440   2.154  17.366  1.00  0.00     0.058 A 
HETATM    8  C7  UNK     1      18.491   0.507  19.417  1.00  0.00     0.077 A 
HETATM    9  C8  UNK     1      19.284   2.661  18.658  1.00  0.00     0.102 A 
HETATM   10  C9  UNK     1      18.810   1.838  19.681  1.00  0.00     0.104 A 
HETATM   11  C10 UNK     1      18.449  -1.819  16.656  1.00  0.00     0.159 A 
ENDROOT
BRANCH   5  12
HETATM   12  C6  UNK     1      18.982  -1.777  14.265  1.00  0.00    -0.020 A 
HETATM   13  C11 UNK     1      18.998  -3.168  14.142  1.00  0.00     0.012 A 
HETATM   14  C13 UNK     1      19.094  -3.760  12.883  1.00  0.00     0.001 A 
HETATM   15  C15 UNK     1      19.176  -2.960  11.742  1.00  0.00     0.000 A 
HETATM   16  C14 UNK     1      19.161  -1.571  11.861  1.00  0.00     0.001 A 
HETATM   17  C12 UNK     1      19.065  -0.980  13.121  1.00  0.00     0.012 A 
ENDBRANCH   5  12
BRANCH   9  18
HETATM   18  O2  UNK     1      19.598   3.963  18.909  1.00  0.00    -0.353 OA
HETATM   19  C16 UNK     1      20.877   4.417  18.470  1.00  0.00     0.210 C 
ENDBRANCH   9  18
BRANCH  10  20
HETATM   20  O3  UNK     1      18.654   2.325  20.944  1.00  0.00    -0.353 OA
HETATM   21  C17 UNK     1      19.741   2.140  21.848  1.00  0.00     0.210 C 
ENDBRANCH  10  20
TORSDOF 3
ENDMDL
MODEL 5
REMARK VINA RESULT:      -7.2      1.465      2.856
REMARK  3 active torsions:
REMARK  status: ('A' for Active; 'I' for Inactive)
REMARK    1  A    between atoms: C8_12  and  O2_2 
REMARK    2  A    between atoms: C9_13  and  O3_3 
REMARK    3  A    between atoms: C3_7  and  C6_10 
ROOT
HETATM    1  O1  UNK     1      18.306   2.091  33.532  1.00  0.00    -0.321 OA
HETATM    2  O4  UNK     1      18.691   4.480  30.249  1.00  0.00    -0.286 OA
HETATM    3  C1  UNK     1      18.882   2.333  31.189  1.00  0.00     0.052 A 
HETATM    4  C2  UNK     1      18.720   1.561  32.338  1.00  0.00     0.092 A 
HETATM    5  C3  UNK     1      18.179   4.323  32.574  1.00  0.00     0.048 A 
HETATM    6  C4  UNK     1      18.597   3.778  31.248  1.00  0.00     0.198 A 
HETATM    7  C5  UNK     1      19.303   1.738  29.997  1.00  0.00     0.058 A 
HETATM    8  C7  UNK     1      18.981   0.190  32.303  1.00  0.00     0.077 A 
HETATM    9  C8  UNK     1      19.563   0.367  29.963  1.00  0.00     0.102 A 
HETATM   10  C9  UNK     1      19.402  -0.405  31.115  1.00  0.00     0.104 A 
HETATM   11  C10 UNK     1      18.068   3.441  33.582  1.00  0.00     0.159 A 
ENDROOT
BRANCH   5  12
HETATM   12  C6  UNK     1      17.911   5.729  32.720  1.00  0.00    -0.020 A 
HETATM   13  C11 UNK     1      18.910   6.589  33.183  1.00  0.00     0.012 A 
HETATM   14  C13 UNK     1      18.651   7.952  33.325  1.00  0.00     0.001 A 
HETATM   15  C15 UNK     1      17.391   8.460  33.003  1.00  0.00     0.000 A 
HETATM   16  C14 UNK     1      16.392   7.604  32.541  1.00  0.00     0.001 A 
HETATM   17  C12 UNK     1      16.652   6.241  32.399  1.00  0.00     0.012 A 
ENDBRANCH   5  12
BRANCH   9  18
HETATM   18  O2  UNK     1      19.975  -0.208  28.799  1.00  0.00    -0.353 OA
HETATM   19  C16 UNK     1      18.967  -0.530  27.843  1.00  0.00     0.210 C 
ENDBRANCH   9  18
BRANCH  10  20
HETATM   20  O3  UNK     1      19.655  -1.744  31.091  1.00  0.00    -0.353 OA
HETATM   21  C17 UNK     1      20.631  -2.235  32.007  1.00  0.00     0.210 C 
ENDBRANCH  10  20
TORSDOF 3
ENDMDL
MODEL 6
REMARK VINA RESULT:      -7.2      4.628      9.856
REMARK  3 active torsions:
REMARK  status: ('A' for Active; 'I' for Inactive)
REMARK    1  A    between atoms: C8_12  and  O2_2 
REMARK    2  A    between atoms: C9_13  and  O3_3 
REMARK    3  A    between atoms: C3_7  and  C6_10 
ROOT
HETATM    1  O1  UNK     1      18.492  -1.119  36.829  1.00  0.00    -0.321 OA
HETATM    2  O4  UNK     1      20.449  -3.649  34.297  1.00  0.00    -0.286 OA
HETATM    3  C1  UNK     1      19.271  -1.635  34.591  1.00  0.00     0.052 A 
HETATM    4  C2  UNK     1      18.624  -0.802  35.502  1.00  0.00     0.092 A 
HETATM    5  C3  UNK     1      19.648  -3.235  36.507  1.00  0.00     0.048 A 
HETATM    6  C4  UNK     1      19.841  -2.910  35.062  1.00  0.00     0.198 A 
HETATM    7  C5  UNK     1      19.379  -1.259  33.249  1.00  0.00     0.058 A 
HETATM    8  C7  UNK     1      18.081   0.411  35.078  1.00  0.00     0.077 A 
HETATM    9  C8  UNK     1      18.835  -0.045  32.827  1.00  0.00     0.102 A 
HETATM   10  C9  UNK     1      18.187   0.788  33.740  1.00  0.00     0.104 A 
HETATM   11  C10 UNK     1      19.004  -2.320  37.251  1.00  0.00     0.159 A 
ENDROOT
BRANCH   5  12
HETATM   12  C6  UNK     1      20.151  -4.475  37.037  1.00  0.00    -0.020 A 
HETATM   13  C11 UNK     1      21.358  -4.500  37.739  1.00  0.00     0.012 A 
HETATM   14  C13 UNK     1      21.845  -5.702  38.253  1.00  0.00     0.001 A 
HETATM   15  C15 UNK     1      21.126  -6.883  38.064  1.00  0.00     0.000 A 
HETATM   16  C14 UNK     1      19.922  -6.861  37.363  1.00  0.00     0.001 A 
HETATM   17  C12 UNK     1      19.434  -5.660  36.849  1.00  0.00     0.012 A 
ENDBRANCH   5  12
BRANCH   9  18
HETATM   18  O2  UNK     1      18.943   0.317  31.518  1.00  0.00    -0.353 OA
HETATM   19  C16 UNK     1      20.131  -0.074  30.833  1.00  0.00     0.210 C 
ENDBRANCH   9  18
BRANCH  10  20
HETATM   20  O3  UNK     1      17.653   1.975  33.335  1.00  0.00    -0.353 OA
HETATM   21  C17 UNK     1      18.207   3.161  33.900  1.00  0.00     0.210 C 
ENDBRANCH  10  20
TORSDOF 3
ENDMDL
MODEL 7
REMARK VINA RESULT:      -7.2      3.456      8.521
REMARK  3 active torsions:
REMARK  status: ('A' for Active; 'I' for Inactive)
REMARK    1  A    between atoms: C8_12  and  O2_2 
REMARK    2  A    between atoms: C9_13  and  O3_3 
REMARK    3  A    between atoms: C3_7  and  C6_10 
ROOT
HETATM    1  O1  UNK     1      18.296   9.115  33.979  1.00  0.00    -0.321 OA
HETATM    2  O4  UNK     1      15.602   7.437  31.416  1.00  0.00    -0.286 OA
HETATM    3  C1  UNK     1      16.087   9.128  32.977  1.00  0.00     0.052 A 
HETATM    4  C2  UNK     1      17.050   9.667  33.828  1.00  0.00     0.092 A 
HETATM    5  C3  UNK     1      17.766   7.327  32.417  1.00  0.00     0.048 A 
HETATM    6  C4  UNK     1      16.410   7.917  32.202  1.00  0.00     0.198 A 
HETATM    7  C5  UNK     1      14.834   9.735  32.860  1.00  0.00     0.058 A 
HETATM    8  C7  UNK     1      16.766  10.816  34.569  1.00  0.00     0.077 A 
HETATM    9  C8  UNK     1      14.551  10.884  33.602  1.00  0.00     0.102 A 
HETATM   10  C9  UNK     1      15.516  11.422  34.454  1.00  0.00     0.104 A 
HETATM   11  C10 UNK     1      18.576   7.974  33.271  1.00  0.00     0.159 A 
ENDROOT
BRANCH   5  12
HETATM   12  C6  UNK     1      18.145   6.128  31.719  1.00  0.00    -0.020 A 
HETATM   13  C11 UNK     1      18.806   6.211  30.490  1.00  0.00     0.012 A 
HETATM   14  C13 UNK     1      19.174   5.049  29.813  1.00  0.00     0.001 A 
HETATM   15  C15 UNK     1      18.882   3.799  30.362  1.00  0.00     0.000 A 
HETATM   16  C14 UNK     1      18.223   3.713  31.587  1.00  0.00     0.001 A 
HETATM   17  C12 UNK     1      17.855   4.876  32.265  1.00  0.00     0.012 A 
ENDBRANCH   5  12
BRANCH   9  18
HETATM   18  O2  UNK     1      13.328  11.471  33.484  1.00  0.00    -0.353 OA
HETATM   19  C16 UNK     1      13.109  12.291  32.338  1.00  0.00     0.210 C 
ENDBRANCH   9  18
BRANCH  10  20
HETATM   20  O3  UNK     1      15.248  12.543  35.181  1.00  0.00    -0.353 OA
HETATM   21  C17 UNK     1      16.365  13.266  35.693  1.00  0.00     0.210 C 
ENDBRANCH  10  20
TORSDOF 3
ENDMDL
MODEL 8
REMARK VINA RESULT:      -7.2      3.680      8.709
REMARK  3 active torsions:
REMARK  status: ('A' for Active; 'I' for Inactive)
REMARK    1  A    between atoms: C8_12  and  O2_2 
REMARK    2  A    between atoms: C9_13  and  O3_3 
REMARK    3  A    between atoms: C3_7  and  C6_10 
ROOT
HETATM    1  O1  UNK     1      16.806   8.216  35.038  1.00  0.00    -0.321 OA
HETATM    2  O4  UNK     1      16.055   8.232  31.028  1.00  0.00    -0.286 OA
HETATM    3  C1  UNK     1      15.577   9.121  33.153  1.00  0.00     0.052 A 
HETATM    4  C2  UNK     1      15.883   9.082  34.511  1.00  0.00     0.092 A 
HETATM    5  C3  UNK     1      17.245   7.249  32.849  1.00  0.00     0.048 A 
HETATM    6  C4  UNK     1      16.270   8.199  32.234  1.00  0.00     0.198 A 
HETATM    7  C5  UNK     1      14.630  10.027  32.671  1.00  0.00     0.058 A 
HETATM    8  C7  UNK     1      15.241   9.948  35.399  1.00  0.00     0.077 A 
HETATM    9  C8  UNK     1      13.989  10.893  33.559  1.00  0.00     0.102 A 
HETATM   10  C9  UNK     1      14.295  10.853  34.920  1.00  0.00     0.104 A 
HETATM   11  C10 UNK     1      17.426   7.346  34.176  1.00  0.00     0.159 A 
ENDROOT
BRANCH   5  12
HETATM   12  C6  UNK     1      17.940   6.299  32.022  1.00  0.00    -0.020 A 
HETATM   13  C11 UNK     1      17.673   4.933  32.146  1.00  0.00     0.012 A 
HETATM   14  C13 UNK     1      18.346   4.012  31.344  1.00  0.00     0.001 A 
HETATM   15  C15 UNK     1      19.291   4.454  30.416  1.00  0.00     0.000 A 
HETATM   16  C14 UNK     1      19.560   5.816  30.291  1.00  0.00     0.001 A 
HETATM   17  C12 UNK     1      18.886   6.737  31.092  1.00  0.00     0.012 A 
ENDBRANCH   5  12
BRANCH   9  18
HETATM   18  O2  UNK     1      13.065  11.775  33.085  1.00  0.00    -0.353 OA
HETATM   19  C16 UNK     1      13.558  12.976  32.496  1.00  0.00     0.210 C 
ENDBRANCH   9  18
BRANCH  10  20
HETATM   20  O3  UNK     1      13.673  11.694  35.794  1.00  0.00    -0.353 OA
HETATM   21  C17 UNK     1      14.479  12.690  36.419  1.00  0.00     0.210 C 
ENDBRANCH  10  20
TORSDOF 3
ENDMDL
MODEL 9
REMARK VINA RESULT:      -7.1     23.200     25.081
REMARK  3 active torsions:
REMARK  status: ('A' for Active; 'I' for Inactive)
REMARK    1  A    between atoms: C8_12  and  O2_2 
REMARK    2  A    between atoms: C9_13  and  O3_3 
REMARK    3  A    between atoms: C3_7  and  C6_10 
ROOT
HETATM    1  O1  UNK     1       7.146   7.651  10.742  1.00  0.00    -0.321 OA
HETATM    2  O4  UNK     1       7.567   4.075   8.826  1.00  0.00    -0.286 OA
HETATM    3  C1  UNK     1       6.510   5.321  10.517  1.00  0.00     0.052 A 
HETATM    4  C2  UNK     1       6.398   6.569  11.127  1.00  0.00     0.092 A 
HETATM    5  C3  UNK     1       8.289   6.340   9.041  1.00  0.00     0.048 A 
HETATM    6  C4  UNK     1       7.469   5.147   9.411  1.00  0.00     0.198 A 
HETATM    7  C5  UNK     1       5.719   4.254  10.948  1.00  0.00     0.058 A 
HETATM    8  C7  UNK     1       5.494   6.757  12.174  1.00  0.00     0.077 A 
HETATM    9  C8  UNK     1       4.816   4.443  11.996  1.00  0.00     0.102 A 
HETATM   10  C9  UNK     1       4.704   5.693  12.607  1.00  0.00     0.104 A 
HETATM   11  C10 UNK     1       8.053   7.470   9.728  1.00  0.00     0.159 A 
ENDROOT
BRANCH   5  12
HETATM   12  C6  UNK     1       9.267   6.241   7.991  1.00  0.00    -0.020 A 
HETATM   13  C11 UNK     1      10.592   5.920   8.294  1.00  0.00     0.012 A 
HETATM   14  C13 UNK     1      11.541   5.825   7.276  1.00  0.00     0.001 A 
HETATM   15  C15 UNK     1      11.166   6.050   5.951  1.00  0.00     0.000 A 
HETATM   16  C14 UNK     1       9.844   6.371   5.645  1.00  0.00     0.001 A 
HETATM   17  C12 UNK     1       8.896   6.467   6.663  1.00  0.00     0.012 A 
ENDBRANCH   5  12
BRANCH   9  18
HETATM   18  O2  UNK     1       4.047   3.399  12.413  1.00  0.00    -0.353 OA
HETATM   19  C16 UNK     1       4.663   2.444  13.275  1.00  0.00     0.210 C 
ENDBRANCH   9  18
BRANCH  10  20
HETATM   20  O3  UNK     1       3.825   5.886  13.630  1.00  0.00    -0.353 OA
HETATM   21  C17 UNK     1       4.363   5.906  14.951  1.00  0.00     0.210 C 
ENDBRANCH  10  20
TORSDOF 3
ENDMDL
MODEL 10
REMARK VINA RESULT:      -7.0      2.921      7.986
REMARK  3 active torsions:
REMARK  status: ('A' for Active; 'I' for Inactive)
REMARK    1  A    between atoms: C8_12  and  O2_2 
REMARK    2  A    between atoms: C9_13  and  O3_3 
REMARK    3  A    between atoms: C3_7  and  C6_10 
ROOT
HETATM    1  O1  UNK     1      19.481   8.252  33.531  1.00  0.00    -0.321 OA
HETATM    2  O4  UNK     1      16.039   6.589  32.107  1.00  0.00    -0.286 OA
HETATM    3  C1  UNK     1      17.094   8.422  33.135  1.00  0.00     0.052 A 
HETATM    4  C2  UNK     1      18.300   8.946  33.595  1.00  0.00     0.092 A 
HETATM    5  C3  UNK     1      18.373   6.330  32.533  1.00  0.00     0.048 A 
HETATM    6  C4  UNK     1      17.074   7.067  32.555  1.00  0.00     0.198 A 
HETATM    7  C5  UNK     1      15.921   9.176  33.222  1.00  0.00     0.058 A 
HETATM    8  C7  UNK     1      18.343  10.228  34.144  1.00  0.00     0.077 A 
HETATM    9  C8  UNK     1      15.965  10.459  33.772  1.00  0.00     0.102 A 
HETATM   10  C9  UNK     1      17.173  10.983  34.232  1.00  0.00     0.104 A 
HETATM   11  C10 UNK     1      19.446   6.982  33.012  1.00  0.00     0.159 A 
ENDROOT
BRANCH   5  12
HETATM   12  C6  UNK     1      18.430   4.991  32.008  1.00  0.00    -0.020 A 
HETATM   13  C11 UNK     1      18.140   3.902  32.834  1.00  0.00     0.012 A 
HETATM   14  C13 UNK     1      18.195   2.604  32.326  1.00  0.00     0.001 A 
HETATM   15  C15 UNK     1      18.541   2.392  30.991  1.00  0.00     0.000 A 
HETATM   16  C14 UNK     1      18.832   3.477  30.165  1.00  0.00     0.001 A 
HETATM   17  C12 UNK     1      18.777   4.775  30.673  1.00  0.00     0.012 A 
ENDBRANCH   5  12
BRANCH   9  18
HETATM   18  O2  UNK     1      14.819  11.191  33.854  1.00  0.00    -0.353 OA
HETATM   19  C16 UNK     1      13.720  10.766  33.051  1.00  0.00     0.210 C 
ENDBRANCH   9  18
BRANCH  10  20
HETATM   20  O3  UNK     1      17.224  12.234  34.771  1.00  0.00    -0.353 OA
HETATM   21  C17 UNK     1      17.608  13.298  33.903  1.00  0.00     0.210 C 
ENDBRANCH  10  20
TORSDOF 3
ENDMDL
