MODEL 1
REMARK VINA RESULT:      -8.8      0.000      0.000
REMARK  7 active torsions:
REMARK  status: ('A' for Active; 'I' for Inactive)
REMARK    1  A    between atoms: C1_8  and  O1_1 
REMARK    2  A    between atoms: C24_31  and  O6_6 
REMARK    3  A    between atoms: C6_13  and  N1_7 
REMARK    4  A    between atoms: C1_8  and  C5_12 
REMARK    5  A    between atoms: C5_12  and  C9_16 
REMARK    6  A    between atoms: C10_17  and  C6_13 
REMARK    7  A    between atoms: C13_20  and  C9_16 
ROOT
HETATM    1  O2  UNK     1      27.580  -6.885  35.256  1.00  0.00    -0.269 OA
HETATM    2  N1  UNK     1      29.775  -6.657  34.418  1.00  0.00    -0.310 N 
HETATM    3  C1  UNK     1      29.505  -7.815  36.466  1.00  0.00     0.175 A 
HETATM    4  C2  UNK     1      30.949  -7.726  36.058  1.00  0.00     0.013 A 
HETATM    5  C3  UNK     1      31.054  -7.038  34.849  1.00  0.00     0.047 A 
HETATM    6  C4  UNK     1      28.786  -7.073  35.322  1.00  0.00     0.264 A 
HETATM    7  C7  UNK     1      32.077  -8.208  36.699  1.00  0.00     0.013 A 
HETATM    8  C8  UNK     1      32.277  -6.812  34.242  1.00  0.00     0.030 A 
HETATM    9  C11 UNK     1      33.321  -7.989  36.101  1.00  0.00     0.001 A 
HETATM   10  C12 UNK     1      33.420  -7.296  34.882  1.00  0.00     0.002 A 
ENDROOT
BRANCH   3  11
HETATM   11  O1  UNK     1      29.298  -7.093  37.665  1.00  0.00    -0.375 OA
HETATM   12  H7  UNK     1      30.142  -7.026  38.140  1.00  0.00     0.211 HD
ENDBRANCH   3  11
BRANCH   3  13
HETATM   13  C5  UNK     1      29.000  -9.244  36.600  1.00  0.00     0.137 C 
BRANCH  13  14
HETATM   14  C9  UNK     1      28.066  -9.415  37.779  1.00  0.00     0.169 C 
HETATM   15  O3  UNK     1      28.445  -9.604  38.931  1.00  0.00    -0.292 OA
BRANCH  14  16
HETATM   16  C13 UNK     1      26.621  -9.347  37.483  1.00  0.00     0.086 A 
HETATM   17  C16 UNK     1      26.096 -10.401  36.850  1.00  0.00     0.035 A 
HETATM   18  C18 UNK     1      24.681 -10.428  36.516  1.00  0.00     0.002 A 
HETATM   19  C19 UNK     1      23.888  -9.339  36.865  1.00  0.00     0.123 A 
HETATM   20  C23 UNK     1      24.091 -11.508  35.857  1.00  0.00     0.014 A 
HETATM   21  O4  UNK     1      24.445  -8.230  37.531  1.00  0.00    -0.271 OA
HETATM   22  C24 UNK     1      22.525  -9.300  36.573  1.00  0.00     0.102 A 
HETATM   23  C17 UNK     1      25.796  -8.178  37.864  1.00  0.00     0.302 A 
HETATM   24  O5  UNK     1      26.274  -7.209  38.445  1.00  0.00    -0.259 OA
HETATM   25  C26 UNK     1      21.945 -10.383  35.915  1.00  0.00     0.040 A 
HETATM   26  C25 UNK     1      22.725 -11.484  35.557  1.00  0.00     0.004 A 
BRANCH  22  27
HETATM   27  O6  UNK     1      21.761  -8.230  36.919  1.00  0.00    -0.353 OA
HETATM   28  C27 UNK     1      20.954  -7.650  35.896  1.00  0.00     0.210 C 
ENDBRANCH  22  27
ENDBRANCH  14  16
ENDBRANCH  13  14
ENDBRANCH   3  13
BRANCH   2  29
HETATM   29  C6  UNK     1      29.536  -5.921  33.199  1.00  0.00     0.170 C 
BRANCH  29  30
HETATM   30  C10 UNK     1      28.805  -6.791  32.224  1.00  0.00    -0.040 A 
HETATM   31  C14 UNK     1      29.348  -8.017  31.850  1.00  0.00     0.009 A 
HETATM   32  C20 UNK     1      28.668  -8.828  30.941  1.00  0.00     0.001 A 
HETATM   33  C22 UNK     1      27.448  -8.409  30.409  1.00  0.00     0.000 A 
HETATM   34  C21 UNK     1      26.909  -7.178  30.787  1.00  0.00     0.001 A 
HETATM   35  C15 UNK     1      27.590  -6.368  31.695  1.00  0.00     0.009 A 
ENDBRANCH  29  30
ENDBRANCH   2  29
TORSDOF 7
ENDMDL
MODEL 2
REMARK VINA RESULT:      -8.8     12.891     16.548
REMARK  7 active torsions:
REMARK  status: ('A' for Active; 'I' for Inactive)
REMARK    1  A    between atoms: C1_8  and  O1_1 
REMARK    2  A    between atoms: C24_31  and  O6_6 
REMARK    3  A    between atoms: C6_13  and  N1_7 
REMARK    4  A    between atoms: C1_8  and  C5_12 
REMARK    5  A    between atoms: C5_12  and  C9_16 
REMARK    6  A    between atoms: C10_17  and  C6_13 
REMARK    7  A    between atoms: C13_20  and  C9_16 
ROOT
HETATM    1  O2  UNK     1      17.640   1.952  33.335  1.00  0.00    -0.269 OA
HETATM    2  N1  UNK     1      18.697  -0.030  32.608  1.00  0.00    -0.310 N 
HETATM    3  C1  UNK     1      18.669   1.804  31.109  1.00  0.00     0.175 A 
HETATM    4  C2  UNK     1      19.354   0.604  30.516  1.00  0.00     0.013 A 
HETATM    5  C3  UNK     1      19.344  -0.445  31.436  1.00  0.00     0.047 A 
HETATM    6  C4  UNK     1      18.254   1.298  32.505  1.00  0.00     0.264 A 
HETATM    7  C7  UNK     1      19.934   0.448  29.269  1.00  0.00     0.013 A 
HETATM    8  C8  UNK     1      19.911  -1.674  31.146  1.00  0.00     0.030 A 
HETATM    9  C11 UNK     1      20.511  -0.787  28.959  1.00  0.00     0.001 A 
HETATM   10  C12 UNK     1      20.500  -1.839  29.891  1.00  0.00     0.002 A 
ENDROOT
BRANCH   3  11
HETATM   11  O1  UNK     1      17.496   2.100  30.376  1.00  0.00    -0.375 OA
HETATM   12  H7  UNK     1      16.725   1.794  30.881  1.00  0.00     0.211 HD
ENDBRANCH   3  11
BRANCH   3  13
HETATM   13  C5  UNK     1      19.569   3.027  31.211  1.00  0.00     0.137 C 
BRANCH  13  14
HETATM   14  C9  UNK     1      18.955   4.247  30.559  1.00  0.00     0.169 C 
HETATM   15  O3  UNK     1      18.652   4.310  29.371  1.00  0.00    -0.292 OA
BRANCH  14  16
HETATM   16  C13 UNK     1      18.724   5.410  31.438  1.00  0.00     0.086 A 
HETATM   17  C16 UNK     1      17.458   5.631  31.807  1.00  0.00     0.035 A 
HETATM   18  C18 UNK     1      17.130   6.753  32.674  1.00  0.00     0.002 A 
HETATM   19  C19 UNK     1      18.154   7.589  33.106  1.00  0.00     0.123 A 
HETATM   20  C23 UNK     1      15.822   7.020  33.084  1.00  0.00     0.014 A 
HETATM   21  O4  UNK     1      19.486   7.353  32.714  1.00  0.00    -0.271 OA
HETATM   22  C24 UNK     1      17.909   8.682  33.936  1.00  0.00     0.102 A 
HETATM   23  C17 UNK     1      19.830   6.287  31.887  1.00  0.00     0.302 A 
HETATM   24  O5  UNK     1      20.993   6.088  31.551  1.00  0.00    -0.259 OA
HETATM   25  C26 UNK     1      16.600   8.940  34.342  1.00  0.00     0.040 A 
HETATM   26  C25 UNK     1      15.559   8.112  33.917  1.00  0.00     0.004 A 
BRANCH  22  27
HETATM   27  O6  UNK     1      18.918   9.492  34.352  1.00  0.00    -0.353 OA
HETATM   28  C27 UNK     1      18.810  10.880  34.039  1.00  0.00     0.210 C 
ENDBRANCH  22  27
ENDBRANCH  14  16
ENDBRANCH  13  14
ENDBRANCH   3  13
BRANCH   2  29
HETATM   29  C6  UNK     1      18.512  -0.885  33.756  1.00  0.00     0.170 C 
BRANCH  29  30
HETATM   30  C10 UNK     1      17.925  -0.090  34.882  1.00  0.00    -0.040 A 
HETATM   31  C14 UNK     1      16.554  -0.135  35.119  1.00  0.00     0.009 A 
HETATM   32  C20 UNK     1      16.007   0.606  36.167  1.00  0.00     0.001 A 
HETATM   33  C22 UNK     1      16.833   1.389  36.973  1.00  0.00     0.000 A 
HETATM   34  C21 UNK     1      18.207   1.431  36.731  1.00  0.00     0.001 A 
HETATM   35  C15 UNK     1      18.753   0.691  35.683  1.00  0.00     0.009 A 
ENDBRANCH  29  30
ENDBRANCH   2  29
TORSDOF 7
ENDMDL
MODEL 3
REMARK VINA RESULT:      -8.6      3.626      5.101
REMARK  7 active torsions:
REMARK  status: ('A' for Active; 'I' for Inactive)
REMARK    1  A    between atoms: C1_8  and  O1_1 
REMARK    2  A    between atoms: C24_31  and  O6_6 
REMARK    3  A    between atoms: C6_13  and  N1_7 
REMARK    4  A    between atoms: C1_8  and  C5_12 
REMARK    5  A    between atoms: C5_12  and  C9_16 
REMARK    6  A    between atoms: C10_17  and  C6_13 
REMARK    7  A    between atoms: C13_20  and  C9_16 
ROOT
HETATM    1  O2  UNK     1      30.071  -6.235  32.684  1.00  0.00    -0.269 OA
HETATM    2  N1  UNK     1      31.480  -6.797  30.875  1.00  0.00    -0.310 N 
HETATM    3  C1  UNK     1      32.327  -7.130  33.062  1.00  0.00     0.175 A 
HETATM    4  C2  UNK     1      33.330  -7.509  32.007  1.00  0.00     0.013 A 
HETATM    5  C3  UNK     1      32.783  -7.295  30.741  1.00  0.00     0.047 A 
HETATM    6  C4  UNK     1      31.121  -6.659  32.225  1.00  0.00     0.264 A 
HETATM    7  C7  UNK     1      34.617  -7.998  32.150  1.00  0.00     0.013 A 
HETATM    8  C8  UNK     1      33.495  -7.563  29.585  1.00  0.00     0.030 A 
HETATM    9  C11 UNK     1      35.351  -8.274  30.993  1.00  0.00     0.001 A 
HETATM   10  C12 UNK     1      34.793  -8.058  29.720  1.00  0.00     0.002 A 
ENDROOT
BRANCH   3  11
HETATM   11  O1  UNK     1      32.808  -6.029  33.809  1.00  0.00    -0.375 OA
HETATM   12  H7  UNK     1      33.070  -6.340  34.691  1.00  0.00     0.211 HD
ENDBRANCH   3  11
BRANCH   3  13
HETATM   13  C5  UNK     1      31.946  -8.284  33.978  1.00  0.00     0.137 C 
BRANCH  13  14
HETATM   14  C9  UNK     1      32.367  -8.041  35.411  1.00  0.00     0.169 C 
HETATM   15  O3  UNK     1      33.532  -8.076  35.798  1.00  0.00    -0.292 OA
BRANCH  14  16
HETATM   16  C13 UNK     1      31.283  -7.751  36.370  1.00  0.00     0.086 A 
HETATM   17  C16 UNK     1      30.739  -8.806  36.985  1.00  0.00     0.035 A 
HETATM   18  C18 UNK     1      29.665  -8.622  37.949  1.00  0.00     0.002 A 
HETATM   19  C19 UNK     1      29.215  -7.332  38.215  1.00  0.00     0.123 A 
HETATM   20  C23 UNK     1      29.068  -9.695  38.614  1.00  0.00     0.014 A 
HETATM   21  O4  UNK     1      29.791  -6.224  37.564  1.00  0.00    -0.271 OA
HETATM   22  C24 UNK     1      28.189  -7.086  39.126  1.00  0.00     0.102 A 
HETATM   23  C17 UNK     1      30.821  -6.370  36.639  1.00  0.00     0.302 A 
HETATM   24  O5  UNK     1      31.318  -5.399  36.077  1.00  0.00    -0.259 OA
HETATM   25  C26 UNK     1      27.600  -8.163  39.786  1.00  0.00     0.040 A 
HETATM   26  C25 UNK     1      28.038  -9.464  39.531  1.00  0.00     0.004 A 
BRANCH  22  27
HETATM   27  O6  UNK     1      27.759  -5.821  39.378  1.00  0.00    -0.353 OA
HETATM   28  C27 UNK     1      26.597  -5.378  38.678  1.00  0.00     0.210 C 
ENDBRANCH  22  27
ENDBRANCH  14  16
ENDBRANCH  13  14
ENDBRANCH   3  13
BRANCH   2  29
HETATM   29  C6  UNK     1      30.639  -6.463  29.750  1.00  0.00     0.170 C 
BRANCH  29  30
HETATM   30  C10 UNK     1      29.778  -7.640  29.403  1.00  0.00    -0.040 A 
HETATM   31  C14 UNK     1      28.511  -7.759  29.967  1.00  0.00     0.009 A 
HETATM   32  C20 UNK     1      27.710  -8.854  29.644  1.00  0.00     0.001 A 
HETATM   33  C22 UNK     1      28.179  -9.826  28.760  1.00  0.00     0.000 A 
HETATM   34  C21 UNK     1      29.450  -9.702  28.198  1.00  0.00     0.001 A 
HETATM   35  C15 UNK     1      30.251  -8.607  28.521  1.00  0.00     0.009 A 
ENDBRANCH  29  30
ENDBRANCH   2  29
TORSDOF 7
ENDMDL
MODEL 4
REMARK VINA RESULT:      -8.3      4.652      6.506
REMARK  7 active torsions:
REMARK  status: ('A' for Active; 'I' for Inactive)
REMARK    1  A    between atoms: C1_8  and  O1_1 
REMARK    2  A    between atoms: C24_31  and  O6_6 
REMARK    3  A    between atoms: C6_13  and  N1_7 
REMARK    4  A    between atoms: C1_8  and  C5_12 
REMARK    5  A    between atoms: C5_12  and  C9_16 
REMARK    6  A    between atoms: C10_17  and  C6_13 
REMARK    7  A    between atoms: C13_20  and  C9_16 
ROOT
HETATM    1  O2  UNK     1      31.446  -8.189  32.718  1.00  0.00    -0.269 OA
HETATM    2  N1  UNK     1      30.869  -9.832  31.124  1.00  0.00    -0.310 N 
HETATM    3  C1  UNK     1      31.354 -10.569  33.322  1.00  0.00     0.175 A 
HETATM    4  C2  UNK     1      31.021 -11.714  32.406  1.00  0.00     0.013 A 
HETATM    5  C3  UNK     1      30.744 -11.228  31.128  1.00  0.00     0.047 A 
HETATM    6  C4  UNK     1      31.235  -9.348  32.389  1.00  0.00     0.264 A 
HETATM    7  C7  UNK     1      30.971 -13.071  32.675  1.00  0.00     0.013 A 
HETATM    8  C8  UNK     1      30.406 -12.072  30.085  1.00  0.00     0.030 A 
HETATM    9  C11 UNK     1      30.632 -13.938  31.633  1.00  0.00     0.001 A 
HETATM   10  C12 UNK     1      30.352 -13.442  30.348  1.00  0.00     0.002 A 
ENDROOT
BRANCH   3  11
HETATM   11  O1  UNK     1      32.697 -10.671  33.753  1.00  0.00    -0.375 OA
HETATM   12  H7  UNK     1      33.242 -10.978  33.010  1.00  0.00     0.211 HD
ENDBRANCH   3  11
BRANCH   3  13
HETATM   13  C5  UNK     1      30.410 -10.449  34.510  1.00  0.00     0.137 C 
BRANCH  13  14
HETATM   14  C9  UNK     1      31.152 -10.260  35.815  1.00  0.00     0.169 C 
HETATM   15  O3  UNK     1      31.686 -11.173  36.438  1.00  0.00    -0.292 OA
BRANCH  14  16
HETATM   16  C13 UNK     1      31.213  -8.880  36.338  1.00  0.00     0.086 A 
HETATM   17  C16 UNK     1      30.183  -8.489  37.096  1.00  0.00     0.035 A 
HETATM   18  C18 UNK     1      30.153  -7.148  37.659  1.00  0.00     0.002 A 
HETATM   19  C19 UNK     1      31.210  -6.283  37.392  1.00  0.00     0.123 A 
HETATM   20  C23 UNK     1      29.098  -6.698  38.456  1.00  0.00     0.014 A 
HETATM   21  O4  UNK     1      32.292  -6.700  36.592  1.00  0.00    -0.271 OA
HETATM   22  C24 UNK     1      31.242  -4.985  37.899  1.00  0.00     0.102 A 
HETATM   23  C17 UNK     1      32.349  -7.977  36.042  1.00  0.00     0.302 A 
HETATM   24  O5  UNK     1      33.295  -8.332  35.347  1.00  0.00    -0.259 OA
HETATM   25  C26 UNK     1      30.185  -4.545  38.694  1.00  0.00     0.040 A 
HETATM   26  C25 UNK     1      29.116  -5.399  38.972  1.00  0.00     0.004 A 
BRANCH  22  27
HETATM   27  O6  UNK     1      32.280  -4.150  37.631  1.00  0.00    -0.353 OA
HETATM   28  C27 UNK     1      32.157  -3.305  36.487  1.00  0.00     0.210 C 
ENDBRANCH  22  27
ENDBRANCH  14  16
ENDBRANCH  13  14
ENDBRANCH   3  13
BRANCH   2  29
HETATM   29  C6  UNK     1      30.654  -9.021  29.949  1.00  0.00     0.170 C 
BRANCH  29  30
HETATM   30  C10 UNK     1      29.408  -8.207  30.125  1.00  0.00    -0.040 A 
HETATM   31  C14 UNK     1      28.175  -8.845  30.229  1.00  0.00     0.009 A 
HETATM   32  C20 UNK     1      27.015  -8.088  30.392  1.00  0.00     0.001 A 
HETATM   33  C22 UNK     1      27.092  -6.696  30.448  1.00  0.00     0.000 A 
HETATM   34  C21 UNK     1      28.331  -6.062  30.342  1.00  0.00     0.001 A 
HETATM   35  C15 UNK     1      29.490  -6.819  30.179  1.00  0.00     0.009 A 
ENDBRANCH  29  30
ENDBRANCH   2  29
TORSDOF 7
ENDMDL
MODEL 5
REMARK VINA RESULT:      -8.2      4.396      9.283
REMARK  7 active torsions:
REMARK  status: ('A' for Active; 'I' for Inactive)
REMARK    1  A    between atoms: C1_8  and  O1_1 
REMARK    2  A    between atoms: C24_31  and  O6_6 
REMARK    3  A    between atoms: C6_13  and  N1_7 
REMARK    4  A    between atoms: C1_8  and  C5_12 
REMARK    5  A    between atoms: C5_12  and  C9_16 
REMARK    6  A    between atoms: C10_17  and  C6_13 
REMARK    7  A    between atoms: C13_20  and  C9_16 
ROOT
HETATM    1  O2  UNK     1      32.994  -8.361  36.522  1.00  0.00    -0.269 OA
HETATM    2  N1  UNK     1      31.090  -7.743  37.774  1.00  0.00    -0.310 N 
HETATM    3  C1  UNK     1      32.336  -6.006  36.755  1.00  0.00     0.175 A 
HETATM    4  C2  UNK     1      31.164  -5.475  37.534  1.00  0.00     0.013 A 
HETATM    5  C3  UNK     1      30.466  -6.535  38.113  1.00  0.00     0.047 A 
HETATM    6  C4  UNK     1      32.219  -7.528  36.970  1.00  0.00     0.264 A 
HETATM    7  C7  UNK     1      30.751  -4.167  37.722  1.00  0.00     0.013 A 
HETATM    8  C8  UNK     1      29.338  -6.328  38.888  1.00  0.00     0.030 A 
HETATM    9  C11 UNK     1      29.614  -3.940  38.502  1.00  0.00     0.001 A 
HETATM   10  C12 UNK     1      28.913  -5.012  39.080  1.00  0.00     0.002 A 
ENDROOT
BRANCH   3  11
HETATM   11  O1  UNK     1      33.545  -5.564  37.342  1.00  0.00    -0.375 OA
HETATM   12  H7  UNK     1      34.131  -5.234  36.642  1.00  0.00     0.211 HD
ENDBRANCH   3  11
BRANCH   3  13
HETATM   13  C5  UNK     1      32.290  -5.652  35.276  1.00  0.00     0.137 C 
BRANCH  13  14
HETATM   14  C9  UNK     1      33.629  -5.174  34.759  1.00  0.00     0.169 C 
HETATM   15  O3  UNK     1      34.002  -4.005  34.800  1.00  0.00    -0.292 OA
BRANCH  14  16
HETATM   16  C13 UNK     1      34.510  -6.205  34.175  1.00  0.00     0.086 A 
HETATM   17  C16 UNK     1      34.135  -6.702  32.991  1.00  0.00     0.035 A 
HETATM   18  C18 UNK     1      34.939  -7.722  32.335  1.00  0.00     0.002 A 
HETATM   19  C19 UNK     1      36.098  -8.170  32.961  1.00  0.00     0.123 A 
HETATM   20  C23 UNK     1      34.586  -8.267  31.098  1.00  0.00     0.014 A 
HETATM   21  O4  UNK     1      36.487  -7.644  34.208  1.00  0.00    -0.271 OA
HETATM   22  C24 UNK     1      36.912  -9.145  32.387  1.00  0.00     0.102 A 
HETATM   23  C17 UNK     1      35.739  -6.667  34.859  1.00  0.00     0.302 A 
HETATM   24  O5  UNK     1      36.086  -6.214  35.944  1.00  0.00    -0.259 OA
HETATM   25  C26 UNK     1      36.552  -9.684  31.153  1.00  0.00     0.040 A 
HETATM   26  C25 UNK     1      35.392  -9.247  30.510  1.00  0.00     0.004 A 
BRANCH  22  27
HETATM   27  O6  UNK     1      38.042  -9.575  33.009  1.00  0.00    -0.353 OA
HETATM   28  C27 UNK     1      38.696 -10.715  32.454  1.00  0.00     0.210 C 
ENDBRANCH  22  27
ENDBRANCH  14  16
ENDBRANCH  13  14
ENDBRANCH   3  13
BRANCH   2  29
HETATM   29  C6  UNK     1      30.617  -9.032  38.221  1.00  0.00     0.170 C 
BRANCH  29  30
HETATM   30  C10 UNK     1      29.283  -9.318  37.600  1.00  0.00    -0.040 A 
HETATM   31  C14 UNK     1      28.190  -9.601  38.413  1.00  0.00     0.009 A 
HETATM   32  C20 UNK     1      26.948  -9.868  37.836  1.00  0.00     0.001 A 
HETATM   33  C22 UNK     1      26.806  -9.852  36.448  1.00  0.00     0.000 A 
HETATM   34  C21 UNK     1      27.906  -9.568  35.638  1.00  0.00     0.001 A 
HETATM   35  C15 UNK     1      29.147  -9.301  36.216  1.00  0.00     0.009 A 
ENDBRANCH  29  30
ENDBRANCH   2  29
TORSDOF 7
ENDMDL
MODEL 6
REMARK VINA RESULT:      -8.2      3.761      7.216
REMARK  7 active torsions:
REMARK  status: ('A' for Active; 'I' for Inactive)
REMARK    1  A    between atoms: C1_8  and  O1_1 
REMARK    2  A    between atoms: C24_31  and  O6_6 
REMARK    3  A    between atoms: C6_13  and  N1_7 
REMARK    4  A    between atoms: C1_8  and  C5_12 
REMARK    5  A    between atoms: C5_12  and  C9_16 
REMARK    6  A    between atoms: C10_17  and  C6_13 
REMARK    7  A    between atoms: C13_20  and  C9_16 
ROOT
HETATM    1  O2  UNK     1      31.816  -8.036  39.074  1.00  0.00    -0.269 OA
HETATM    2  N1  UNK     1      31.393  -5.920  38.117  1.00  0.00    -0.310 N 
HETATM    3  C1  UNK     1      33.336  -7.072  37.402  1.00  0.00     0.175 A 
HETATM    4  C2  UNK     1      33.197  -5.735  36.730  1.00  0.00     0.013 A 
HETATM    5  C3  UNK     1      32.041  -5.099  37.183  1.00  0.00     0.047 A 
HETATM    6  C4  UNK     1      32.095  -7.118  38.316  1.00  0.00     0.264 A 
HETATM    7  C7  UNK     1      34.021  -5.126  35.799  1.00  0.00     0.013 A 
HETATM    8  C8  UNK     1      31.670  -3.847  36.725  1.00  0.00     0.030 A 
HETATM    9  C11 UNK     1      33.662  -3.861  35.326  1.00  0.00     0.001 A 
HETATM   10  C12 UNK     1      32.495  -3.227  35.785  1.00  0.00     0.002 A 
ENDROOT
BRANCH   3  11
HETATM   11  O1  UNK     1      34.491  -7.084  38.218  1.00  0.00    -0.375 OA
HETATM   12  H7  UNK     1      34.776  -6.168  38.371  1.00  0.00     0.211 HD
ENDBRANCH   3  11
BRANCH   3  13
HETATM   13  C5  UNK     1      33.347  -8.241  36.428  1.00  0.00     0.137 C 
BRANCH  13  14
HETATM   14  C9  UNK     1      31.988  -8.483  35.807  1.00  0.00     0.169 C 
HETATM   15  O3  UNK     1      31.060  -9.041  36.385  1.00  0.00    -0.292 OA
BRANCH  14  16
HETATM   16  C13 UNK     1      31.809  -8.007  34.421  1.00  0.00     0.086 A 
HETATM   17  C16 UNK     1      30.938  -7.008  34.246  1.00  0.00     0.035 A 
HETATM   18  C18 UNK     1      30.695  -6.470  32.917  1.00  0.00     0.002 A 
HETATM   19  C19 UNK     1      31.380  -7.015  31.835  1.00  0.00     0.123 A 
HETATM   20  C23 UNK     1      29.794  -5.426  32.689  1.00  0.00     0.014 A 
HETATM   21  O4  UNK     1      32.296  -8.068  32.024  1.00  0.00    -0.271 OA
HETATM   22  C24 UNK     1      31.192  -6.546  30.536  1.00  0.00     0.102 A 
HETATM   23  C17 UNK     1      32.550  -8.602  33.285  1.00  0.00     0.302 A 
HETATM   24  O5  UNK     1      33.350  -9.518  33.441  1.00  0.00    -0.259 OA
HETATM   25  C26 UNK     1      30.292  -5.504  30.318  1.00  0.00     0.040 A 
HETATM   26  C25 UNK     1      29.595  -4.946  31.391  1.00  0.00     0.004 A 
BRANCH  22  27
HETATM   27  O6  UNK     1      31.868  -7.087  29.488  1.00  0.00    -0.353 OA
HETATM   28  C27 UNK     1      31.115  -7.870  28.563  1.00  0.00     0.210 C 
ENDBRANCH  22  27
ENDBRANCH  14  16
ENDBRANCH  13  14
ENDBRANCH   3  13
BRANCH   2  29
HETATM   29  C6  UNK     1      30.167  -5.550  38.782  1.00  0.00     0.170 C 
BRANCH  29  30
HETATM   30  C10 UNK     1      29.053  -6.430  38.304  1.00  0.00    -0.040 A 
HETATM   31  C14 UNK     1      28.325  -7.183  39.220  1.00  0.00     0.009 A 
HETATM   32  C20 UNK     1      27.287  -8.003  38.775  1.00  0.00     0.001 A 
HETATM   33  C22 UNK     1      26.983  -8.066  37.415  1.00  0.00     0.000 A 
HETATM   34  C21 UNK     1      27.717  -7.309  36.500  1.00  0.00     0.001 A 
HETATM   35  C15 UNK     1      28.754  -6.490  36.946  1.00  0.00     0.009 A 
ENDBRANCH  29  30
ENDBRANCH   2  29
TORSDOF 7
ENDMDL
MODEL 7
REMARK VINA RESULT:      -8.2      4.799      9.311
REMARK  7 active torsions:
REMARK  status: ('A' for Active; 'I' for Inactive)
REMARK    1  A    between atoms: C1_8  and  O1_1 
REMARK    2  A    between atoms: C24_31  and  O6_6 
REMARK    3  A    between atoms: C6_13  and  N1_7 
REMARK    4  A    between atoms: C1_8  and  C5_12 
REMARK    5  A    between atoms: C5_12  and  C9_16 
REMARK    6  A    between atoms: C10_17  and  C6_13 
REMARK    7  A    between atoms: C13_20  and  C9_16 
ROOT
HETATM    1  O2  UNK     1      27.480  -7.481  30.831  1.00  0.00    -0.269 OA
HETATM    2  N1  UNK     1      28.839  -8.850  32.193  1.00  0.00    -0.310 N 
HETATM    3  C1  UNK     1      28.830  -9.292  29.866  1.00  0.00     0.175 A 
HETATM    4  C2  UNK     1      29.720 -10.245  30.616  1.00  0.00     0.013 A 
HETATM    5  C3  UNK     1      29.690  -9.943  31.977  1.00  0.00     0.047 A 
HETATM    6  C4  UNK     1      28.275  -8.396  30.991  1.00  0.00     0.264 A 
HETATM    7  C7  UNK     1      30.488 -11.293  30.139  1.00  0.00     0.013 A 
HETATM    8  C8  UNK     1      30.422 -10.668  32.901  1.00  0.00     0.030 A 
HETATM    9  C11 UNK     1      31.234 -12.037  31.058  1.00  0.00     0.001 A 
HETATM   10  C12 UNK     1      31.201 -11.725  32.428  1.00  0.00     0.002 A 
ENDROOT
BRANCH   3  11
HETATM   11  O1  UNK     1      27.751  -9.998  29.284  1.00  0.00    -0.375 OA
HETATM   12  H7  UNK     1      27.156  -9.362  28.854  1.00  0.00     0.211 HD
ENDBRANCH   3  11
BRANCH   3  13
HETATM   13  C5  UNK     1      29.569  -8.470  28.820  1.00  0.00     0.137 C 
BRANCH  13  14
HETATM   14  C9  UNK     1      30.457  -7.415  29.442  1.00  0.00     0.169 C 
HETATM   15  O3  UNK     1      30.093  -6.267  29.682  1.00  0.00    -0.292 OA
BRANCH  14  16
HETATM   16  C13 UNK     1      31.838  -7.829  29.763  1.00  0.00     0.086 A 
HETATM   17  C16 UNK     1      32.261  -7.566  31.004  1.00  0.00     0.035 A 
HETATM   18  C18 UNK     1      33.606  -7.937  31.416  1.00  0.00     0.002 A 
HETATM   19  C19 UNK     1      34.440  -8.565  30.497  1.00  0.00     0.123 A 
HETATM   20  C23 UNK     1      34.088  -7.682  32.702  1.00  0.00     0.014 A 
HETATM   21  O4  UNK     1      33.990  -8.839  29.190  1.00  0.00    -0.271 OA
HETATM   22  C24 UNK     1      35.740  -8.945  30.826  1.00  0.00     0.102 A 
HETATM   23  C17 UNK     1      32.708  -8.497  28.769  1.00  0.00     0.302 A 
HETATM   24  O5  UNK     1      32.324  -8.740  27.630  1.00  0.00    -0.259 OA
HETATM   25  C26 UNK     1      36.213  -8.688  32.112  1.00  0.00     0.040 A 
HETATM   26  C25 UNK     1      35.390  -8.058  33.047  1.00  0.00     0.004 A 
BRANCH  22  27
HETATM   27  O6  UNK     1      36.546  -9.559  29.919  1.00  0.00    -0.353 OA
HETATM   28  C27 UNK     1      37.385 -10.608  30.400  1.00  0.00     0.210 C 
ENDBRANCH  22  27
ENDBRANCH  14  16
ENDBRANCH  13  14
ENDBRANCH   3  13
BRANCH   2  29
HETATM   29  C6  UNK     1      28.583  -8.290  33.499  1.00  0.00     0.170 C 
BRANCH  29  30
HETATM   30  C10 UNK     1      29.688  -7.348  33.864  1.00  0.00    -0.040 A 
HETATM   31  C14 UNK     1      30.573  -7.683  34.885  1.00  0.00     0.009 A 
HETATM   32  C20 UNK     1      31.603  -6.806  35.225  1.00  0.00     0.001 A 
HETATM   33  C22 UNK     1      31.742  -5.595  34.545  1.00  0.00     0.000 A 
HETATM   34  C21 UNK     1      30.851  -5.264  33.523  1.00  0.00     0.001 A 
HETATM   35  C15 UNK     1      29.822  -6.142  33.183  1.00  0.00     0.009 A 
ENDBRANCH  29  30
ENDBRANCH   2  29
TORSDOF 7
ENDMDL
MODEL 8
REMARK VINA RESULT:      -8.2      3.621      6.720
REMARK  7 active torsions:
REMARK  status: ('A' for Active; 'I' for Inactive)
REMARK    1  A    between atoms: C1_8  and  O1_1 
REMARK    2  A    between atoms: C24_31  and  O6_6 
REMARK    3  A    between atoms: C6_13  and  N1_7 
REMARK    4  A    between atoms: C1_8  and  C5_12 
REMARK    5  A    between atoms: C5_12  and  C9_16 
REMARK    6  A    between atoms: C10_17  and  C6_13 
REMARK    7  A    between atoms: C13_20  and  C9_16 
ROOT
HETATM    1  O2  UNK     1      30.808  -6.271  33.861  1.00  0.00    -0.269 OA
HETATM    2  N1  UNK     1      30.989  -5.030  35.861  1.00  0.00    -0.310 N 
HETATM    3  C1  UNK     1      29.298  -6.685  35.754  1.00  0.00     0.175 A 
HETATM    4  C2  UNK     1      29.292  -5.960  37.071  1.00  0.00     0.013 A 
HETATM    5  C3  UNK     1      30.303  -4.999  37.083  1.00  0.00     0.047 A 
HETATM    6  C4  UNK     1      30.457  -6.002  35.001  1.00  0.00     0.264 A 
HETATM    7  C7  UNK     1      28.461  -6.129  38.165  1.00  0.00     0.013 A 
HETATM    8  C8  UNK     1      30.521  -4.184  38.180  1.00  0.00     0.030 A 
HETATM    9  C11 UNK     1      28.667  -5.314  39.282  1.00  0.00     0.001 A 
HETATM   10  C12 UNK     1      29.689  -4.350  39.289  1.00  0.00     0.002 A 
ENDROOT
BRANCH   3  11
HETATM   11  O1  UNK     1      28.097  -6.425  35.054  1.00  0.00    -0.375 OA
HETATM   12  H7  UNK     1      27.544  -5.832  35.590  1.00  0.00     0.211 HD
ENDBRANCH   3  11
BRANCH   3  13
HETATM   13  C5  UNK     1      29.534  -8.183  35.888  1.00  0.00     0.137 C 
BRANCH  13  14
HETATM   14  C9  UNK     1      28.516  -8.995  35.119  1.00  0.00     0.169 C 
HETATM   15  O3  UNK     1      27.406  -9.291  35.553  1.00  0.00    -0.292 OA
BRANCH  14  16
HETATM   16  C13 UNK     1      28.919  -9.442  33.770  1.00  0.00     0.086 A 
HETATM   17  C16 UNK     1      29.578 -10.603  33.704  1.00  0.00     0.035 A 
HETATM   18  C18 UNK     1      30.016 -11.127  32.420  1.00  0.00     0.002 A 
HETATM   19  C19 UNK     1      29.740 -10.399  31.267  1.00  0.00     0.123 A 
HETATM   20  C23 UNK     1      30.706 -12.337  32.305  1.00  0.00     0.014 A 
HETATM   21  O4  UNK     1      29.046  -9.175  31.342  1.00  0.00    -0.271 OA
HETATM   22  C24 UNK     1      30.132 -10.844  30.006  1.00  0.00     0.102 A 
HETATM   23  C17 UNK     1      28.613  -8.650  32.557  1.00  0.00     0.302 A 
HETATM   24  O5  UNK     1      28.009  -7.584  32.613  1.00  0.00    -0.259 OA
HETATM   25  C26 UNK     1      30.820 -12.051  29.900  1.00  0.00     0.040 A 
HETATM   26  C25 UNK     1      31.107 -12.796  31.046  1.00  0.00     0.004 A 
BRANCH  22  27
HETATM   27  O6  UNK     1      29.856 -10.122  28.887  1.00  0.00    -0.353 OA
HETATM   28  C27 UNK     1      28.611 -10.379  28.240  1.00  0.00     0.210 C 
ENDBRANCH  22  27
ENDBRANCH  14  16
ENDBRANCH  13  14
ENDBRANCH   3  13
BRANCH   2  29
HETATM   29  C6  UNK     1      32.092  -4.153  35.549  1.00  0.00     0.170 C 
BRANCH  29  30
HETATM   30  C10 UNK     1      33.372  -4.932  35.569  1.00  0.00    -0.040 A 
HETATM   31  C14 UNK     1      34.117  -5.067  34.401  1.00  0.00     0.009 A 
HETATM   32  C20 UNK     1      35.308  -5.793  34.418  1.00  0.00     0.001 A 
HETATM   33  C22 UNK     1      35.749  -6.381  35.604  1.00  0.00     0.000 A 
HETATM   34  C21 UNK     1      34.998  -6.243  36.772  1.00  0.00     0.001 A 
HETATM   35  C15 UNK     1      33.807  -5.517  36.754  1.00  0.00     0.009 A 
ENDBRANCH  29  30
ENDBRANCH   2  29
TORSDOF 7
ENDMDL
MODEL 9
REMARK VINA RESULT:      -8.2      5.722      8.706
REMARK  7 active torsions:
REMARK  status: ('A' for Active; 'I' for Inactive)
REMARK    1  A    between atoms: C1_8  and  O1_1 
REMARK    2  A    between atoms: C24_31  and  O6_6 
REMARK    3  A    between atoms: C6_13  and  N1_7 
REMARK    4  A    between atoms: C1_8  and  C5_12 
REMARK    5  A    between atoms: C5_12  and  C9_16 
REMARK    6  A    between atoms: C10_17  and  C6_13 
REMARK    7  A    between atoms: C13_20  and  C9_16 
ROOT
HETATM    1  O2  UNK     1      29.359 -10.034  28.403  1.00  0.00    -0.269 OA
HETATM    2  N1  UNK     1      29.023  -9.636  30.706  1.00  0.00    -0.310 N 
HETATM    3  C1  UNK     1      30.736 -11.156  30.100  1.00  0.00     0.175 A 
HETATM    4  C2  UNK     1      30.618 -11.009  31.591  1.00  0.00     0.013 A 
HETATM    5  C3  UNK     1      29.598 -10.105  31.895  1.00  0.00     0.047 A 
HETATM    6  C4  UNK     1      29.634 -10.211  29.581  1.00  0.00     0.264 A 
HETATM    7  C7  UNK     1      31.344 -11.622  32.598  1.00  0.00     0.013 A 
HETATM    8  C8  UNK     1      29.275  -9.783  33.201  1.00  0.00     0.030 A 
HETATM    9  C11 UNK     1      31.030 -11.309  33.923  1.00  0.00     0.001 A 
HETATM   10  C12 UNK     1      30.004 -10.396  34.222  1.00  0.00     0.002 A 
ENDROOT
BRANCH   3  11
HETATM   11  O1  UNK     1      30.406 -12.477  29.719  1.00  0.00    -0.375 OA
HETATM   12  H7  UNK     1      29.689 -12.799  30.290  1.00  0.00     0.211 HD
ENDBRANCH   3  11
BRANCH   3  13
HETATM   13  C5  UNK     1      32.102 -10.760  29.559  1.00  0.00     0.137 C 
BRANCH  13  14
HETATM   14  C9  UNK     1      32.251  -9.260  29.422  1.00  0.00     0.169 C 
HETATM   15  O3  UNK     1      31.838  -8.615  28.462  1.00  0.00    -0.292 OA
BRANCH  14  16
HETATM   16  C13 UNK     1      32.944  -8.568  30.528  1.00  0.00     0.086 A 
HETATM   17  C16 UNK     1      32.161  -8.009  31.458  1.00  0.00     0.035 A 
HETATM   18  C18 UNK     1      32.751  -7.307  32.587  1.00  0.00     0.002 A 
HETATM   19  C19 UNK     1      34.136  -7.226  32.679  1.00  0.00     0.123 A 
HETATM   20  C23 UNK     1      31.972  -6.710  33.581  1.00  0.00     0.014 A 
HETATM   21  O4  UNK     1      34.956  -7.815  31.697  1.00  0.00    -0.271 OA
HETATM   22  C24 UNK     1      34.764  -6.566  33.735  1.00  0.00     0.102 A 
HETATM   23  C17 UNK     1      34.420  -8.495  30.606  1.00  0.00     0.302 A 
HETATM   24  O5  UNK     1      35.141  -9.006  29.756  1.00  0.00    -0.259 OA
HETATM   25  C26 UNK     1      33.980  -5.974  34.723  1.00  0.00     0.040 A 
HETATM   26  C25 UNK     1      32.587  -6.044  34.646  1.00  0.00     0.004 A 
BRANCH  22  27
HETATM   27  O6  UNK     1      36.120  -6.494  33.813  1.00  0.00    -0.353 OA
HETATM   28  C27 UNK     1      36.771  -7.425  34.677  1.00  0.00     0.210 C 
ENDBRANCH  22  27
ENDBRANCH  14  16
ENDBRANCH  13  14
ENDBRANCH   3  13
BRANCH   2  29
HETATM   29  C6  UNK     1      27.934  -8.689  30.672  1.00  0.00     0.170 C 
BRANCH  29  30
HETATM   30  C10 UNK     1      28.444  -7.326  31.026  1.00  0.00    -0.040 A 
HETATM   31  C14 UNK     1      29.310  -6.666  30.159  1.00  0.00     0.009 A 
HETATM   32  C20 UNK     1      29.786  -5.396  30.488  1.00  0.00     0.001 A 
HETATM   33  C22 UNK     1      29.395  -4.794  31.684  1.00  0.00     0.000 A 
HETATM   34  C21 UNK     1      28.528  -5.460  32.550  1.00  0.00     0.001 A 
HETATM   35  C15 UNK     1      28.052  -6.729  32.220  1.00  0.00     0.009 A 
ENDBRANCH  29  30
ENDBRANCH   2  29
TORSDOF 7
ENDMDL
MODEL 10
REMARK VINA RESULT:      -8.2      2.572      3.964
REMARK  7 active torsions:
REMARK  status: ('A' for Active; 'I' for Inactive)
REMARK    1  A    between atoms: C1_8  and  O1_1 
REMARK    2  A    between atoms: C24_31  and  O6_6 
REMARK    3  A    between atoms: C6_13  and  N1_7 
REMARK    4  A    between atoms: C1_8  and  C5_12 
REMARK    5  A    between atoms: C5_12  and  C9_16 
REMARK    6  A    between atoms: C10_17  and  C6_13 
REMARK    7  A    between atoms: C13_20  and  C9_16 
ROOT
HETATM    1  O2  UNK     1      29.997  -7.463  34.882  1.00  0.00    -0.269 OA
HETATM    2  N1  UNK     1      31.702  -7.703  33.266  1.00  0.00    -0.310 N 
HETATM    3  C1  UNK     1      32.211  -6.451  35.211  1.00  0.00     0.175 A 
HETATM    4  C2  UNK     1      33.374  -6.509  34.260  1.00  0.00     0.013 A 
HETATM    5  C3  UNK     1      33.024  -7.256  33.134  1.00  0.00     0.047 A 
HETATM    6  C4  UNK     1      31.132  -7.267  34.472  1.00  0.00     0.264 A 
HETATM    7  C7  UNK     1      34.635  -5.949  34.373  1.00  0.00     0.013 A 
HETATM    8  C8  UNK     1      33.912  -7.470  32.095  1.00  0.00     0.030 A 
HETATM    9  C11 UNK     1      35.545  -6.154  33.333  1.00  0.00     0.001 A 
HETATM   10  C12 UNK     1      35.186  -6.909  32.203  1.00  0.00     0.002 A 
ENDROOT
BRANCH   3  11
HETATM   11  O1  UNK     1      31.756  -5.117  35.333  1.00  0.00    -0.375 OA
HETATM   12  H7  UNK     1      32.396  -4.615  35.864  1.00  0.00     0.211 HD
ENDBRANCH   3  11
BRANCH   3  13
HETATM   13  C5  UNK     1      32.516  -7.048  36.577  1.00  0.00     0.137 C 
BRANCH  13  14
HETATM   14  C9  UNK     1      31.830  -6.296  37.697  1.00  0.00     0.169 C 
HETATM   15  O3  UNK     1      32.373  -5.426  38.371  1.00  0.00    -0.292 OA
BRANCH  14  16
HETATM   16  C13 UNK     1      30.425  -6.662  37.965  1.00  0.00     0.086 A 
HETATM   17  C16 UNK     1      30.206  -7.923  38.354  1.00  0.00     0.035 A 
HETATM   18  C18 UNK     1      28.855  -8.378  38.644  1.00  0.00     0.002 A 
HETATM   19  C19 UNK     1      27.800  -7.482  38.506  1.00  0.00     0.123 A 
HETATM   20  C23 UNK     1      28.581  -9.685  39.054  1.00  0.00     0.014 A 
HETATM   21  O4  UNK     1      28.035  -6.156  38.095  1.00  0.00    -0.271 OA
HETATM   22  C24 UNK     1      26.482  -7.855  38.766  1.00  0.00     0.102 A 
HETATM   23  C17 UNK     1      29.317  -5.692  37.813  1.00  0.00     0.302 A 
HETATM   24  O5  UNK     1      29.513  -4.535  37.456  1.00  0.00    -0.259 OA
HETATM   25  C26 UNK     1      26.218  -9.161  39.175  1.00  0.00     0.040 A 
HETATM   26  C25 UNK     1      27.264 -10.074  39.318  1.00  0.00     0.004 A 
BRANCH  22  27
HETATM   27  O6  UNK     1      25.459  -6.969  38.627  1.00  0.00    -0.353 OA
HETATM   28  C27 UNK     1      24.153  -7.426  38.975  1.00  0.00     0.210 C 
ENDBRANCH  22  27
ENDBRANCH  14  16
ENDBRANCH  13  14
ENDBRANCH   3  13
BRANCH   2  29
HETATM   29  C6  UNK     1      31.031  -8.499  32.266  1.00  0.00     0.170 C 
BRANCH  29  30
HETATM   30  C10 UNK     1      29.901  -7.712  31.675  1.00  0.00    -0.040 A 
HETATM   31  C14 UNK     1      30.152  -6.470  31.098  1.00  0.00     0.009 A 
HETATM   32  C20 UNK     1      29.100  -5.737  30.548  1.00  0.00     0.001 A 
HETATM   33  C22 UNK     1      27.802  -6.248  30.578  1.00  0.00     0.000 A 
HETATM   34  C21 UNK     1      27.557  -7.493  31.158  1.00  0.00     0.001 A 
HETATM   35  C15 UNK     1      28.609  -8.226  31.708  1.00  0.00     0.009 A 
ENDBRANCH  29  30
ENDBRANCH   2  29
TORSDOF 7
ENDMDL
