MODEL 1
REMARK VINA RESULT:      -9.2      0.000      0.000
REMARK  2 active torsions:
REMARK  status: ('A' for Active; 'I' for Inactive)
REMARK    1  A    between atoms: C1_6  and  C8_13 
REMARK    2  A    between atoms: C6_11  and  C9_14 
ROOT
HETATM    1  O1  UNK     1      34.497  -8.300  32.549  1.00  0.00    -0.293 OA
HETATM    2  N1  UNK     1      29.765  -8.387  31.630  1.00  0.00    -0.357 N 
HETATM    3  N2  UNK     1      31.891  -9.347  29.728  1.00  0.00    -0.375 N 
HETATM    4  C1  UNK     1      31.803  -6.841  34.368  1.00  0.00     0.031 C 
HETATM    5  C2  UNK     1      30.681  -6.938  33.330  1.00  0.00     0.067 C 
HETATM    6  C3  UNK     1      32.176  -8.451  31.996  1.00  0.00     0.037 C 
HETATM    7  C4  UNK     1      30.935  -7.981  32.246  1.00  0.00     0.022 C 
HETATM    8  C5  UNK     1      33.138  -6.694  33.652  1.00  0.00     0.093 C 
HETATM    9  C6  UNK     1      32.483  -9.571  31.035  1.00  0.00     0.160 C 
HETATM   10  C7  UNK     1      33.358  -7.868  32.730  1.00  0.00     0.160 C 
HETATM   11  C10 UNK     1      29.532  -8.972  30.368  1.00  0.00     0.059 A 
HETATM   12  C11 UNK     1      30.530  -9.354  29.456  1.00  0.00     0.055 A 
HETATM   13  C16 UNK     1      28.177  -9.124  29.989  1.00  0.00     0.032 A 
HETATM   14  C17 UNK     1      30.135  -9.828  28.184  1.00  0.00     0.031 A 
HETATM   15  C22 UNK     1      27.811  -9.611  28.736  1.00  0.00     0.002 A 
HETATM   16  C23 UNK     1      28.795  -9.955  27.826  1.00  0.00     0.002 A 
HETATM   17  H7  UNK     1      28.918  -8.100  32.112  1.00  0.00     0.166 HD
HETATM   18  H8  UNK     1      32.507  -9.484  28.932  1.00  0.00     0.160 HD
ENDROOT
BRANCH   9  19
HETATM   19  C9  UNK     1      32.107 -10.922  31.570  1.00  0.00     0.042 A 
HETATM   20  C14 UNK     1      32.332 -12.113  30.711  1.00  0.00     0.195 A 
HETATM   21  O3  UNK     1      32.812 -12.024  29.589  1.00  0.00    -0.287 OA
HETATM   22  C18 UNK     1      31.945 -13.415  31.286  1.00  0.00     0.049 A 
HETATM   23  C21 UNK     1      31.402 -13.455  32.570  1.00  0.00     0.089 A 
HETATM   24  C25 UNK     1      32.118 -14.595  30.557  1.00  0.00     0.025 A 
HETATM   25  O2  UNK     1      31.211 -12.329  33.330  1.00  0.00    -0.321 OA
HETATM   26  C26 UNK     1      31.029 -14.677  33.134  1.00  0.00     0.039 A 
HETATM   27  C15 UNK     1      31.576 -11.124  32.783  1.00  0.00     0.156 A 
HETATM   28  C28 UNK     1      31.200 -15.855  32.408  1.00  0.00     0.009 A 
HETATM   29  C27 UNK     1      31.744 -15.814  31.122  1.00  0.00    -0.061 A 
HETATM   30  C29 UNK     1      31.925 -17.079  30.351  1.00  0.00     0.048 C 
ENDBRANCH   9  19
BRANCH   4  31
HETATM   31  C8  UNK     1      31.556  -5.728  35.368  1.00  0.00    -0.053 A 
HETATM   32  C12 UNK     1      32.381  -4.604  35.374  1.00  0.00     0.007 A 
HETATM   33  C19 UNK     1      32.154  -3.580  36.294  1.00  0.00     0.001 A 
HETATM   34  C24 UNK     1      31.103  -3.682  37.205  1.00  0.00     0.000 A 
HETATM   35  C20 UNK     1      30.279  -4.807  37.198  1.00  0.00     0.001 A 
HETATM   36  C13 UNK     1      30.506  -5.830  36.278  1.00  0.00     0.007 A 
ENDBRANCH   4  31
TORSDOF 2
ENDMDL
MODEL 2
REMARK VINA RESULT:      -9.1     33.308     35.656
REMARK  2 active torsions:
REMARK  status: ('A' for Active; 'I' for Inactive)
REMARK    1  A    between atoms: C1_6  and  C8_13 
REMARK    2  A    between atoms: C6_11  and  C9_14 
ROOT
HETATM    1  O1  UNK     1      15.613   7.037   9.425  1.00  0.00    -0.293 OA
HETATM    2  N1  UNK     1      13.091  11.123   9.848  1.00  0.00    -0.357 N 
HETATM    3  N2  UNK     1      15.604  10.503  11.383  1.00  0.00    -0.375 N 
HETATM    4  C1  UNK     1      12.406   7.871   8.117  1.00  0.00     0.031 C 
HETATM    5  C2  UNK     1      12.089   9.125   8.937  1.00  0.00     0.067 C 
HETATM    6  C3  UNK     1      14.486   9.128   9.683  1.00  0.00     0.037 C 
HETATM    7  C4  UNK     1      13.319   9.795   9.538  1.00  0.00     0.022 C 
HETATM    8  C5  UNK     1      13.290   6.944   8.939  1.00  0.00     0.093 C 
HETATM    9  C6  UNK     1      15.774   9.761  10.146  1.00  0.00     0.160 C 
HETATM   10  C7  UNK     1      14.556   7.662   9.338  1.00  0.00     0.160 C 
HETATM   11  C10 UNK     1      13.734  11.993  10.752  1.00  0.00     0.059 A 
HETATM   12  C11 UNK     1      14.868  11.671  11.517  1.00  0.00     0.055 A 
HETATM   13  C16 UNK     1      13.139  13.265  10.929  1.00  0.00     0.032 A 
HETATM   14  C17 UNK     1      15.332  12.614  12.463  1.00  0.00     0.031 A 
HETATM   15  C22 UNK     1      13.625  14.186  11.855  1.00  0.00     0.002 A 
HETATM   16  C23 UNK     1      14.722  13.855  12.631  1.00  0.00     0.002 A 
HETATM   17  H7  UNK     1      12.236  11.504   9.450  1.00  0.00     0.166 HD
HETATM   18  H8  UNK     1      16.293  10.322  12.107  1.00  0.00     0.160 HD
ENDROOT
BRANCH   9  19
HETATM   19  C9  UNK     1      16.420  10.613   9.093  1.00  0.00     0.042 A 
HETATM   20  C14 UNK     1      17.860  10.946   9.236  1.00  0.00     0.195 A 
HETATM   21  O3  UNK     1      18.529  10.549  10.181  1.00  0.00    -0.287 OA
HETATM   22  C18 UNK     1      18.445  11.785   8.173  1.00  0.00     0.049 A 
HETATM   23  C21 UNK     1      17.634  12.209   7.120  1.00  0.00     0.089 A 
HETATM   24  C25 UNK     1      19.792  12.153   8.217  1.00  0.00     0.025 A 
HETATM   25  O2  UNK     1      16.307  11.877   7.027  1.00  0.00    -0.321 OA
HETATM   26  C26 UNK     1      18.167  13.004   6.104  1.00  0.00     0.039 A 
HETATM   27  C15 UNK     1      15.775  11.095   8.023  1.00  0.00     0.156 A 
HETATM   28  C28 UNK     1      19.511  13.372   6.146  1.00  0.00     0.009 A 
HETATM   29  C27 UNK     1      20.322  12.948   7.200  1.00  0.00    -0.061 A 
HETATM   30  C29 UNK     1      21.760  13.345   7.238  1.00  0.00     0.048 C 
ENDBRANCH   9  19
BRANCH   4  31
HETATM   31  C8  UNK     1      11.149   7.183   7.621  1.00  0.00    -0.053 A 
HETATM   32  C12 UNK     1      11.026   6.849   6.273  1.00  0.00     0.007 A 
HETATM   33  C19 UNK     1       9.869   6.217   5.817  1.00  0.00     0.001 A 
HETATM   34  C24 UNK     1       8.838   5.922   6.708  1.00  0.00     0.000 A 
HETATM   35  C20 UNK     1       8.962   6.258   8.055  1.00  0.00     0.001 A 
HETATM   36  C13 UNK     1      10.119   6.889   8.512  1.00  0.00     0.007 A 
ENDBRANCH   4  31
TORSDOF 2
ENDMDL
MODEL 3
REMARK VINA RESULT:      -8.9      5.022      8.102
REMARK  2 active torsions:
REMARK  status: ('A' for Active; 'I' for Inactive)
REMARK    1  A    between atoms: C1_6  and  C8_13 
REMARK    2  A    between atoms: C6_11  and  C9_14 
ROOT
HETATM    1  O1  UNK     1      27.653 -10.608  39.159  1.00  0.00    -0.293 OA
HETATM    2  N1  UNK     1      28.407  -6.069  37.721  1.00  0.00    -0.357 N 
HETATM    3  N2  UNK     1      30.576  -7.968  38.582  1.00  0.00    -0.375 N 
HETATM    4  C1  UNK     1      25.302  -8.006  38.527  1.00  0.00     0.031 C 
HETATM    5  C2  UNK     1      26.235  -6.791  38.488  1.00  0.00     0.067 C 
HETATM    6  C3  UNK     1      28.165  -8.396  38.411  1.00  0.00     0.037 C 
HETATM    7  C4  UNK     1      27.693  -7.145  38.216  1.00  0.00     0.022 C 
HETATM    8  C5  UNK     1      25.882  -9.054  39.466  1.00  0.00     0.093 C 
HETATM    9  C6  UNK     1      29.554  -8.847  38.041  1.00  0.00     0.160 C 
HETATM   10  C7  UNK     1      27.263  -9.451  39.003  1.00  0.00     0.160 C 
HETATM   11  C10 UNK     1      29.789  -5.789  37.717  1.00  0.00     0.059 A 
HETATM   12  C11 UNK     1      30.791  -6.656  38.186  1.00  0.00     0.055 A 
HETATM   13  C16 UNK     1      30.168  -4.507  37.253  1.00  0.00     0.032 A 
HETATM   14  C17 UNK     1      32.125  -6.188  38.217  1.00  0.00     0.031 A 
HETATM   15  C22 UNK     1      31.492  -4.075  37.276  1.00  0.00     0.002 A 
HETATM   16  C23 UNK     1      32.474  -4.916  37.769  1.00  0.00     0.002 A 
HETATM   17  H7  UNK     1      27.830  -5.287  37.422  1.00  0.00     0.166 HD
HETATM   18  H8  UNK     1      31.350  -8.425  39.055  1.00  0.00     0.160 HD
ENDROOT
BRANCH   9  19
HETATM   19  C9  UNK     1      29.736  -9.036  36.563  1.00  0.00     0.042 A 
HETATM   20  C14 UNK     1      31.070  -9.454  36.060  1.00  0.00     0.195 A 
HETATM   21  O3  UNK     1      32.017  -9.646  36.811  1.00  0.00    -0.287 OA
HETATM   22  C18 UNK     1      31.192  -9.624  34.600  1.00  0.00     0.049 A 
HETATM   23  C21 UNK     1      30.079  -9.390  33.794  1.00  0.00     0.089 A 
HETATM   24  C25 UNK     1      32.406 -10.016  34.029  1.00  0.00     0.025 A 
HETATM   25  O2  UNK     1      28.864  -9.006  34.301  1.00  0.00    -0.321 OA
HETATM   26  C26 UNK     1      30.173  -9.546  32.410  1.00  0.00     0.039 A 
HETATM   27  C15 UNK     1      28.764  -8.851  35.662  1.00  0.00     0.156 A 
HETATM   28  C28 UNK     1      31.383  -9.937  31.838  1.00  0.00     0.009 A 
HETATM   29  C27 UNK     1      32.498 -10.171  32.646  1.00  0.00    -0.061 A 
HETATM   30  C29 UNK     1      33.790 -10.589  32.027  1.00  0.00     0.048 C 
ENDBRANCH   9  19
BRANCH   4  31
HETATM   31  C8  UNK     1      23.883  -7.619  38.897  1.00  0.00    -0.053 A 
HETATM   32  C12 UNK     1      23.024  -8.571  39.443  1.00  0.00     0.007 A 
HETATM   33  C19 UNK     1      21.718  -8.216  39.782  1.00  0.00     0.001 A 
HETATM   34  C24 UNK     1      21.274  -6.910  39.574  1.00  0.00     0.000 A 
HETATM   35  C20 UNK     1      22.135  -5.959  39.026  1.00  0.00     0.001 A 
HETATM   36  C13 UNK     1      23.440  -6.315  38.688  1.00  0.00     0.007 A 
ENDBRANCH   4  31
TORSDOF 2
ENDMDL
MODEL 4
REMARK VINA RESULT:      -8.8      1.168      1.686
REMARK  2 active torsions:
REMARK  status: ('A' for Active; 'I' for Inactive)
REMARK    1  A    between atoms: C1_6  and  C8_13 
REMARK    2  A    between atoms: C6_11  and  C9_14 
ROOT
HETATM    1  O1  UNK     1      33.905  -7.962  34.311  1.00  0.00    -0.293 OA
HETATM    2  N1  UNK     1      29.391  -8.310  32.656  1.00  0.00    -0.357 N 
HETATM    3  N2  UNK     1      31.858  -8.717  30.982  1.00  0.00    -0.375 N 
HETATM    4  C1  UNK     1      30.833  -7.102  35.897  1.00  0.00     0.031 C 
HETATM    5  C2  UNK     1      29.886  -7.112  34.693  1.00  0.00     0.067 C 
HETATM    6  C3  UNK     1      31.718  -8.220  33.382  1.00  0.00     0.037 C 
HETATM    7  C4  UNK     1      30.408  -7.917  33.507  1.00  0.00     0.022 C 
HETATM    8  C5  UNK     1      32.229  -6.709  35.434  1.00  0.00     0.093 C 
HETATM    9  C6  UNK     1      32.284  -9.118  32.311  1.00  0.00     0.160 C 
HETATM   10  C7  UNK     1      32.710  -7.674  34.379  1.00  0.00     0.160 C 
HETATM   11  C10 UNK     1      29.406  -8.677  31.295  1.00  0.00     0.059 A 
HETATM   12  C11 UNK     1      30.559  -8.799  30.502  1.00  0.00     0.055 A 
HETATM   13  C16 UNK     1      28.144  -8.881  30.687  1.00  0.00     0.032 A 
HETATM   14  C17 UNK     1      30.403  -9.070  29.123  1.00  0.00     0.031 A 
HETATM   15  C22 UNK     1      28.015  -9.166  29.329  1.00  0.00     0.002 A 
HETATM   16  C23 UNK     1      29.150  -9.252  28.542  1.00  0.00     0.002 A 
HETATM   17  H7  UNK     1      28.457  -8.192  33.039  1.00  0.00     0.166 HD
HETATM   18  H8  UNK     1      32.591  -8.653  30.281  1.00  0.00     0.160 HD
ENDROOT
BRANCH   9  19
HETATM   19  C9  UNK     1      31.996 -10.571  32.552  1.00  0.00     0.042 A 
HETATM   20  C14 UNK     1      32.438 -11.559  31.535  1.00  0.00     0.195 A 
HETATM   21  O3  UNK     1      33.025 -11.224  30.514  1.00  0.00    -0.287 OA
HETATM   22  C18 UNK     1      32.130 -12.973  31.821  1.00  0.00     0.049 A 
HETATM   23  C21 UNK     1      31.458 -13.295  33.000  1.00  0.00     0.089 A 
HETATM   24  C25 UNK     1      32.505 -13.979  30.926  1.00  0.00     0.025 A 
HETATM   25  O2  UNK     1      31.068 -12.350  33.914  1.00  0.00    -0.321 OA
HETATM   26  C26 UNK     1      31.157 -14.627  33.291  1.00  0.00     0.039 A 
HETATM   27  C15 UNK     1      31.362 -11.037  33.635  1.00  0.00     0.156 A 
HETATM   28  C28 UNK     1      31.529 -15.632  32.399  1.00  0.00     0.009 A 
HETATM   29  C27 UNK     1      32.202 -15.308  31.219  1.00  0.00    -0.061 A 
HETATM   30  C29 UNK     1      32.598 -16.389  30.270  1.00  0.00     0.048 C 
ENDBRANCH   9  19
BRANCH   4  31
HETATM   31  C8  UNK     1      30.321  -6.213  37.014  1.00  0.00    -0.053 A 
HETATM   32  C12 UNK     1      29.552  -6.760  38.040  1.00  0.00     0.007 A 
HETATM   33  C19 UNK     1      29.080  -5.942  39.067  1.00  0.00     0.001 A 
HETATM   34  C24 UNK     1      29.378  -4.580  39.066  1.00  0.00     0.000 A 
HETATM   35  C20 UNK     1      30.147  -4.034  38.039  1.00  0.00     0.001 A 
HETATM   36  C13 UNK     1      30.619  -4.851  37.012  1.00  0.00     0.007 A 
ENDBRANCH   4  31
TORSDOF 2
ENDMDL
MODEL 5
REMARK VINA RESULT:      -8.7      1.703      2.280
REMARK  2 active torsions:
REMARK  status: ('A' for Active; 'I' for Inactive)
REMARK    1  A    between atoms: C1_6  and  C8_13 
REMARK    2  A    between atoms: C6_11  and  C9_14 
ROOT
HETATM    1  O1  UNK     1      34.061  -6.313  33.716  1.00  0.00    -0.293 OA
HETATM    2  N1  UNK     1      29.698  -8.054  32.635  1.00  0.00    -0.357 N 
HETATM    3  N2  UNK     1      31.923  -7.670  30.645  1.00  0.00    -0.375 N 
HETATM    4  C1  UNK     1      31.115  -6.456  35.715  1.00  0.00     0.031 C 
HETATM    5  C2  UNK     1      30.066  -6.763  34.641  1.00  0.00     0.067 C 
HETATM    6  C3  UNK     1      31.958  -7.242  33.063  1.00  0.00     0.037 C 
HETATM    7  C4  UNK     1      30.647  -7.363  33.366  1.00  0.00     0.022 C 
HETATM    8  C5  UNK     1      32.245  -5.647  35.095  1.00  0.00     0.093 C 
HETATM    9  C6  UNK     1      32.625  -7.918  31.892  1.00  0.00     0.160 C 
HETATM   10  C7  UNK     1      32.856  -6.413  33.947  1.00  0.00     0.160 C 
HETATM   11  C10 UNK     1      29.644  -8.399  31.269  1.00  0.00     0.059 A 
HETATM   12  C11 UNK     1      30.661  -8.153  30.331  1.00  0.00     0.055 A 
HETATM   13  C16 UNK     1      28.438  -8.987  30.819  1.00  0.00     0.032 A 
HETATM   14  C17 UNK     1      30.413  -8.460  28.973  1.00  0.00     0.031 A 
HETATM   15  C22 UNK     1      28.223  -9.298  29.477  1.00  0.00     0.002 A 
HETATM   16  C23 UNK     1      29.213  -9.025  28.549  1.00  0.00     0.002 A 
HETATM   17  H7  UNK     1      28.833  -8.235  33.138  1.00  0.00     0.166 HD
HETATM   18  H8  UNK     1      32.499  -7.379  29.861  1.00  0.00     0.160 HD
ENDROOT
BRANCH   9  19
HETATM   19  C9  UNK     1      32.837  -9.388  32.106  1.00  0.00     0.042 A 
HETATM   20  C14 UNK     1      33.425 -10.188  31.001  1.00  0.00     0.195 A 
HETATM   21  O3  UNK     1      33.738  -9.686  29.930  1.00  0.00    -0.287 OA
HETATM   22  C18 UNK     1      33.611 -11.627  31.265  1.00  0.00     0.049 A 
HETATM   23  C21 UNK     1      33.235 -12.144  32.505  1.00  0.00     0.089 A 
HETATM   24  C25 UNK     1      34.157 -12.465  30.289  1.00  0.00     0.025 A 
HETATM   25  O2  UNK     1      32.696 -11.368  33.499  1.00  0.00    -0.321 OA
HETATM   26  C26 UNK     1      33.403 -13.503  32.776  1.00  0.00     0.039 A 
HETATM   27  C15 UNK     1      32.528 -10.029  33.240  1.00  0.00     0.156 A 
HETATM   28  C28 UNK     1      33.947 -14.341  31.803  1.00  0.00     0.009 A 
HETATM   29  C27 UNK     1      34.323 -13.823  30.562  1.00  0.00    -0.061 A 
HETATM   30  C29 UNK     1      34.906 -14.725  29.526  1.00  0.00     0.048 C 
ENDBRANCH   9  19
BRANCH   4  31
HETATM   31  C8  UNK     1      30.507  -5.772  36.924  1.00  0.00    -0.053 A 
HETATM   32  C12 UNK     1      29.689  -6.494  37.791  1.00  0.00     0.007 A 
HETATM   33  C19 UNK     1      29.129  -5.865  38.903  1.00  0.00     0.001 A 
HETATM   34  C24 UNK     1      29.387  -4.516  39.145  1.00  0.00     0.000 A 
HETATM   35  C20 UNK     1      30.206  -3.795  38.276  1.00  0.00     0.001 A 
HETATM   36  C13 UNK     1      30.766  -4.424  37.164  1.00  0.00     0.007 A 
ENDBRANCH   4  31
TORSDOF 2
ENDMDL
MODEL 6
REMARK VINA RESULT:      -8.6      3.662      7.544
REMARK  2 active torsions:
REMARK  status: ('A' for Active; 'I' for Inactive)
REMARK    1  A    between atoms: C1_6  and  C8_13 
REMARK    2  A    between atoms: C6_11  and  C9_14 
ROOT
HETATM    1  O1  UNK     1      35.298  -6.631  31.414  1.00  0.00    -0.293 OA
HETATM    2  N1  UNK     1      33.421  -9.855  34.467  1.00  0.00    -0.357 N 
HETATM    3  N2  UNK     1      32.656  -6.946  34.375  1.00  0.00    -0.375 N 
HETATM    4  C1  UNK     1      36.303  -9.984  32.075  1.00  0.00     0.031 C 
HETATM    5  C2  UNK     1      35.536 -10.254  33.374  1.00  0.00     0.067 C 
HETATM    6  C3  UNK     1      34.249  -8.142  32.940  1.00  0.00     0.037 C 
HETATM    7  C4  UNK     1      34.350  -9.322  33.592  1.00  0.00     0.022 C 
HETATM    8  C5  UNK     1      36.642  -8.503  31.991  1.00  0.00     0.093 C 
HETATM    9  C6  UNK     1      33.047  -7.235  33.006  1.00  0.00     0.160 C 
HETATM   10  C7  UNK     1      35.376  -7.683  32.049  1.00  0.00     0.160 C 
HETATM   11  C10 UNK     1      32.434  -9.242  35.265  1.00  0.00     0.059 A 
HETATM   12  C11 UNK     1      32.129  -7.870  35.265  1.00  0.00     0.055 A 
HETATM   13  C16 UNK     1      31.746 -10.086  36.170  1.00  0.00     0.032 A 
HETATM   14  C17 UNK     1      31.187  -7.390  36.203  1.00  0.00     0.031 A 
HETATM   15  C22 UNK     1      30.806  -9.592  37.073  1.00  0.00     0.002 A 
HETATM   16  C23 UNK     1      30.532  -8.236  37.095  1.00  0.00     0.002 A 
HETATM   17  H7  UNK     1      33.555 -10.843  34.667  1.00  0.00     0.166 HD
HETATM   18  H8  UNK     1      32.485  -5.968  34.591  1.00  0.00     0.160 HD
ENDROOT
BRANCH   9  19
HETATM   19  C9  UNK     1      31.882  -7.746  32.211  1.00  0.00     0.042 A 
HETATM   20  C14 UNK     1      30.637  -6.936  32.177  1.00  0.00     0.195 A 
HETATM   21  O3  UNK     1      30.536  -5.873  32.775  1.00  0.00    -0.287 OA
HETATM   22  C18 UNK     1      29.523  -7.485  31.380  1.00  0.00     0.049 A 
HETATM   23  C21 UNK     1      29.696  -8.701  30.720  1.00  0.00     0.089 A 
HETATM   24  C25 UNK     1      28.310  -6.798  31.285  1.00  0.00     0.025 A 
HETATM   25  O2  UNK     1      30.864  -9.417  30.778  1.00  0.00    -0.321 OA
HETATM   26  C26 UNK     1      28.655  -9.238  29.961  1.00  0.00     0.039 A 
HETATM   27  C15 UNK     1      31.893  -8.894  31.523  1.00  0.00     0.156 A 
HETATM   28  C28 UNK     1      27.443  -8.554  29.865  1.00  0.00     0.009 A 
HETATM   29  C27 UNK     1      27.271  -7.337  30.526  1.00  0.00    -0.061 A 
HETATM   30  C29 UNK     1      25.972  -6.610  30.418  1.00  0.00     0.048 C 
ENDBRANCH   9  19
BRANCH   4  31
HETATM   31  C8  UNK     1      37.530 -10.868  31.947  1.00  0.00    -0.053 A 
HETATM   32  C12 UNK     1      37.825 -11.794  32.946  1.00  0.00     0.007 A 
HETATM   33  C19 UNK     1      38.953 -12.606  32.829  1.00  0.00     0.001 A 
HETATM   34  C24 UNK     1      39.783 -12.490  31.714  1.00  0.00     0.000 A 
HETATM   35  C20 UNK     1      39.486 -11.563  30.716  1.00  0.00     0.001 A 
HETATM   36  C13 UNK     1      38.358 -10.751  30.833  1.00  0.00     0.007 A 
ENDBRANCH   4  31
TORSDOF 2
ENDMDL
MODEL 7
REMARK VINA RESULT:      -8.6      3.253      4.471
REMARK  2 active torsions:
REMARK  status: ('A' for Active; 'I' for Inactive)
REMARK    1  A    between atoms: C1_6  and  C8_13 
REMARK    2  A    between atoms: C6_11  and  C9_14 
ROOT
HETATM    1  O1  UNK     1      32.749  -5.676  35.116  1.00  0.00    -0.293 OA
HETATM    2  N1  UNK     1      30.068  -8.985  32.856  1.00  0.00    -0.357 N 
HETATM    3  N2  UNK     1      31.801  -6.954  31.467  1.00  0.00    -0.375 N 
HETATM    4  C1  UNK     1      30.279  -7.881  36.431  1.00  0.00     0.031 C 
HETATM    5  C2  UNK     1      29.603  -8.346  35.137  1.00  0.00     0.067 C 
HETATM    6  C3  UNK     1      31.510  -7.304  33.879  1.00  0.00     0.037 C 
HETATM    7  C4  UNK     1      30.464  -8.159  33.892  1.00  0.00     0.022 C 
HETATM    8  C5  UNK     1      30.812  -6.468  36.239  1.00  0.00     0.093 C 
HETATM    9  C6  UNK     1      32.480  -7.166  32.734  1.00  0.00     0.160 C 
HETATM   10  C7  UNK     1      31.782  -6.438  35.085  1.00  0.00     0.160 C 
HETATM   11  C10 UNK     1      30.260  -8.888  31.463  1.00  0.00     0.059 A 
HETATM   12  C11 UNK     1      31.015  -7.895  30.817  1.00  0.00     0.055 A 
HETATM   13  C16 UNK     1      29.582  -9.844  30.669  1.00  0.00     0.032 A 
HETATM   14  C17 UNK     1      31.023  -7.868  29.403  1.00  0.00     0.031 A 
HETATM   15  C22 UNK     1      29.620  -9.808  29.276  1.00  0.00     0.002 A 
HETATM   16  C23 UNK     1      30.337  -8.810  28.641  1.00  0.00     0.002 A 
HETATM   17  H7  UNK     1      29.421  -9.719  33.131  1.00  0.00     0.166 HD
HETATM   18  H8  UNK     1      32.157  -6.195  30.894  1.00  0.00     0.160 HD
ENDROOT
BRANCH   9  19
HETATM   19  C9  UNK     1      33.446  -8.310  32.641  1.00  0.00     0.042 A 
HETATM   20  C14 UNK     1      34.464  -8.293  31.560  1.00  0.00     0.195 A 
HETATM   21  O3  UNK     1      34.536  -7.380  30.748  1.00  0.00    -0.287 OA
HETATM   22  C18 UNK     1      35.388  -9.442  31.515  1.00  0.00     0.049 A 
HETATM   23  C21 UNK     1      35.258 -10.454  32.466  1.00  0.00     0.089 A 
HETATM   24  C25 UNK     1      36.382  -9.519  30.536  1.00  0.00     0.025 A 
HETATM   25  O2  UNK     1      34.303 -10.430  33.449  1.00  0.00    -0.321 OA
HETATM   26  C26 UNK     1      36.122 -11.550  32.442  1.00  0.00     0.039 A 
HETATM   27  C15 UNK     1      33.449  -9.354  33.479  1.00  0.00     0.156 A 
HETATM   28  C28 UNK     1      37.114 -11.629  31.465  1.00  0.00     0.009 A 
HETATM   29  C27 UNK     1      37.243 -10.615  30.514  1.00  0.00    -0.061 A 
HETATM   30  C29 UNK     1      38.308 -10.706  29.472  1.00  0.00     0.048 C 
ENDBRANCH   9  19
BRANCH   4  31
HETATM   31  C8  UNK     1      29.352  -7.994  37.627  1.00  0.00    -0.053 A 
HETATM   32  C12 UNK     1      28.873  -9.243  38.018  1.00  0.00     0.007 A 
HETATM   33  C19 UNK     1      28.021  -9.347  39.117  1.00  0.00     0.001 A 
HETATM   34  C24 UNK     1      27.650  -8.203  39.823  1.00  0.00     0.000 A 
HETATM   35  C20 UNK     1      28.130  -6.954  39.430  1.00  0.00     0.001 A 
HETATM   36  C13 UNK     1      28.982  -6.850  38.331  1.00  0.00     0.007 A 
ENDBRANCH   4  31
TORSDOF 2
ENDMDL
MODEL 8
REMARK VINA RESULT:      -8.5     32.753     35.546
REMARK  2 active torsions:
REMARK  status: ('A' for Active; 'I' for Inactive)
REMARK    1  A    between atoms: C1_6  and  C8_13 
REMARK    2  A    between atoms: C6_11  and  C9_14 
ROOT
HETATM    1  O1  UNK     1      17.715   8.244  10.089  1.00  0.00    -0.293 OA
HETATM    2  N1  UNK     1      14.659  11.904   9.378  1.00  0.00    -0.357 N 
HETATM    3  N2  UNK     1      17.148  12.062  11.063  1.00  0.00    -0.375 N 
HETATM    4  C1  UNK     1      14.500   8.251   8.555  1.00  0.00     0.031 C 
HETATM    5  C2  UNK     1      13.977   9.617   9.011  1.00  0.00     0.067 C 
HETATM    6  C3  UNK     1      16.311  10.151   9.768  1.00  0.00     0.037 C 
HETATM    7  C4  UNK     1      15.076  10.586   9.434  1.00  0.00     0.022 C 
HETATM    8  C5  UNK     1      15.453   7.702   9.607  1.00  0.00     0.093 C 
HETATM    9  C6  UNK     1      17.478  11.056  10.068  1.00  0.00     0.160 C 
HETATM   10  C7  UNK     1      16.592   8.669   9.823  1.00  0.00     0.160 C 
HETATM   11  C10 UNK     1      15.134  13.059  10.032  1.00  0.00     0.059 A 
HETATM   12  C11 UNK     1      16.258  13.109  10.873  1.00  0.00     0.055 A 
HETATM   13  C16 UNK     1      14.368  14.236   9.857  1.00  0.00     0.032 A 
HETATM   14  C17 UNK     1      16.544  14.321  11.543  1.00  0.00     0.031 A 
HETATM   15  C22 UNK     1      14.680  15.425  10.514  1.00  0.00     0.002 A 
HETATM   16  C23 UNK     1      15.768  15.464  11.369  1.00  0.00     0.002 A 
HETATM   17  H7  UNK     1      13.784  12.044   8.880  1.00  0.00     0.166 HD
HETATM   18  H8  UNK     1      17.815  12.173  11.821  1.00  0.00     0.160 HD
ENDROOT
BRANCH   9  19
HETATM   19  C9  UNK     1      18.062  11.688   8.839  1.00  0.00     0.042 A 
HETATM   20  C14 UNK     1      19.293  12.506   8.978  1.00  0.00     0.195 A 
HETATM   21  O3  UNK     1      19.841  12.678  10.059  1.00  0.00    -0.287 OA
HETATM   22  C18 UNK     1      19.824  13.104   7.738  1.00  0.00     0.049 A 
HETATM   23  C21 UNK     1      19.157  12.874   6.535  1.00  0.00     0.089 A 
HETATM   24  C25 UNK     1      20.979  13.890   7.764  1.00  0.00     0.025 A 
HETATM   25  O2  UNK     1      18.021  12.111   6.451  1.00  0.00    -0.321 OA
HETATM   26  C26 UNK     1      19.642  13.430   5.350  1.00  0.00     0.039 A 
HETATM   27  C15 UNK     1      17.538  11.560   7.613  1.00  0.00     0.156 A 
HETATM   28  C28 UNK     1      20.794  14.215   5.374  1.00  0.00     0.009 A 
HETATM   29  C27 UNK     1      21.461  14.444   6.579  1.00  0.00    -0.061 A 
HETATM   30  C29 UNK     1      22.694  15.285   6.597  1.00  0.00     0.048 C 
ENDBRANCH   9  19
BRANCH   4  31
HETATM   31  C8  UNK     1      13.371   7.289   8.237  1.00  0.00    -0.053 A 
HETATM   32  C12 UNK     1      13.617   5.917   8.204  1.00  0.00     0.007 A 
HETATM   33  C19 UNK     1      12.580   5.032   7.911  1.00  0.00     0.001 A 
HETATM   34  C24 UNK     1      11.299   5.520   7.653  1.00  0.00     0.000 A 
HETATM   35  C20 UNK     1      11.055   6.893   7.686  1.00  0.00     0.001 A 
HETATM   36  C13 UNK     1      12.092   7.778   7.979  1.00  0.00     0.007 A 
ENDBRANCH   4  31
TORSDOF 2
ENDMDL
MODEL 9
REMARK VINA RESULT:      -8.5      4.046      8.095
REMARK  2 active torsions:
REMARK  status: ('A' for Active; 'I' for Inactive)
REMARK    1  A    between atoms: C1_6  and  C8_13 
REMARK    2  A    between atoms: C6_11  and  C9_14 
ROOT
HETATM    1  O1  UNK     1      27.755  -6.038  33.409  1.00  0.00    -0.293 OA
HETATM    2  N1  UNK     1      32.382  -7.386  33.475  1.00  0.00    -0.357 N 
HETATM    3  N2  UNK     1      31.241  -5.124  35.099  1.00  0.00    -0.375 N 
HETATM    4  C1  UNK     1      29.481  -8.332  31.300  1.00  0.00     0.031 C 
HETATM    5  C2  UNK     1      30.934  -7.981  31.638  1.00  0.00     0.067 C 
HETATM    6  C3  UNK     1      30.060  -6.645  33.576  1.00  0.00     0.037 C 
HETATM    7  C4  UNK     1      31.099  -7.266  32.975  1.00  0.00     0.022 C 
HETATM    8  C5  UNK     1      28.615  -7.090  31.462  1.00  0.00     0.093 C 
HETATM    9  C6  UNK     1      30.118  -6.033  34.952  1.00  0.00     0.160 C 
HETATM   10  C7  UNK     1      28.728  -6.566  32.872  1.00  0.00     0.160 C 
HETATM   11  C10 UNK     1      33.098  -6.599  34.400  1.00  0.00     0.059 A 
HETATM   12  C11 UNK     1      32.576  -5.501  35.104  1.00  0.00     0.055 A 
HETATM   13  C16 UNK     1      34.464  -6.926  34.575  1.00  0.00     0.032 A 
HETATM   14  C17 UNK     1      33.452  -4.743  35.916  1.00  0.00     0.031 A 
HETATM   15  C22 UNK     1      35.304  -6.175  35.397  1.00  0.00     0.002 A 
HETATM   16  C23 UNK     1      34.797  -5.074  36.063  1.00  0.00     0.002 A 
HETATM   17  H7  UNK     1      32.951  -8.083  33.003  1.00  0.00     0.166 HD
HETATM   18  H8  UNK     1      31.029  -4.219  35.510  1.00  0.00     0.160 HD
ENDROOT
BRANCH   9  19
HETATM   19  C9  UNK     1      30.108  -7.056  36.050  1.00  0.00     0.042 A 
HETATM   20  C14 UNK     1      28.817  -7.373  36.712  1.00  0.00     0.195 A 
HETATM   21  O3  UNK     1      27.769  -6.827  36.390  1.00  0.00    -0.287 OA
HETATM   22  C18 UNK     1      28.864  -8.385  37.784  1.00  0.00     0.049 A 
HETATM   23  C21 UNK     1      30.086  -8.974  38.108  1.00  0.00     0.089 A 
HETATM   24  C25 UNK     1      27.702  -8.754  38.467  1.00  0.00     0.025 A 
HETATM   25  O2  UNK     1      31.257  -8.652  37.469  1.00  0.00    -0.321 OA
HETATM   26  C26 UNK     1      30.154  -9.934  39.118  1.00  0.00     0.039 A 
HETATM   27  C15 UNK     1      31.198  -7.708  36.473  1.00  0.00     0.156 A 
HETATM   28  C28 UNK     1      28.996 -10.303  39.802  1.00  0.00     0.009 A 
HETATM   29  C27 UNK     1      27.772  -9.713  39.477  1.00  0.00    -0.061 A 
HETATM   30  C29 UNK     1      26.537 -10.113  40.212  1.00  0.00     0.048 C 
ENDBRANCH   9  19
BRANCH   4  31
HETATM   31  C8  UNK     1      29.353  -8.952  29.922  1.00  0.00    -0.053 A 
HETATM   32  C12 UNK     1      28.115  -9.417  29.482  1.00  0.00     0.007 A 
HETATM   33  C19 UNK     1      27.997  -9.989  28.215  1.00  0.00     0.001 A 
HETATM   34  C24 UNK     1      29.117 -10.094  27.391  1.00  0.00     0.000 A 
HETATM   35  C20 UNK     1      30.355  -9.628  27.833  1.00  0.00     0.001 A 
HETATM   36  C13 UNK     1      30.473  -9.057  29.099  1.00  0.00     0.007 A 
ENDBRANCH   4  31
TORSDOF 2
ENDMDL
MODEL 10
REMARK VINA RESULT:      -8.5     31.026     33.373
REMARK  2 active torsions:
REMARK  status: ('A' for Active; 'I' for Inactive)
REMARK    1  A    between atoms: C1_6  and  C8_13 
REMARK    2  A    between atoms: C6_11  and  C9_14 
ROOT
HETATM    1  O1  UNK     1      19.432  11.260   7.372  1.00  0.00    -0.293 OA
HETATM    2  N1  UNK     1      17.217  12.309  11.522  1.00  0.00    -0.357 N 
HETATM    3  N2  UNK     1      15.856  12.210   8.840  1.00  0.00    -0.375 N 
HETATM    4  C1  UNK     1      20.823  11.899  10.589  1.00  0.00     0.031 C 
HETATM    5  C2  UNK     1      19.612  12.513  11.298  1.00  0.00     0.067 C 
HETATM    6  C3  UNK     1      18.207  11.737   9.367  1.00  0.00     0.037 C 
HETATM    7  C4  UNK     1      18.277  12.169  10.646  1.00  0.00     0.022 C 
HETATM    8  C5  UNK     1      20.748  12.217   9.102  1.00  0.00     0.093 C 
HETATM    9  C6  UNK     1      16.943  11.256   8.702  1.00  0.00     0.160 C 
HETATM   10  C7  UNK     1      19.459  11.683   8.527  1.00  0.00     0.160 C 
HETATM   11  C10 UNK     1      15.840  12.509  11.295  1.00  0.00     0.059 A 
HETATM   12  C11 UNK     1      15.223  12.530  10.032  1.00  0.00     0.055 A 
HETATM   13  C16 UNK     1      15.046  12.763  12.438  1.00  0.00     0.032 A 
HETATM   14  C17 UNK     1      13.848  12.852   9.960  1.00  0.00     0.031 A 
HETATM   15  C22 UNK     1      13.688  13.059  12.344  1.00  0.00     0.002 A 
HETATM   16  C23 UNK     1      13.088  13.113  11.098  1.00  0.00     0.002 A 
HETATM   17  H7  UNK     1      17.491  12.412  12.496  1.00  0.00     0.166 HD
HETATM   18  H8  UNK     1      15.346  12.428   7.989  1.00  0.00     0.160 HD
ENDROOT
BRANCH   9  19
HETATM   19  C9  UNK     1      16.521   9.891   9.160  1.00  0.00     0.042 A 
HETATM   20  C14 UNK     1      15.250   9.329   8.637  1.00  0.00     0.195 A 
HETATM   21  O3  UNK     1      14.542   9.943   7.849  1.00  0.00    -0.287 OA
HETATM   22  C18 UNK     1      14.883   7.984   9.119  1.00  0.00     0.049 A 
HETATM   23  C21 UNK     1      15.728   7.332  10.017  1.00  0.00     0.089 A 
HETATM   24  C25 UNK     1      13.706   7.368   8.685  1.00  0.00     0.025 A 
HETATM   25  O2  UNK     1      16.895   7.888  10.475  1.00  0.00    -0.321 OA
HETATM   26  C26 UNK     1      15.400   6.059  10.486  1.00  0.00     0.039 A 
HETATM   27  C15 UNK     1      17.224   9.141  10.017  1.00  0.00     0.156 A 
HETATM   28  C28 UNK     1      14.226   5.443  10.055  1.00  0.00     0.009 A 
HETATM   29  C27 UNK     1      13.381   6.097   9.156  1.00  0.00    -0.061 A 
HETATM   30  C29 UNK     1      12.126   5.431   8.698  1.00  0.00     0.048 C 
ENDBRANCH   9  19
BRANCH   4  31
HETATM   31  C8  UNK     1      22.132  12.345  11.212  1.00  0.00    -0.053 A 
HETATM   32  C12 UNK     1      22.204  12.575  12.584  1.00  0.00     0.007 A 
HETATM   33  C19 UNK     1      23.407  12.986  13.158  1.00  0.00     0.001 A 
HETATM   34  C24 UNK     1      24.536  13.166  12.358  1.00  0.00     0.000 A 
HETATM   35  C20 UNK     1      24.461  12.936  10.984  1.00  0.00     0.001 A 
HETATM   36  C13 UNK     1      23.258  12.525  10.411  1.00  0.00     0.007 A 
ENDBRANCH   4  31
TORSDOF 2
ENDMDL
