MODEL 1
REMARK VINA RESULT:      -9.4      0.000      0.000
REMARK  5 active torsions:
REMARK  status: ('A' for Active; 'I' for Inactive)
REMARK    1  A    between atoms: C13_17  and  O2_2 
REMARK    2  A    between atoms: C17_21  and  O2_2 
REMARK    3  A    between atoms: C5_9  and  O3_3 
REMARK    4  A    between atoms: C3_7  and  C4_8 
REMARK    5  A    between atoms: C17_21  and  C18_22 
ROOT
HETATM    1  O1  UNK     1      17.091   7.396  32.552  1.00  0.00    -0.306 OA
HETATM    2  O4  UNK     1      20.289   9.136  34.381  1.00  0.00    -0.284 OA
HETATM    3  C1  UNK     1      18.019   9.286  33.757  1.00  0.00     0.051 A 
HETATM    4  C2  UNK     1      16.966   8.639  33.117  1.00  0.00     0.091 A 
HETATM    5  C3  UNK     1      18.315   6.752  32.635  1.00  0.00     0.123 A 
HETATM    6  C5  UNK     1      19.411   7.270  33.217  1.00  0.00     0.152 A 
HETATM    7  C6  UNK     1      19.325   8.615  33.836  1.00  0.00     0.220 A 
HETATM    8  C7  UNK     1      15.717   9.256  33.028  1.00  0.00     0.045 A 
HETATM    9  C8  UNK     1      15.528  10.522  33.582  1.00  0.00    -0.059 A 
HETATM   10  C9  UNK     1      17.833  10.554  34.315  1.00  0.00     0.019 A 
HETATM   11  C10 UNK     1      16.584  11.169  34.225  1.00  0.00     0.008 A 
HETATM   12  C16 UNK     1      14.196  11.185  33.487  1.00  0.00     0.048 C 
ENDROOT
BRANCH   5  13
HETATM   13  C4  UNK     1      18.312   5.427  31.991  1.00  0.00     0.001 A 
HETATM   14  C11 UNK     1      18.656   5.304  30.644  1.00  0.00     0.017 A 
HETATM   15  C14 UNK     1      18.653   4.050  30.035  1.00  0.00     0.037 A 
HETATM   16  C13 UNK     1      18.308   2.917  30.772  1.00  0.00     0.069 A 
HETATM   17  C15 UNK     1      17.964   3.039  32.118  1.00  0.00     0.037 A 
HETATM   18  C12 UNK     1      17.966   4.294  32.727  1.00  0.00     0.017 A 
BRANCH  16  19
HETATM   19  O2  UNK     1      18.305   1.693  30.176  1.00  0.00    -0.347 OA
BRANCH  19  20
HETATM   20  C17 UNK     1      19.513   1.277  29.542  1.00  0.00     0.214 C 
BRANCH  20  21
HETATM   21  C18 UNK     1      19.892  -0.082  30.053  1.00  0.00    -0.034 A 
HETATM   22  C19 UNK     1      20.536  -0.979  29.210  1.00  0.00     0.009 A 
HETATM   23  C21 UNK     1      20.890  -2.243  29.685  1.00  0.00     0.001 A 
HETATM   24  C23 UNK     1      20.596  -2.599  31.002  1.00  0.00     0.000 A 
HETATM   25  C22 UNK     1      19.948  -1.693  31.842  1.00  0.00     0.001 A 
HETATM   26  C20 UNK     1      19.596  -0.430  31.366  1.00  0.00     0.009 A 
ENDBRANCH  20  21
ENDBRANCH  19  20
ENDBRANCH  16  19
ENDBRANCH   5  13
BRANCH   6  27
HETATM   27  O3  UNK     1      20.624   6.616  33.253  1.00  0.00    -0.355 OA
HETATM   28  H13 UNK     1      20.508   5.727  33.625  1.00  0.00     0.218 HD
ENDBRANCH   6  27
TORSDOF 5
ENDMDL
MODEL 2
REMARK VINA RESULT:      -9.4      1.684      9.743
REMARK  5 active torsions:
REMARK  status: ('A' for Active; 'I' for Inactive)
REMARK    1  A    between atoms: C13_17  and  O2_2 
REMARK    2  A    between atoms: C17_21  and  O2_2 
REMARK    3  A    between atoms: C5_9  and  O3_3 
REMARK    4  A    between atoms: C3_7  and  C4_8 
REMARK    5  A    between atoms: C17_21  and  C18_22 
ROOT
HETATM    1  O1  UNK     1      19.509   1.260  31.275  1.00  0.00    -0.306 OA
HETATM    2  O4  UNK     1      18.934  -0.208  27.518  1.00  0.00    -0.284 OA
HETATM    3  C1  UNK     1      19.679  -0.597  29.722  1.00  0.00     0.051 A 
HETATM    4  C2  UNK     1      19.852  -0.035  30.984  1.00  0.00     0.091 A 
HETATM    5  C3  UNK     1      18.955   2.038  30.272  1.00  0.00     0.123 A 
HETATM    6  C5  UNK     1      18.744   1.620  29.010  1.00  0.00     0.152 A 
HETATM    7  C6  UNK     1      19.105   0.229  28.648  1.00  0.00     0.220 A 
HETATM    8  C7  UNK     1      20.396  -0.797  32.019  1.00  0.00     0.045 A 
HETATM    9  C8  UNK     1      20.766  -2.122  31.784  1.00  0.00    -0.059 A 
HETATM   10  C9  UNK     1      20.047  -1.923  29.484  1.00  0.00     0.019 A 
HETATM   11  C10 UNK     1      20.591  -2.684  30.519  1.00  0.00     0.008 A 
HETATM   12  C16 UNK     1      21.350  -2.938  32.887  1.00  0.00     0.048 C 
ENDROOT
BRANCH   5  13
HETATM   13  C4  UNK     1      18.632   3.405  30.716  1.00  0.00     0.001 A 
HETATM   14  C11 UNK     1      17.904   3.605  31.889  1.00  0.00     0.017 A 
HETATM   15  C14 UNK     1      17.599   4.900  32.310  1.00  0.00     0.037 A 
HETATM   16  C13 UNK     1      18.024   5.996  31.558  1.00  0.00     0.069 A 
HETATM   17  C15 UNK     1      18.752   5.796  30.385  1.00  0.00     0.037 A 
HETATM   18  C12 UNK     1      19.056   4.501  29.964  1.00  0.00     0.017 A 
BRANCH  16  19
HETATM   19  O2  UNK     1      17.726   7.258  31.968  1.00  0.00    -0.347 OA
BRANCH  19  20
HETATM   20  C17 UNK     1      17.581   7.467  33.372  1.00  0.00     0.214 C 
BRANCH  20  21
HETATM   21  C18 UNK     1      18.450   8.618  33.788  1.00  0.00    -0.034 A 
HETATM   22  C19 UNK     1      19.745   8.377  34.234  1.00  0.00     0.009 A 
HETATM   23  C21 UNK     1      20.554   9.446  34.620  1.00  0.00     0.001 A 
HETATM   24  C23 UNK     1      20.061  10.750  34.557  1.00  0.00     0.000 A 
HETATM   25  C22 UNK     1      18.761  10.984  34.110  1.00  0.00     0.001 A 
HETATM   26  C20 UNK     1      17.953   9.915  33.724  1.00  0.00     0.009 A 
ENDBRANCH  20  21
ENDBRANCH  19  20
ENDBRANCH  16  19
ENDBRANCH   5  13
BRANCH   6  27
HETATM   27  O3  UNK     1      18.220   2.431  28.027  1.00  0.00    -0.355 OA
HETATM   28  H13 UNK     1      18.007   3.303  28.397  1.00  0.00     0.218 HD
ENDBRANCH   6  27
TORSDOF 5
ENDMDL
MODEL 3
REMARK VINA RESULT:      -9.3      0.888      1.669
REMARK  5 active torsions:
REMARK  status: ('A' for Active; 'I' for Inactive)
REMARK    1  A    between atoms: C13_17  and  O2_2 
REMARK    2  A    between atoms: C17_21  and  O2_2 
REMARK    3  A    between atoms: C5_9  and  O3_3 
REMARK    4  A    between atoms: C3_7  and  C4_8 
REMARK    5  A    between atoms: C17_21  and  C18_22 
ROOT
HETATM    1  O1  UNK     1      16.676   7.987  32.527  1.00  0.00    -0.306 OA
HETATM    2  O4  UNK     1      19.314  10.215  34.690  1.00  0.00    -0.284 OA
HETATM    3  C1  UNK     1      17.131   9.985  33.826  1.00  0.00     0.051 A 
HETATM    4  C2  UNK     1      16.279   9.179  33.076  1.00  0.00     0.091 A 
HETATM    5  C3  UNK     1      17.977   7.561  32.741  1.00  0.00     0.123 A 
HETATM    6  C5  UNK     1      18.900   8.248  33.437  1.00  0.00     0.152 A 
HETATM    7  C6  UNK     1      18.518   9.546  34.044  1.00  0.00     0.220 A 
HETATM    8  C7  UNK     1      14.960   9.575  32.854  1.00  0.00     0.045 A 
HETATM    9  C8  UNK     1      14.497  10.779  33.386  1.00  0.00    -0.059 A 
HETATM   10  C9  UNK     1      16.672  11.192  34.362  1.00  0.00     0.019 A 
HETATM   11  C10 UNK     1      15.352  11.585  34.139  1.00  0.00     0.008 A 
HETATM   12  C16 UNK     1      13.089  11.206  33.149  1.00  0.00     0.048 C 
ENDROOT
BRANCH   5  13
HETATM   13  C4  UNK     1      18.271   6.268  32.099  1.00  0.00     0.001 A 
HETATM   14  C11 UNK     1      17.944   5.076  32.745  1.00  0.00     0.017 A 
HETATM   15  C14 UNK     1      18.222   3.852  32.137  1.00  0.00     0.037 A 
HETATM   16  C13 UNK     1      18.828   3.820  30.881  1.00  0.00     0.069 A 
HETATM   17  C15 UNK     1      19.155   5.011  30.233  1.00  0.00     0.037 A 
HETATM   18  C12 UNK     1      18.877   6.235  30.843  1.00  0.00     0.017 A 
BRANCH  16  19
HETATM   19  O2  UNK     1      19.100   2.625  30.288  1.00  0.00    -0.347 OA
BRANCH  19  20
HETATM   20  C17 UNK     1      18.535   1.460  30.887  1.00  0.00     0.214 C 
BRANCH  20  21
HETATM   21  C18 UNK     1      19.369   0.267  30.518  1.00  0.00    -0.034 A 
HETATM   22  C19 UNK     1      19.543  -0.761  31.437  1.00  0.00     0.009 A 
HETATM   23  C21 UNK     1      20.317  -1.870  31.095  1.00  0.00     0.001 A 
HETATM   24  C23 UNK     1      20.911  -1.943  29.835  1.00  0.00     0.000 A 
HETATM   25  C22 UNK     1      20.732  -0.907  28.917  1.00  0.00     0.001 A 
HETATM   26  C20 UNK     1      19.958   0.202  29.261  1.00  0.00     0.009 A 
ENDBRANCH  20  21
ENDBRANCH  19  20
ENDBRANCH  16  19
ENDBRANCH   5  13
BRANCH   6  27
HETATM   27  O3  UNK     1      20.197   7.811  33.603  1.00  0.00    -0.355 OA
HETATM   28  H13 UNK     1      20.622   8.306  34.322  1.00  0.00     0.218 HD
ENDBRANCH   6  27
TORSDOF 5
ENDMDL
MODEL 4
REMARK VINA RESULT:      -9.2      1.430      9.750
REMARK  5 active torsions:
REMARK  status: ('A' for Active; 'I' for Inactive)
REMARK    1  A    between atoms: C13_17  and  O2_2 
REMARK    2  A    between atoms: C17_21  and  O2_2 
REMARK    3  A    between atoms: C5_9  and  O3_3 
REMARK    4  A    between atoms: C3_7  and  C4_8 
REMARK    5  A    between atoms: C17_21  and  C18_22 
ROOT
HETATM    1  O1  UNK     1      19.531   1.414  31.267  1.00  0.00    -0.306 OA
HETATM    2  O4  UNK     1      18.772  -0.014  27.527  1.00  0.00    -0.284 OA
HETATM    3  C1  UNK     1      19.586  -0.438  29.700  1.00  0.00     0.051 A 
HETATM    4  C2  UNK     1      19.822   0.111  30.958  1.00  0.00     0.091 A 
HETATM    5  C3  UNK     1      18.963   2.215  30.289  1.00  0.00     0.123 A 
HETATM    6  C5  UNK     1      18.693   1.811  29.034  1.00  0.00     0.152 A 
HETATM    7  C6  UNK     1      18.998   0.411  28.652  1.00  0.00     0.220 A 
HETATM    8  C7  UNK     1      20.381  -0.674  31.968  1.00  0.00     0.045 A 
HETATM    9  C8  UNK     1      20.701  -2.008  31.713  1.00  0.00    -0.059 A 
HETATM   10  C9  UNK     1      19.904  -1.774  29.441  1.00  0.00     0.019 A 
HETATM   11  C10 UNK     1      20.461  -2.557  30.453  1.00  0.00     0.008 A 
HETATM   12  C16 UNK     1      21.299  -2.848  32.789  1.00  0.00     0.048 C 
ENDROOT
BRANCH   5  13
HETATM   13  C4  UNK     1      18.700   3.588  30.751  1.00  0.00     0.001 A 
HETATM   14  C11 UNK     1      19.106   4.676  29.979  1.00  0.00     0.017 A 
HETATM   15  C14 UNK     1      18.857   5.977  30.418  1.00  0.00     0.037 A 
HETATM   16  C13 UNK     1      18.199   6.190  31.630  1.00  0.00     0.069 A 
HETATM   17  C15 UNK     1      17.793   5.102  32.403  1.00  0.00     0.037 A 
HETATM   18  C12 UNK     1      18.043   3.802  31.964  1.00  0.00     0.017 A 
BRANCH  16  19
HETATM   19  O2  UNK     1      17.957   7.458  32.058  1.00  0.00    -0.347 OA
BRANCH  19  20
HETATM   20  C17 UNK     1      17.931   7.674  33.468  1.00  0.00     0.214 C 
BRANCH  20  21
HETATM   21  C18 UNK     1      16.670   8.403  33.829  1.00  0.00    -0.034 A 
HETATM   22  C19 UNK     1      16.742   9.701  34.320  1.00  0.00     0.009 A 
HETATM   23  C21 UNK     1      15.569  10.379  34.656  1.00  0.00     0.001 A 
HETATM   24  C23 UNK     1      14.333   9.753  34.497  1.00  0.00     0.000 A 
HETATM   25  C22 UNK     1      14.268   8.449  34.004  1.00  0.00     0.001 A 
HETATM   26  C20 UNK     1      15.441   7.772  33.669  1.00  0.00     0.009 A 
ENDBRANCH  20  21
ENDBRANCH  19  20
ENDBRANCH  16  19
ENDBRANCH   5  13
BRANCH   6  27
HETATM   27  O3  UNK     1      18.159   2.643  28.074  1.00  0.00    -0.355 OA
HETATM   28  H13 UNK     1      18.295   3.570  28.330  1.00  0.00     0.218 HD
ENDBRANCH   6  27
TORSDOF 5
ENDMDL
MODEL 5
REMARK VINA RESULT:      -9.2      1.503      2.961
REMARK  5 active torsions:
REMARK  status: ('A' for Active; 'I' for Inactive)
REMARK    1  A    between atoms: C13_17  and  O2_2 
REMARK    2  A    between atoms: C17_21  and  O2_2 
REMARK    3  A    between atoms: C5_9  and  O3_3 
REMARK    4  A    between atoms: C3_7  and  C4_8 
REMARK    5  A    between atoms: C17_21  and  C18_22 
ROOT
HETATM    1  O1  UNK     1      17.773   8.777  32.971  1.00  0.00    -0.306 OA
HETATM    2  O4  UNK     1      13.755   9.447  33.072  1.00  0.00    -0.284 OA
HETATM    3  C1  UNK     1      15.923  10.222  33.584  1.00  0.00     0.051 A 
HETATM    4  C2  UNK     1      17.283   9.934  33.521  1.00  0.00     0.091 A 
HETATM    5  C3  UNK     1      16.874   7.864  32.443  1.00  0.00     0.123 A 
HETATM    6  C5  UNK     1      15.538   8.018  32.449  1.00  0.00     0.152 A 
HETATM    7  C6  UNK     1      14.962   9.250  33.040  1.00  0.00     0.220 A 
HETATM    8  C7  UNK     1      18.214  10.839  34.033  1.00  0.00     0.045 A 
HETATM    9  C8  UNK     1      17.777  12.033  34.607  1.00  0.00    -0.059 A 
HETATM   10  C9  UNK     1      15.481  11.418  34.158  1.00  0.00     0.019 A 
HETATM   11  C10 UNK     1      16.413  12.322  34.668  1.00  0.00     0.008 A 
HETATM   12  C16 UNK     1      18.768  13.002  35.156  1.00  0.00     0.048 C 
ENDROOT
BRANCH   5  13
HETATM   13  C4  UNK     1      17.530   6.670  31.884  1.00  0.00     0.001 A 
HETATM   14  C11 UNK     1      18.202   6.748  30.664  1.00  0.00     0.017 A 
HETATM   15  C14 UNK     1      18.823   5.617  30.135  1.00  0.00     0.037 A 
HETATM   16  C13 UNK     1      18.774   4.406  30.826  1.00  0.00     0.069 A 
HETATM   17  C15 UNK     1      18.102   4.327  32.047  1.00  0.00     0.037 A 
HETATM   18  C12 UNK     1      17.480   5.459  32.575  1.00  0.00     0.017 A 
BRANCH  16  19
HETATM   19  O2  UNK     1      19.379   3.303  30.310  1.00  0.00    -0.347 OA
BRANCH  19  20
HETATM   20  C17 UNK     1      18.538   2.330  29.690  1.00  0.00     0.214 C 
BRANCH  20  21
HETATM   21  C18 UNK     1      19.217   0.993  29.740  1.00  0.00    -0.034 A 
HETATM   22  C19 UNK     1      19.678   0.499  30.954  1.00  0.00     0.009 A 
HETATM   23  C21 UNK     1      20.308  -0.745  31.001  1.00  0.00     0.001 A 
HETATM   24  C23 UNK     1      20.473  -1.486  29.831  1.00  0.00     0.000 A 
HETATM   25  C22 UNK     1      20.009  -0.984  28.615  1.00  0.00     0.001 A 
HETATM   26  C20 UNK     1      19.379   0.259  28.569  1.00  0.00     0.009 A 
ENDBRANCH  20  21
ENDBRANCH  19  20
ENDBRANCH  16  19
ENDBRANCH   5  13
BRANCH   6  27
HETATM   27  O3  UNK     1      14.669   7.074  31.945  1.00  0.00    -0.355 OA
HETATM   28  H13 UNK     1      15.082   6.613  31.197  1.00  0.00     0.218 HD
ENDBRANCH   6  27
TORSDOF 5
ENDMDL
MODEL 6
REMARK VINA RESULT:      -9.0      7.176     11.489
REMARK  5 active torsions:
REMARK  status: ('A' for Active; 'I' for Inactive)
REMARK    1  A    between atoms: C13_17  and  O2_2 
REMARK    2  A    between atoms: C17_21  and  O2_2 
REMARK    3  A    between atoms: C5_9  and  O3_3 
REMARK    4  A    between atoms: C3_7  and  C4_8 
REMARK    5  A    between atoms: C17_21  and  C18_22 
ROOT
HETATM    1  O1  UNK     1      20.191  -3.238  34.622  1.00  0.00    -0.306 OA
HETATM    2  O4  UNK     1      17.799  -0.139  35.754  1.00  0.00    -0.284 OA
HETATM    3  C1  UNK     1      19.053  -1.174  34.045  1.00  0.00     0.051 A 
HETATM    4  C2  UNK     1      19.866  -2.257  33.721  1.00  0.00     0.091 A 
HETATM    5  C3  UNK     1      19.675  -3.154  35.905  1.00  0.00     0.123 A 
HETATM    6  C5  UNK     1      18.887  -2.158  36.347  1.00  0.00     0.152 A 
HETATM    7  C6  UNK     1      18.515  -1.071  35.410  1.00  0.00     0.220 A 
HETATM    8  C7  UNK     1      20.390  -2.376  32.433  1.00  0.00     0.045 A 
HETATM    9  C8  UNK     1      20.096  -1.408  31.472  1.00  0.00    -0.059 A 
HETATM   10  C9  UNK     1      18.756  -0.203  33.084  1.00  0.00     0.019 A 
HETATM   11  C10 UNK     1      19.280  -0.325  31.797  1.00  0.00     0.008 A 
HETATM   12  C16 UNK     1      20.656  -1.532  30.096  1.00  0.00     0.048 C 
ENDROOT
BRANCH   5  13
HETATM   13  C4  UNK     1      20.100  -4.269  36.769  1.00  0.00     0.001 A 
HETATM   14  C11 UNK     1      19.283  -5.391  36.915  1.00  0.00     0.017 A 
HETATM   15  C14 UNK     1      19.685  -6.446  37.733  1.00  0.00     0.037 A 
HETATM   16  C13 UNK     1      20.906  -6.382  38.405  1.00  0.00     0.069 A 
HETATM   17  C15 UNK     1      21.723  -5.260  38.260  1.00  0.00     0.037 A 
HETATM   18  C12 UNK     1      21.320  -4.205  37.442  1.00  0.00     0.017 A 
BRANCH  16  19
HETATM   19  O2  UNK     1      21.298  -7.412  39.204  1.00  0.00    -0.347 OA
BRANCH  19  20
HETATM   20  C17 UNK     1      22.443  -8.155  38.790  1.00  0.00     0.214 C 
BRANCH  20  21
HETATM   21  C18 UNK     1      22.030  -9.152  37.747  1.00  0.00    -0.034 A 
HETATM   22  C19 UNK     1      22.767  -9.266  36.574  1.00  0.00     0.009 A 
HETATM   23  C21 UNK     1      22.384 -10.193  35.604  1.00  0.00     0.001 A 
HETATM   24  C23 UNK     1      21.266 -11.000  35.816  1.00  0.00     0.000 A 
HETATM   25  C22 UNK     1      20.530 -10.879  36.995  1.00  0.00     0.001 A 
HETATM   26  C20 UNK     1      20.914  -9.952  37.964  1.00  0.00     0.009 A 
ENDBRANCH  20  21
ENDBRANCH  19  20
ENDBRANCH  16  19
ENDBRANCH   5  13
BRANCH   6  27
HETATM   27  O3  UNK     1      18.418  -2.087  37.641  1.00  0.00    -0.355 OA
HETATM   28  H13 UNK     1      18.925  -1.426  38.139  1.00  0.00     0.218 HD
ENDBRANCH   6  27
TORSDOF 5
ENDMDL
MODEL 7
REMARK VINA RESULT:      -8.9      2.081      3.732
REMARK  5 active torsions:
REMARK  status: ('A' for Active; 'I' for Inactive)
REMARK    1  A    between atoms: C13_17  and  O2_2 
REMARK    2  A    between atoms: C17_21  and  O2_2 
REMARK    3  A    between atoms: C5_9  and  O3_3 
REMARK    4  A    between atoms: C3_7  and  C4_8 
REMARK    5  A    between atoms: C17_21  and  C18_22 
ROOT
HETATM    1  O1  UNK     1      17.769  10.064  33.496  1.00  0.00    -0.306 OA
HETATM    2  O4  UNK     1      14.313  10.338  35.638  1.00  0.00    -0.284 OA
HETATM    3  C1  UNK     1      16.231  11.421  34.793  1.00  0.00     0.051 A 
HETATM    4  C2  UNK     1      17.399  11.261  34.052  1.00  0.00     0.091 A 
HETATM    5  C3  UNK     1      16.935   8.970  33.668  1.00  0.00     0.123 A 
HETATM    6  C5  UNK     1      15.787   8.988  34.367  1.00  0.00     0.152 A 
HETATM    7  C6  UNK     1      15.350  10.260  34.992  1.00  0.00     0.220 A 
HETATM    8  C7  UNK     1      18.252  12.347  33.851  1.00  0.00     0.045 A 
HETATM    9  C8  UNK     1      17.931  13.592  34.394  1.00  0.00    -0.059 A 
HETATM   10  C9  UNK     1      15.906  12.666  35.338  1.00  0.00     0.019 A 
HETATM   11  C10 UNK     1      16.759  13.751  35.135  1.00  0.00     0.008 A 
HETATM   12  C16 UNK     1      18.841  14.754  34.182  1.00  0.00     0.048 C 
ENDROOT
BRANCH   5  13
HETATM   13  C4  UNK     1      17.448   7.750  33.020  1.00  0.00     0.001 A 
HETATM   14  C11 UNK     1      17.933   6.698  33.796  1.00  0.00     0.017 A 
HETATM   15  C14 UNK     1      18.418   5.543  33.182  1.00  0.00     0.037 A 
HETATM   16  C13 UNK     1      18.418   5.440  31.791  1.00  0.00     0.069 A 
HETATM   17  C15 UNK     1      17.933   6.492  31.014  1.00  0.00     0.037 A 
HETATM   18  C12 UNK     1      17.448   7.647  31.629  1.00  0.00     0.017 A 
BRANCH  16  19
HETATM   19  O2  UNK     1      18.892   4.313  31.193  1.00  0.00    -0.347 OA
BRANCH  19  20
HETATM   20  C17 UNK     1      18.298   3.075  31.578  1.00  0.00     0.214 C 
BRANCH  20  21
HETATM   21  C18 UNK     1      18.624   2.034  30.547  1.00  0.00    -0.034 A 
HETATM   22  C19 UNK     1      18.016   2.087  29.298  1.00  0.00     0.009 A 
HETATM   23  C21 UNK     1      18.320   1.120  28.340  1.00  0.00     0.001 A 
HETATM   24  C23 UNK     1      19.230   0.106  28.638  1.00  0.00     0.000 A 
HETATM   25  C22 UNK     1      19.835   0.057  29.894  1.00  0.00     0.001 A 
HETATM   26  C20 UNK     1      19.531   1.025  30.851  1.00  0.00     0.009 A 
ENDBRANCH  20  21
ENDBRANCH  19  20
ENDBRANCH  16  19
ENDBRANCH   5  13
BRANCH   6  27
HETATM   27  O3  UNK     1      14.997   7.873  34.547  1.00  0.00    -0.355 OA
HETATM   28  H13 UNK     1      15.544   7.072  34.503  1.00  0.00     0.218 HD
ENDBRANCH   6  27
TORSDOF 5
ENDMDL
MODEL 8
REMARK VINA RESULT:      -8.6      7.362     11.104
REMARK  5 active torsions:
REMARK  status: ('A' for Active; 'I' for Inactive)
REMARK    1  A    between atoms: C13_17  and  O2_2 
REMARK    2  A    between atoms: C17_21  and  O2_2 
REMARK    3  A    between atoms: C5_9  and  O3_3 
REMARK    4  A    between atoms: C3_7  and  C4_8 
REMARK    5  A    between atoms: C17_21  and  C18_22 
ROOT
HETATM    1  O1  UNK     1      18.836  -2.238  37.018  1.00  0.00    -0.306 OA
HETATM    2  O4  UNK     1      19.661  -1.529  33.091  1.00  0.00    -0.284 OA
HETATM    3  C1  UNK     1      18.678  -0.766  35.096  1.00  0.00     0.051 A 
HETATM    4  C2  UNK     1      18.426  -1.069  36.431  1.00  0.00     0.091 A 
HETATM    5  C3  UNK     1      19.543  -3.150  36.251  1.00  0.00     0.123 A 
HETATM    6  C5  UNK     1      19.843  -2.984  34.951  1.00  0.00     0.152 A 
HETATM    7  C6  UNK     1      19.414  -1.737  34.272  1.00  0.00     0.220 A 
HETATM    8  C7  UNK     1      17.727  -0.165  37.232  1.00  0.00     0.045 A 
HETATM    9  C8  UNK     1      17.283   1.042  36.691  1.00  0.00    -0.059 A 
HETATM   10  C9  UNK     1      18.235   0.442  34.550  1.00  0.00     0.019 A 
HETATM   11  C10 UNK     1      17.537   1.345  35.353  1.00  0.00     0.008 A 
HETATM   12  C16 UNK     1      16.534   2.009  37.544  1.00  0.00     0.048 C 
ENDROOT
BRANCH   5  13
HETATM   13  C4  UNK     1      19.923  -4.359  37.002  1.00  0.00     0.001 A 
HETATM   14  C11 UNK     1      19.048  -5.443  37.072  1.00  0.00     0.017 A 
HETATM   15  C14 UNK     1      19.408  -6.588  37.783  1.00  0.00     0.037 A 
HETATM   16  C13 UNK     1      20.646  -6.650  38.425  1.00  0.00     0.069 A 
HETATM   17  C15 UNK     1      21.522  -5.566  38.356  1.00  0.00     0.037 A 
HETATM   18  C12 UNK     1      21.160  -4.421  37.645  1.00  0.00     0.017 A 
BRANCH  16  19
HETATM   19  O2  UNK     1      20.997  -7.766  39.118  1.00  0.00    -0.347 OA
BRANCH  19  20
HETATM   20  C17 UNK     1      22.206  -8.418  38.732  1.00  0.00     0.214 C 
BRANCH  20  21
HETATM   21  C18 UNK     1      21.914  -9.362  37.603  1.00  0.00    -0.034 A 
HETATM   22  C19 UNK     1      22.766  -9.406  36.506  1.00  0.00     0.009 A 
HETATM   23  C21 UNK     1      22.496 -10.285  35.456  1.00  0.00     0.001 A 
HETATM   24  C23 UNK     1      21.375 -11.113  35.512  1.00  0.00     0.000 A 
HETATM   25  C22 UNK     1      20.525 -11.064  36.616  1.00  0.00     0.001 A 
HETATM   26  C20 UNK     1      20.795 -10.185  37.665  1.00  0.00     0.009 A 
ENDBRANCH  20  21
ENDBRANCH  19  20
ENDBRANCH  16  19
ENDBRANCH   5  13
BRANCH   6  27
HETATM   27  O3  UNK     1      20.520  -3.927  34.208  1.00  0.00    -0.355 OA
HETATM   28  H13 UNK     1      20.501  -4.783  34.666  1.00  0.00     0.218 HD
ENDBRANCH   6  27
TORSDOF 5
ENDMDL
MODEL 9
REMARK VINA RESULT:      -8.6      1.937      9.601
REMARK  5 active torsions:
REMARK  status: ('A' for Active; 'I' for Inactive)
REMARK    1  A    between atoms: C13_17  and  O2_2 
REMARK    2  A    between atoms: C17_21  and  O2_2 
REMARK    3  A    between atoms: C5_9  and  O3_3 
REMARK    4  A    between atoms: C3_7  and  C4_8 
REMARK    5  A    between atoms: C17_21  and  C18_22 
ROOT
HETATM    1  O1  UNK     1      18.056   3.198  33.258  1.00  0.00    -0.306 OA
HETATM    2  O4  UNK     1      19.270   1.589  29.717  1.00  0.00    -0.284 OA
HETATM    3  C1  UNK     1      18.703   1.240  31.980  1.00  0.00     0.051 A 
HETATM    4  C2  UNK     1      18.289   1.850  33.161  1.00  0.00     0.091 A 
HETATM    5  C3  UNK     1      18.227   3.982  32.129  1.00  0.00     0.123 A 
HETATM    6  C5  UNK     1      18.632   3.519  30.933  1.00  0.00     0.152 A 
HETATM    7  C6  UNK     1      18.902   2.068  30.781  1.00  0.00     0.220 A 
HETATM    8  C7  UNK     1      18.096   1.086  34.312  1.00  0.00     0.045 A 
HETATM    9  C8  UNK     1      18.318  -0.291  34.276  1.00  0.00    -0.059 A 
HETATM   10  C9  UNK     1      18.927  -0.139  31.940  1.00  0.00     0.019 A 
HETATM   11  C10 UNK     1      18.732  -0.902  33.091  1.00  0.00     0.008 A 
HETATM   12  C16 UNK     1      18.114  -1.111  35.504  1.00  0.00     0.048 C 
ENDROOT
BRANCH   5  13
HETATM   13  C4  UNK     1      17.944   5.407  32.370  1.00  0.00     0.001 A 
HETATM   14  C11 UNK     1      18.946   6.248  32.854  1.00  0.00     0.017 A 
HETATM   15  C14 UNK     1      18.677   7.597  33.082  1.00  0.00     0.037 A 
HETATM   16  C13 UNK     1      17.404   8.107  32.826  1.00  0.00     0.069 A 
HETATM   17  C15 UNK     1      16.401   7.267  32.343  1.00  0.00     0.037 A 
HETATM   18  C12 UNK     1      16.671   5.918  32.115  1.00  0.00     0.017 A 
BRANCH  16  19
HETATM   19  O2  UNK     1      17.142   9.424  33.050  1.00  0.00    -0.347 OA
BRANCH  19  20
HETATM   20  C17 UNK     1      16.718   9.787  34.363  1.00  0.00     0.214 C 
BRANCH  20  21
HETATM   21  C18 UNK     1      15.384  10.469  34.276  1.00  0.00    -0.034 A 
HETATM   22  C19 UNK     1      14.804  10.994  35.425  1.00  0.00     0.009 A 
HETATM   23  C21 UNK     1      13.564  11.628  35.345  1.00  0.00     0.001 A 
HETATM   24  C23 UNK     1      12.913  11.732  34.115  1.00  0.00     0.000 A 
HETATM   25  C22 UNK     1      13.501  11.201  32.967  1.00  0.00     0.001 A 
HETATM   26  C20 UNK     1      14.740  10.568  33.048  1.00  0.00     0.009 A 
ENDBRANCH  20  21
ENDBRANCH  19  20
ENDBRANCH  16  19
ENDBRANCH   5  13
BRANCH   6  27
HETATM   27  O3  UNK     1      18.825   4.332  29.837  1.00  0.00    -0.355 OA
HETATM   28  H13 UNK     1      18.633   3.839  29.023  1.00  0.00     0.218 HD
ENDBRANCH   6  27
TORSDOF 5
ENDMDL
MODEL 10
REMARK VINA RESULT:      -8.5      1.994      9.736
REMARK  5 active torsions:
REMARK  status: ('A' for Active; 'I' for Inactive)
REMARK    1  A    between atoms: C13_17  and  O2_2 
REMARK    2  A    between atoms: C17_21  and  O2_2 
REMARK    3  A    between atoms: C5_9  and  O3_3 
REMARK    4  A    between atoms: C3_7  and  C4_8 
REMARK    5  A    between atoms: C17_21  and  C18_22 
ROOT
HETATM    1  O1  UNK     1      18.102   3.184  33.290  1.00  0.00    -0.306 OA
HETATM    2  O4  UNK     1      19.246   1.551  29.737  1.00  0.00    -0.284 OA
HETATM    3  C1  UNK     1      18.679   1.211  32.001  1.00  0.00     0.051 A 
HETATM    4  C2  UNK     1      18.291   1.830  33.186  1.00  0.00     0.091 A 
HETATM    5  C3  UNK     1      18.293   3.967  32.163  1.00  0.00     0.123 A 
HETATM    6  C5  UNK     1      18.676   3.495  30.963  1.00  0.00     0.152 A 
HETATM    7  C6  UNK     1      18.899   2.038  30.805  1.00  0.00     0.220 A 
HETATM    8  C7  UNK     1      18.078   1.068  34.336  1.00  0.00     0.045 A 
HETATM    9  C8  UNK     1      18.255  -0.316  34.293  1.00  0.00    -0.059 A 
HETATM   10  C9  UNK     1      18.857  -0.174  31.955  1.00  0.00     0.019 A 
HETATM   11  C10 UNK     1      18.643  -0.935  33.104  1.00  0.00     0.008 A 
HETATM   12  C16 UNK     1      18.031  -1.133  35.520  1.00  0.00     0.048 C 
ENDROOT
BRANCH   5  13
HETATM   13  C4  UNK     1      18.057   5.399  32.411  1.00  0.00     0.001 A 
HETATM   14  C11 UNK     1      16.799   5.953  32.172  1.00  0.00     0.017 A 
HETATM   15  C14 UNK     1      16.576   7.309  32.407  1.00  0.00     0.037 A 
HETATM   16  C13 UNK     1      17.611   8.114  32.883  1.00  0.00     0.069 A 
HETATM   17  C15 UNK     1      18.870   7.562  33.123  1.00  0.00     0.037 A 
HETATM   18  C12 UNK     1      19.092   6.205  32.886  1.00  0.00     0.017 A 
BRANCH  16  19
HETATM   19  O2  UNK     1      17.393   9.437  33.112  1.00  0.00    -0.347 OA
BRANCH  19  20
HETATM   20  C17 UNK     1      16.099   9.811  33.582  1.00  0.00     0.214 C 
BRANCH  20  21
HETATM   21  C18 UNK     1      16.222  11.045  34.427  1.00  0.00    -0.034 A 
HETATM   22  C19 UNK     1      17.388  11.800  34.377  1.00  0.00     0.009 A 
HETATM   23  C21 UNK     1      17.502  12.948  35.161  1.00  0.00     0.001 A 
HETATM   24  C23 UNK     1      16.448  13.333  35.990  1.00  0.00     0.000 A 
HETATM   25  C22 UNK     1      15.281  12.570  36.036  1.00  0.00     0.001 A 
HETATM   26  C20 UNK     1      15.168  11.422  35.252  1.00  0.00     0.009 A 
ENDBRANCH  20  21
ENDBRANCH  19  20
ENDBRANCH  16  19
ENDBRANCH   5  13
BRANCH   6  27
HETATM   27  O3  UNK     1      18.890   4.306  29.869  1.00  0.00    -0.355 OA
HETATM   28  H13 UNK     1      19.767   4.127  29.492  1.00  0.00     0.218 HD
ENDBRANCH   6  27
TORSDOF 5
ENDMDL
