MODEL 1
REMARK VINA RESULT:     -10.2      0.000      0.000
REMARK  5 active torsions:
REMARK  status: ('A' for Active; 'I' for Inactive)
REMARK    1  A    between atoms: C1_11  and  S1_1 
REMARK    2  A    between atoms: N1_8  and  S1_1 
REMARK    3  A    between atoms: C12_22  and  N1_8 
REMARK       I    between atoms: C11_21  and  N2_9 
REMARK    4  A    between atoms: C2_12  and  N2_9 
REMARK    5  A    between atoms: C11_21  and  C8_18 
ROOT
HETATM    1  C1  UNK     1      21.051  -9.459  38.300  1.00  0.00     0.080 A 
HETATM    2  C2  UNK     1      23.509  -8.186  38.386  1.00  0.00     0.035 A 
HETATM    3  C3  UNK     1      21.882  -9.469  37.180  1.00  0.00     0.027 A 
HETATM    4  C4  UNK     1      21.459  -8.808  39.465  1.00  0.00     0.027 A 
HETATM    5  C5  UNK     1      23.119  -8.827  37.223  1.00  0.00     0.031 A 
HETATM    6  C6  UNK     1      22.697  -8.167  39.508  1.00  0.00     0.031 A 
ENDROOT
BRANCH   2   7
HETATM    7  N2  UNK     1      24.765  -7.534  38.430  1.00  0.00    -0.323 N 
HETATM    8  C11 UNK     1      25.959  -8.029  38.936  1.00  0.00     0.262 C 
HETATM    9  O5  UNK     1      26.168  -9.127  39.447  1.00  0.00    -0.267 OA
HETATM   10  H6  UNK     1      24.764  -6.604  38.017  1.00  0.00     0.169 HD
BRANCH   8  11
HETATM   11  C8  UNK     1      27.057  -7.064  38.808  1.00  0.00     0.108 A 
HETATM   12  C10 UNK     1      28.286  -7.579  38.685  1.00  0.00     0.037 A 
HETATM   13  C7  UNK     1      29.439  -6.702  38.553  1.00  0.00    -0.001 A 
HETATM   14  C14 UNK     1      30.740  -7.196  38.423  1.00  0.00     0.014 A 
HETATM   15  C9  UNK     1      29.241  -5.325  38.557  1.00  0.00     0.089 A 
HETATM   16  C17 UNK     1      31.814  -6.312  38.298  1.00  0.00     0.001 A 
HETATM   17  C18 UNK     1      31.596  -4.932  38.305  1.00  0.00     0.003 A 
HETATM   18  C15 UNK     1      30.303  -4.431  38.434  1.00  0.00     0.038 A 
HETATM   19  O1  UNK     1      27.946  -4.788  38.687  1.00  0.00    -0.274 OA
HETATM   20  C13 UNK     1      26.823  -5.602  38.814  1.00  0.00     0.304 A 
HETATM   21  O6  UNK     1      25.698  -5.126  38.928  1.00  0.00    -0.259 OA
ENDBRANCH   8  11
ENDBRANCH   2   7
BRANCH   1  22
HETATM   22  S1  UNK     1      19.502 -10.261  38.246  1.00  0.00     0.264 S 
HETATM   23  O2  UNK     1      19.484 -11.140  37.083  1.00  0.00    -0.200 OA
HETATM   24  O3  UNK     1      19.231 -10.816  39.567  1.00  0.00    -0.200 OA
BRANCH  22  25
HETATM   25  N1  UNK     1      18.452  -8.944  37.967  1.00  0.00    -0.262 N 
HETATM   26  H5  UNK     1      17.565  -8.916  38.486  1.00  0.00     0.180 HD
BRANCH  25  27
HETATM   27  C12 UNK     1      18.754  -7.817  37.166  1.00  0.00     0.167 A 
HETATM   28  N3  UNK     1      18.685  -7.843  35.840  1.00  0.00    -0.109 NA
HETATM   29  O4  UNK     1      19.050  -6.562  35.446  1.00  0.00    -0.216 OA
HETATM   30  C19 UNK     1      19.324  -5.816  36.547  1.00  0.00     0.079 A 
HETATM   31  C16 UNK     1      19.149  -6.575  37.673  1.00  0.00     0.087 A 
HETATM   32  C20 UNK     1      19.729  -4.425  36.312  1.00  0.00     0.079 C 
ENDBRANCH  25  27
ENDBRANCH  22  25
ENDBRANCH   1  22
TORSDOF 5
ENDMDL
MODEL 2
REMARK VINA RESULT:     -10.0      6.495     10.210
REMARK  5 active torsions:
REMARK  status: ('A' for Active; 'I' for Inactive)
REMARK    1  A    between atoms: C1_11  and  S1_1 
REMARK    2  A    between atoms: N1_8  and  S1_1 
REMARK    3  A    between atoms: C12_22  and  N1_8 
REMARK       I    between atoms: C11_21  and  N2_9 
REMARK    4  A    between atoms: C2_12  and  N2_9 
REMARK    5  A    between atoms: C11_21  and  C8_18 
ROOT
HETATM    1  C1  UNK     1      18.701  -0.105  36.034  1.00  0.00     0.080 A 
HETATM    2  C2  UNK     1      19.120  -2.833  36.255  1.00  0.00     0.035 A 
HETATM    3  C3  UNK     1      18.176  -0.807  37.120  1.00  0.00     0.027 A 
HETATM    4  C4  UNK     1      19.437  -0.779  35.060  1.00  0.00     0.027 A 
HETATM    5  C5  UNK     1      18.386  -2.180  37.231  1.00  0.00     0.031 A 
HETATM    6  C6  UNK     1      19.648  -2.154  35.171  1.00  0.00     0.031 A 
ENDROOT
BRANCH   2   7
HETATM    7  N2  UNK     1      19.333  -4.229  36.368  1.00  0.00    -0.323 N 
HETATM    8  C11 UNK     1      20.458  -4.876  36.860  1.00  0.00     0.262 C 
HETATM    9  O5  UNK     1      21.493  -4.374  37.295  1.00  0.00    -0.267 OA
HETATM   10  H6  UNK     1      18.545  -4.795  36.062  1.00  0.00     0.169 HD
BRANCH   8  11
HETATM   11  C8  UNK     1      20.317  -6.337  36.822  1.00  0.00     0.108 A 
HETATM   12  C10 UNK     1      20.069  -6.937  37.992  1.00  0.00     0.037 A 
HETATM   13  C7  UNK     1      19.914  -8.383  38.056  1.00  0.00    -0.001 A 
HETATM   14  C14 UNK     1      19.654  -9.051  39.256  1.00  0.00     0.014 A 
HETATM   15  C9  UNK     1      20.027  -9.124  36.885  1.00  0.00     0.089 A 
HETATM   16  C17 UNK     1      19.512 -10.441  39.265  1.00  0.00     0.001 A 
HETATM   17  C18 UNK     1      19.630 -11.169  38.078  1.00  0.00     0.003 A 
HETATM   18  C15 UNK     1      19.888 -10.511  36.879  1.00  0.00     0.038 A 
HETATM   19  O1  UNK     1      20.288  -8.487  35.657  1.00  0.00    -0.274 OA
HETATM   20  C13 UNK     1      20.441  -7.106  35.564  1.00  0.00     0.304 A 
HETATM   21  O6  UNK     1      20.670  -6.559  34.490  1.00  0.00    -0.259 OA
ENDBRANCH   8  11
ENDBRANCH   2   7
BRANCH   1  22
HETATM   22  S1  UNK     1      18.436   1.614  35.894  1.00  0.00     0.264 S 
HETATM   23  O2  UNK     1      17.380   1.990  36.826  1.00  0.00    -0.200 OA
HETATM   24  O3  UNK     1      19.731   2.281  35.971  1.00  0.00    -0.200 OA
BRANCH  22  25
HETATM   25  N1  UNK     1      17.840   1.733  34.299  1.00  0.00    -0.262 N 
HETATM   26  H5  UNK     1      17.221   0.986  33.959  1.00  0.00     0.180 HD
BRANCH  25  27
HETATM   27  C12 UNK     1      18.029   2.840  33.438  1.00  0.00     0.167 A 
HETATM   28  N3  UNK     1      17.955   2.737  32.115  1.00  0.00    -0.109 NA
HETATM   29  O4  UNK     1      18.195   4.024  31.652  1.00  0.00    -0.216 OA
HETATM   30  C19 UNK     1      18.404   4.850  32.709  1.00  0.00     0.079 A 
HETATM   31  C16 UNK     1      18.308   4.138  33.875  1.00  0.00     0.087 A 
HETATM   32  C20 UNK     1      18.674   6.259  32.398  1.00  0.00     0.079 C 
ENDBRANCH  25  27
ENDBRANCH  22  25
ENDBRANCH   1  22
TORSDOF 5
ENDMDL
MODEL 3
REMARK VINA RESULT:      -9.8      6.131      9.495
REMARK  5 active torsions:
REMARK  status: ('A' for Active; 'I' for Inactive)
REMARK    1  A    between atoms: C1_11  and  S1_1 
REMARK    2  A    between atoms: N1_8  and  S1_1 
REMARK    3  A    between atoms: C12_22  and  N1_8 
REMARK       I    between atoms: C11_21  and  N2_9 
REMARK    4  A    between atoms: C2_12  and  N2_9 
REMARK    5  A    between atoms: C11_21  and  C8_18 
ROOT
HETATM    1  C1  UNK     1      17.980  -0.535  35.668  1.00  0.00     0.080 A 
HETATM    2  C2  UNK     1      19.347  -2.912  36.055  1.00  0.00     0.035 A 
HETATM    3  C3  UNK     1      17.812  -1.252  36.853  1.00  0.00     0.027 A 
HETATM    4  C4  UNK     1      18.837  -1.015  34.678  1.00  0.00     0.027 A 
HETATM    5  C5  UNK     1      18.500  -2.449  37.048  1.00  0.00     0.031 A 
HETATM    6  C6  UNK     1      19.526  -2.213  34.873  1.00  0.00     0.031 A 
ENDROOT
BRANCH   2   7
HETATM    7  N2  UNK     1      20.046  -4.127  36.253  1.00  0.00    -0.323 N 
HETATM    8  C11 UNK     1      19.508  -5.385  36.489  1.00  0.00     0.262 C 
HETATM    9  O5  UNK     1      18.322  -5.698  36.576  1.00  0.00    -0.267 OA
HETATM   10  H6  UNK     1      21.058  -4.039  36.190  1.00  0.00     0.169 HD
BRANCH   8  11
HETATM   11  C8  UNK     1      20.545  -6.411  36.645  1.00  0.00     0.108 A 
HETATM   12  C10 UNK     1      20.445  -7.479  35.844  1.00  0.00     0.037 A 
HETATM   13  C7  UNK     1      21.426  -8.550  35.924  1.00  0.00    -0.001 A 
HETATM   14  C14 UNK     1      21.361  -9.682  35.107  1.00  0.00     0.014 A 
HETATM   15  C9  UNK     1      22.464  -8.444  36.843  1.00  0.00     0.089 A 
HETATM   16  C17 UNK     1      22.328 -10.684  35.222  1.00  0.00     0.001 A 
HETATM   17  C18 UNK     1      23.364 -10.560  36.152  1.00  0.00     0.003 A 
HETATM   18  C15 UNK     1      23.437  -9.434  36.969  1.00  0.00     0.038 A 
HETATM   19  O1  UNK     1      22.565  -7.318  37.684  1.00  0.00    -0.274 OA
HETATM   20  C13 UNK     1      21.641  -6.277  37.630  1.00  0.00     0.304 A 
HETATM   21  O6  UNK     1      21.736  -5.301  38.366  1.00  0.00    -0.259 OA
ENDBRANCH   8  11
ENDBRANCH   2   7
BRANCH   1  22
HETATM   22  S1  UNK     1      17.117   0.963  35.424  1.00  0.00     0.264 S 
HETATM   23  O2  UNK     1      16.088   0.737  34.418  1.00  0.00    -0.200 OA
HETATM   24  O3  UNK     1      16.740   1.487  36.731  1.00  0.00    -0.200 OA
BRANCH  22  25
HETATM   25  N1  UNK     1      18.341   1.949  34.759  1.00  0.00    -0.262 N 
HETATM   26  H5  UNK     1      19.298   1.838  35.117  1.00  0.00     0.180 HD
BRANCH  25  27
HETATM   27  C12 UNK     1      18.174   2.830  33.663  1.00  0.00     0.167 A 
HETATM   28  N3  UNK     1      17.875   2.402  32.441  1.00  0.00    -0.109 NA
HETATM   29  O4  UNK     1      17.801   3.558  31.675  1.00  0.00    -0.216 OA
HETATM   30  C19 UNK     1      18.057   4.635  32.463  1.00  0.00     0.079 A 
HETATM   31  C16 UNK     1      18.302   4.219  33.745  1.00  0.00     0.087 A 
HETATM   32  C20 UNK     1      18.019   5.949  31.810  1.00  0.00     0.079 C 
ENDBRANCH  25  27
ENDBRANCH  22  25
ENDBRANCH   1  22
TORSDOF 5
ENDMDL
MODEL 4
REMARK VINA RESULT:      -9.6     13.622     17.446
REMARK  5 active torsions:
REMARK  status: ('A' for Active; 'I' for Inactive)
REMARK    1  A    between atoms: C1_11  and  S1_1 
REMARK    2  A    between atoms: N1_8  and  S1_1 
REMARK    3  A    between atoms: C12_22  and  N1_8 
REMARK       I    between atoms: C11_21  and  N2_9 
REMARK    4  A    between atoms: C2_12  and  N2_9 
REMARK    5  A    between atoms: C11_21  and  C8_18 
ROOT
HETATM    1  C1  UNK     1      16.731   8.369  33.708  1.00  0.00     0.080 A 
HETATM    2  C2  UNK     1      17.496   5.786  33.065  1.00  0.00     0.035 A 
HETATM    3  C3  UNK     1      17.807   7.775  34.368  1.00  0.00     0.027 A 
HETATM    4  C4  UNK     1      16.040   7.662  32.724  1.00  0.00     0.027 A 
HETATM    5  C5  UNK     1      18.193   6.474  34.045  1.00  0.00     0.031 A 
HETATM    6  C6  UNK     1      16.426   6.360  32.400  1.00  0.00     0.031 A 
ENDROOT
BRANCH   2   7
HETATM    7  N2  UNK     1      17.887   4.465  32.738  1.00  0.00    -0.323 N 
HETATM    8  C11 UNK     1      18.343   3.996  31.514  1.00  0.00     0.262 C 
HETATM    9  O5  UNK     1      18.500   4.627  30.470  1.00  0.00    -0.267 OA
HETATM   10  H6  UNK     1      17.834   3.812  33.516  1.00  0.00     0.169 HD
BRANCH   8  11
HETATM   11  C8  UNK     1      18.655   2.563  31.551  1.00  0.00     0.108 A 
HETATM   12  C10 UNK     1      19.212   2.049  30.448  1.00  0.00     0.037 A 
HETATM   13  C7  UNK     1      19.557   0.637  30.390  1.00  0.00    -0.001 A 
HETATM   14  C14 UNK     1      20.140   0.059  29.259  1.00  0.00     0.014 A 
HETATM   15  C9  UNK     1      19.299  -0.165  31.496  1.00  0.00     0.089 A 
HETATM   16  C17 UNK     1      20.453  -1.302  29.252  1.00  0.00     0.001 A 
HETATM   17  C18 UNK     1      20.185  -2.093  30.373  1.00  0.00     0.003 A 
HETATM   18  C15 UNK     1      19.605  -1.524  31.504  1.00  0.00     0.038 A 
HETATM   19  O1  UNK     1      18.712   0.380  32.655  1.00  0.00    -0.274 OA
HETATM   20  C13 UNK     1      18.372   1.728  32.740  1.00  0.00     0.304 A 
HETATM   21  O6  UNK     1      17.860   2.194  33.753  1.00  0.00    -0.259 OA
ENDBRANCH   8  11
ENDBRANCH   2   7
BRANCH   1  22
HETATM   22  S1  UNK     1      16.249   9.997  34.114  1.00  0.00     0.264 S 
HETATM   23  O2  UNK     1      15.482  10.536  32.998  1.00  0.00    -0.200 OA
HETATM   24  O3  UNK     1      15.658   9.976  35.446  1.00  0.00    -0.200 OA
BRANCH  22  25
HETATM   25  N1  UNK     1      17.761  10.786  34.185  1.00  0.00    -0.262 N 
HETATM   26  H5  UNK     1      18.600  10.210  34.329  1.00  0.00     0.180 HD
BRANCH  25  27
HETATM   27  C12 UNK     1      17.974  12.164  33.940  1.00  0.00     0.167 A 
HETATM   28  N3  UNK     1      18.859  12.603  33.051  1.00  0.00    -0.109 NA
HETATM   29  O4  UNK     1      18.760  13.987  33.116  1.00  0.00    -0.216 OA
HETATM   30  C19 UNK     1      17.822  14.327  34.038  1.00  0.00     0.079 A 
HETATM   31  C16 UNK     1      17.291  13.194  34.593  1.00  0.00     0.087 A 
HETATM   32  C20 UNK     1      17.587  15.762  34.236  1.00  0.00     0.079 C 
ENDBRANCH  25  27
ENDBRANCH  22  25
ENDBRANCH   1  22
TORSDOF 5
ENDMDL
MODEL 5
REMARK VINA RESULT:      -9.5      4.437      8.786
REMARK  5 active torsions:
REMARK  status: ('A' for Active; 'I' for Inactive)
REMARK    1  A    between atoms: C1_11  and  S1_1 
REMARK    2  A    between atoms: N1_8  and  S1_1 
REMARK    3  A    between atoms: C12_22  and  N1_8 
REMARK       I    between atoms: C11_21  and  N2_9 
REMARK    4  A    between atoms: C2_12  and  N2_9 
REMARK    5  A    between atoms: C11_21  and  C8_18 
ROOT
HETATM    1  C1  UNK     1      20.070  -9.024  36.549  1.00  0.00     0.080 A 
HETATM    2  C2  UNK     1      19.646  -6.308  36.221  1.00  0.00     0.035 A 
HETATM    3  C3  UNK     1      19.237  -8.336  37.431  1.00  0.00     0.027 A 
HETATM    4  C4  UNK     1      20.690  -8.344  35.501  1.00  0.00     0.027 A 
HETATM    5  C5  UNK     1      19.023  -6.969  37.266  1.00  0.00     0.031 A 
HETATM    6  C6  UNK     1      20.477  -6.974  35.336  1.00  0.00     0.031 A 
ENDROOT
BRANCH   2   7
HETATM    7  N2  UNK     1      19.431  -4.918  36.055  1.00  0.00    -0.323 N 
HETATM    8  C11 UNK     1      20.030  -3.878  36.752  1.00  0.00     0.262 C 
HETATM    9  O5  UNK     1      20.865  -3.951  37.651  1.00  0.00    -0.267 OA
HETATM   10  H6  UNK     1      18.767  -4.687  35.318  1.00  0.00     0.169 HD
BRANCH   8  11
HETATM   11  C8  UNK     1      19.556  -2.564  36.303  1.00  0.00     0.108 A 
HETATM   12  C10 UNK     1      18.822  -1.869  37.179  1.00  0.00     0.037 A 
HETATM   13  C7  UNK     1      18.306  -0.555  36.825  1.00  0.00    -0.001 A 
HETATM   14  C14 UNK     1      17.537   0.206  37.709  1.00  0.00     0.014 A 
HETATM   15  C9  UNK     1      18.589  -0.039  35.565  1.00  0.00     0.089 A 
HETATM   16  C17 UNK     1      17.065   1.463  37.321  1.00  0.00     0.001 A 
HETATM   17  C18 UNK     1      17.359   1.965  36.051  1.00  0.00     0.003 A 
HETATM   18  C15 UNK     1      18.126   1.213  35.164  1.00  0.00     0.038 A 
HETATM   19  O1  UNK     1      19.362  -0.775  34.646  1.00  0.00    -0.274 OA
HETATM   20  C13 UNK     1      19.869  -2.034  34.957  1.00  0.00     0.304 A 
HETATM   21  O6  UNK     1      20.540  -2.669  34.150  1.00  0.00    -0.259 OA
ENDBRANCH   8  11
ENDBRANCH   2   7
BRANCH   1  22
HETATM   22  S1  UNK     1      20.337 -10.737  36.755  1.00  0.00     0.264 S 
HETATM   23  O2  UNK     1      21.010 -10.942  38.032  1.00  0.00    -0.200 OA
HETATM   24  O3  UNK     1      19.082 -11.428  36.488  1.00  0.00    -0.200 OA
BRANCH  22  25
HETATM   25  N1  UNK     1      21.434 -11.060  35.488  1.00  0.00    -0.262 N 
HETATM   26  H5  UNK     1      21.080 -11.028  34.523  1.00  0.00     0.180 HD
BRANCH  25  27
HETATM   27  C12 UNK     1      22.828 -11.252  35.644  1.00  0.00     0.167 A 
HETATM   28  N3  UNK     1      23.455 -12.333  35.193  1.00  0.00    -0.109 NA
HETATM   29  O4  UNK     1      24.785 -12.135  35.542  1.00  0.00    -0.216 OA
HETATM   30  C19 UNK     1      24.907 -10.946  36.186  1.00  0.00     0.079 A 
HETATM   31  C16 UNK     1      23.681 -10.343  36.276  1.00  0.00     0.087 A 
HETATM   32  C20 UNK     1      26.257 -10.575  36.627  1.00  0.00     0.079 C 
ENDBRANCH  25  27
ENDBRANCH  22  25
ENDBRANCH   1  22
TORSDOF 5
ENDMDL
MODEL 6
REMARK VINA RESULT:      -9.5     13.651     17.470
REMARK  5 active torsions:
REMARK  status: ('A' for Active; 'I' for Inactive)
REMARK    1  A    between atoms: C1_11  and  S1_1 
REMARK    2  A    between atoms: N1_8  and  S1_1 
REMARK    3  A    between atoms: C12_22  and  N1_8 
REMARK       I    between atoms: C11_21  and  N2_9 
REMARK    4  A    between atoms: C2_12  and  N2_9 
REMARK    5  A    between atoms: C11_21  and  C8_18 
ROOT
HETATM    1  C1  UNK     1      16.660   8.444  33.700  1.00  0.00     0.080 A 
HETATM    2  C2  UNK     1      17.437   5.866  33.055  1.00  0.00     0.035 A 
HETATM    3  C3  UNK     1      17.694   7.829  34.406  1.00  0.00     0.027 A 
HETATM    4  C4  UNK     1      16.016   7.760  32.669  1.00  0.00     0.027 A 
HETATM    5  C5  UNK     1      18.085   6.531  34.081  1.00  0.00     0.031 A 
HETATM    6  C6  UNK     1      16.408   6.460  32.344  1.00  0.00     0.031 A 
ENDROOT
BRANCH   2   7
HETATM    7  N2  UNK     1      17.833   4.547  32.726  1.00  0.00    -0.323 N 
HETATM    8  C11 UNK     1      18.299   4.083  31.503  1.00  0.00     0.262 C 
HETATM    9  O5  UNK     1      18.460   4.717  30.463  1.00  0.00    -0.267 OA
HETATM   10  H6  UNK     1      17.777   3.891  33.502  1.00  0.00     0.169 HD
BRANCH   8  11
HETATM   11  C8  UNK     1      18.615   2.650  31.538  1.00  0.00     0.108 A 
HETATM   12  C10 UNK     1      19.156   2.136  30.428  1.00  0.00     0.037 A 
HETATM   13  C7  UNK     1      19.503   0.724  30.366  1.00  0.00    -0.001 A 
HETATM   14  C14 UNK     1      20.070   0.146  29.228  1.00  0.00     0.014 A 
HETATM   15  C9  UNK     1      19.264  -0.076  31.478  1.00  0.00     0.089 A 
HETATM   16  C17 UNK     1      20.387  -1.215  29.219  1.00  0.00     0.001 A 
HETATM   17  C18 UNK     1      20.138  -2.004  30.345  1.00  0.00     0.003 A 
HETATM   18  C15 UNK     1      19.574  -1.435  31.484  1.00  0.00     0.038 A 
HETATM   19  O1  UNK     1      18.694   0.469  32.645  1.00  0.00    -0.274 OA
HETATM   20  C13 UNK     1      18.351   1.816  32.733  1.00  0.00     0.304 A 
HETATM   21  O6  UNK     1      17.854   2.283  33.752  1.00  0.00    -0.259 OA
ENDBRANCH   8  11
ENDBRANCH   2   7
BRANCH   1  22
HETATM   22  S1  UNK     1      16.170  10.069  34.107  1.00  0.00     0.264 S 
HETATM   23  O2  UNK     1      15.679  10.067  35.480  1.00  0.00    -0.200 OA
HETATM   24  O3  UNK     1      17.248  10.976  33.733  1.00  0.00    -0.200 OA
BRANCH  22  25
HETATM   25  N1  UNK     1      14.853  10.298  33.045  1.00  0.00    -0.262 N 
HETATM   26  H5  UNK     1      14.707   9.603  32.301  1.00  0.00     0.180 HD
BRANCH  25  27
HETATM   27  C12 UNK     1      13.866  11.305  33.173  1.00  0.00     0.167 A 
HETATM   28  N3  UNK     1      14.137  12.514  33.650  1.00  0.00    -0.109 NA
HETATM   29  O4  UNK     1      12.921  13.185  33.611  1.00  0.00    -0.216 OA
HETATM   30  C19 UNK     1      11.968  12.356  33.113  1.00  0.00     0.079 A 
HETATM   31  C16 UNK     1      12.524  11.140  32.818  1.00  0.00     0.087 A 
HETATM   32  C20 UNK     1      10.612  12.907  33.002  1.00  0.00     0.079 C 
ENDBRANCH  25  27
ENDBRANCH  22  25
ENDBRANCH   1  22
TORSDOF 5
ENDMDL
MODEL 7
REMARK VINA RESULT:      -9.4      6.399     10.983
REMARK  5 active torsions:
REMARK  status: ('A' for Active; 'I' for Inactive)
REMARK    1  A    between atoms: C1_11  and  S1_1 
REMARK    2  A    between atoms: N1_8  and  S1_1 
REMARK    3  A    between atoms: C12_22  and  N1_8 
REMARK       I    between atoms: C11_21  and  N2_9 
REMARK    4  A    between atoms: C2_12  and  N2_9 
REMARK    5  A    between atoms: C11_21  and  C8_18 
ROOT
HETATM    1  C1  UNK     1      20.028  -4.085  36.414  1.00  0.00     0.080 A 
HETATM    2  C2  UNK     1      19.512  -1.565  35.389  1.00  0.00     0.035 A 
HETATM    3  C3  UNK     1      20.396  -3.775  35.105  1.00  0.00     0.027 A 
HETATM    4  C4  UNK     1      19.399  -3.125  37.207  1.00  0.00     0.027 A 
HETATM    5  C5  UNK     1      20.137  -2.506  34.589  1.00  0.00     0.031 A 
HETATM    6  C6  UNK     1      19.139  -1.855  36.691  1.00  0.00     0.031 A 
ENDROOT
BRANCH   2   7
HETATM    7  N2  UNK     1      19.248  -0.276  34.865  1.00  0.00    -0.323 N 
HETATM    8  C11 UNK     1      18.153   0.123  34.111  1.00  0.00     0.262 C 
HETATM    9  O5  UNK     1      17.195  -0.556  33.746  1.00  0.00    -0.267 OA
HETATM   10  H6  UNK     1      19.952   0.420  35.101  1.00  0.00     0.169 HD
BRANCH   8  11
HETATM   11  C8  UNK     1      18.221   1.542  33.743  1.00  0.00     0.108 A 
HETATM   12  C10 UNK     1      18.390   1.809  32.443  1.00  0.00     0.037 A 
HETATM   13  C7  UNK     1      18.470   3.186  31.981  1.00  0.00    -0.001 A 
HETATM   14  C14 UNK     1      18.646   3.510  30.633  1.00  0.00     0.014 A 
HETATM   15  C9  UNK     1      18.368   4.215  32.911  1.00  0.00     0.089 A 
HETATM   16  C17 UNK     1      18.716   4.849  30.239  1.00  0.00     0.001 A 
HETATM   17  C18 UNK     1      18.612   5.869  31.189  1.00  0.00     0.003 A 
HETATM   18  C15 UNK     1      18.436   5.554  32.534  1.00  0.00     0.038 A 
HETATM   19  O1  UNK     1      18.190   3.929  34.279  1.00  0.00    -0.274 OA
HETATM   20  C13 UNK     1      18.109   2.621  34.750  1.00  0.00     0.304 A 
HETATM   21  O6  UNK     1      17.956   2.381  35.943  1.00  0.00    -0.259 OA
ENDBRANCH   8  11
ENDBRANCH   2   7
BRANCH   1  22
HETATM   22  S1  UNK     1      20.352  -5.674  37.060  1.00  0.00     0.264 S 
HETATM   23  O2  UNK     1      21.779  -5.768  37.343  1.00  0.00    -0.200 OA
HETATM   24  O3  UNK     1      19.391  -5.936  38.124  1.00  0.00    -0.200 OA
BRANCH  22  25
HETATM   25  N1  UNK     1      19.984  -6.662  35.718  1.00  0.00    -0.262 N 
HETATM   26  H5  UNK     1      19.271  -6.330  35.055  1.00  0.00     0.180 HD
BRANCH  25  27
HETATM   27  C12 UNK     1      20.666  -7.853  35.370  1.00  0.00     0.167 A 
HETATM   28  N3  UNK     1      21.062  -8.113  34.128  1.00  0.00    -0.109 NA
HETATM   29  O4  UNK     1      21.678  -9.355  34.212  1.00  0.00    -0.216 OA
HETATM   30  C19 UNK     1      21.630  -9.793  35.496  1.00  0.00     0.079 A 
HETATM   31  C16 UNK     1      20.991  -8.867  36.276  1.00  0.00     0.087 A 
HETATM   32  C20 UNK     1      22.241 -11.100  35.766  1.00  0.00     0.079 C 
ENDBRANCH  25  27
ENDBRANCH  22  25
ENDBRANCH   1  22
TORSDOF 5
ENDMDL
MODEL 8
REMARK VINA RESULT:      -9.2      1.411      2.129
REMARK  5 active torsions:
REMARK  status: ('A' for Active; 'I' for Inactive)
REMARK    1  A    between atoms: C1_11  and  S1_1 
REMARK    2  A    between atoms: N1_8  and  S1_1 
REMARK    3  A    between atoms: C12_22  and  N1_8 
REMARK       I    between atoms: C11_21  and  N2_9 
REMARK    4  A    between atoms: C2_12  and  N2_9 
REMARK    5  A    between atoms: C11_21  and  C8_18 
ROOT
HETATM    1  C1  UNK     1      21.183  -9.158  37.733  1.00  0.00     0.080 A 
HETATM    2  C2  UNK     1      23.857  -8.478  37.966  1.00  0.00     0.035 A 
HETATM    3  C3  UNK     1      21.619  -8.405  38.824  1.00  0.00     0.027 A 
HETATM    4  C4  UNK     1      22.094  -9.568  36.760  1.00  0.00     0.027 A 
HETATM    5  C5  UNK     1      22.966  -8.063  38.941  1.00  0.00     0.031 A 
HETATM    6  C6  UNK     1      23.441  -9.225  36.877  1.00  0.00     0.031 A 
ENDROOT
BRANCH   2   7
HETATM    7  N2  UNK     1      25.224  -8.130  38.086  1.00  0.00    -0.323 N 
HETATM    8  C11 UNK     1      26.145  -8.619  39.002  1.00  0.00     0.262 C 
HETATM    9  O5  UNK     1      25.963  -9.448  39.892  1.00  0.00    -0.267 OA
HETATM   10  H6  UNK     1      25.543  -7.455  37.394  1.00  0.00     0.169 HD
BRANCH   8  11
HETATM   11  C8  UNK     1      27.475  -8.025  38.822  1.00  0.00     0.108 A 
HETATM   12  C10 UNK     1      27.534  -6.688  38.849  1.00  0.00     0.037 A 
HETATM   13  C7  UNK     1      28.808  -6.007  38.679  1.00  0.00    -0.001 A 
HETATM   14  C14 UNK     1      28.917  -4.614  38.700  1.00  0.00     0.014 A 
HETATM   15  C9  UNK     1      29.957  -6.767  38.489  1.00  0.00     0.089 A 
HETATM   16  C17 UNK     1      30.164  -4.007  38.532  1.00  0.00     0.001 A 
HETATM   17  C18 UNK     1      31.308  -4.787  38.342  1.00  0.00     0.003 A 
HETATM   18  C15 UNK     1      31.208  -6.176  38.321  1.00  0.00     0.038 A 
HETATM   19  O1  UNK     1      29.890  -8.174  38.462  1.00  0.00    -0.274 OA
HETATM   20  C13 UNK     1      28.685  -8.853  38.623  1.00  0.00     0.304 A 
HETATM   21  O6  UNK     1      28.635 -10.079  38.596  1.00  0.00    -0.259 OA
ENDBRANCH   8  11
ENDBRANCH   2   7
BRANCH   1  22
HETATM   22  S1  UNK     1      19.497  -9.587  37.587  1.00  0.00     0.264 S 
HETATM   23  O2  UNK     1      19.415 -11.005  37.258  1.00  0.00    -0.200 OA
HETATM   24  O3  UNK     1      18.796  -9.081  38.761  1.00  0.00    -0.200 OA
BRANCH  22  25
HETATM   25  N1  UNK     1      19.036  -8.671  36.222  1.00  0.00    -0.262 N 
HETATM   26  H5  UNK     1      18.344  -9.078  35.579  1.00  0.00     0.180 HD
BRANCH  25  27
HETATM   27  C12 UNK     1      19.436  -7.339  35.960  1.00  0.00     0.167 A 
HETATM   28  N3  UNK     1      20.063  -6.988  34.843  1.00  0.00    -0.109 NA
HETATM   29  O4  UNK     1      20.274  -5.621  34.976  1.00  0.00    -0.216 OA
HETATM   30  C19 UNK     1      19.766  -5.203  36.165  1.00  0.00     0.079 A 
HETATM   31  C16 UNK     1      19.220  -6.267  36.831  1.00  0.00     0.087 A 
HETATM   32  C20 UNK     1      19.902  -3.774  36.470  1.00  0.00     0.079 C 
ENDBRANCH  25  27
ENDBRANCH  22  25
ENDBRANCH   1  22
TORSDOF 5
ENDMDL
MODEL 9
REMARK VINA RESULT:      -9.1     22.495     25.218
REMARK  5 active torsions:
REMARK  status: ('A' for Active; 'I' for Inactive)
REMARK    1  A    between atoms: C1_11  and  S1_1 
REMARK    2  A    between atoms: N1_8  and  S1_1 
REMARK    3  A    between atoms: C12_22  and  N1_8 
REMARK       I    between atoms: C11_21  and  N2_9 
REMARK    4  A    between atoms: C2_12  and  N2_9 
REMARK    5  A    between atoms: C11_21  and  C8_18 
ROOT
HETATM    1  C1  UNK     1      20.424  -6.536  12.448  1.00  0.00     0.080 A 
HETATM    2  C2  UNK     1      20.028  -4.190  13.865  1.00  0.00     0.035 A 
HETATM    3  C3  UNK     1      20.471  -6.546  13.842  1.00  0.00     0.027 A 
HETATM    4  C4  UNK     1      20.178  -5.344  11.767  1.00  0.00     0.027 A 
HETATM    5  C5  UNK     1      20.271  -5.365  14.555  1.00  0.00     0.031 A 
HETATM    6  C6  UNK     1      19.978  -4.162  12.481  1.00  0.00     0.031 A 
ENDROOT
BRANCH   2   7
HETATM    7  N2  UNK     1      19.826  -2.991  14.590  1.00  0.00    -0.323 N 
HETATM    8  C11 UNK     1      18.745  -2.659  15.394  1.00  0.00     0.262 C 
HETATM    9  O5  UNK     1      17.747  -3.334  15.640  1.00  0.00    -0.267 OA
HETATM   10  H6  UNK     1      20.589  -2.322  14.505  1.00  0.00     0.169 HD
BRANCH   8  11
HETATM   11  C8  UNK     1      18.885  -1.324  15.987  1.00  0.00     0.108 A 
HETATM   12  C10 UNK     1      18.689  -1.240  17.308  1.00  0.00     0.037 A 
HETATM   13  C7  UNK     1      18.805   0.042  17.986  1.00  0.00    -0.001 A 
HETATM   14  C14 UNK     1      18.609   0.176  19.364  1.00  0.00     0.014 A 
HETATM   15  C9  UNK     1      19.123   1.172  17.241  1.00  0.00     0.089 A 
HETATM   16  C17 UNK     1      18.733   1.429  19.969  1.00  0.00     0.001 A 
HETATM   17  C18 UNK     1      19.051   2.554  19.203  1.00  0.00     0.003 A 
HETATM   18  C15 UNK     1      19.249   2.428  17.830  1.00  0.00     0.038 A 
HETATM   19  O1  UNK     1      19.328   1.078  15.850  1.00  0.00    -0.274 OA
HETATM   20  C13 UNK     1      19.224  -0.135  15.174  1.00  0.00     0.304 A 
HETATM   21  O6  UNK     1      19.403  -0.207  13.962  1.00  0.00    -0.259 OA
ENDBRANCH   8  11
ENDBRANCH   2   7
BRANCH   1  22
HETATM   22  S1  UNK     1      20.674  -8.015  11.554  1.00  0.00     0.264 S 
HETATM   23  O2  UNK     1      19.382  -8.473  11.061  1.00  0.00    -0.200 OA
HETATM   24  O3  UNK     1      21.765  -7.796  10.612  1.00  0.00    -0.200 OA
BRANCH  22  25
HETATM   25  N1  UNK     1      21.205  -9.067  12.789  1.00  0.00    -0.262 N 
HETATM   26  H5  UNK     1      21.502  -8.651  13.682  1.00  0.00     0.180 HD
BRANCH  25  27
HETATM   27  C12 UNK     1      21.158 -10.480  12.734  1.00  0.00     0.167 A 
HETATM   28  N3  UNK     1      20.069 -11.172  13.050  1.00  0.00    -0.109 NA
HETATM   29  O4  UNK     1      20.433 -12.500  12.866  1.00  0.00    -0.216 OA
HETATM   30  C19 UNK     1      21.724 -12.556  12.447  1.00  0.00     0.079 A 
HETATM   31  C16 UNK     1      22.231 -11.288  12.348  1.00  0.00     0.087 A 
HETATM   32  C20 UNK     1      22.276 -13.894  12.201  1.00  0.00     0.079 C 
ENDBRANCH  25  27
ENDBRANCH  22  25
ENDBRANCH   1  22
TORSDOF 5
ENDMDL
MODEL 10
REMARK VINA RESULT:      -9.1      7.771     11.651
REMARK  5 active torsions:
REMARK  status: ('A' for Active; 'I' for Inactive)
REMARK    1  A    between atoms: C1_11  and  S1_1 
REMARK    2  A    between atoms: N1_8  and  S1_1 
REMARK    3  A    between atoms: C12_22  and  N1_8 
REMARK       I    between atoms: C11_21  and  N2_9 
REMARK    4  A    between atoms: C2_12  and  N2_9 
REMARK    5  A    between atoms: C11_21  and  C8_18 
ROOT
HETATM    1  C1  UNK     1      18.598   1.157  31.879  1.00  0.00     0.080 A 
HETATM    2  C2  UNK     1      18.970  -0.997  33.579  1.00  0.00     0.035 A 
HETATM    3  C3  UNK     1      18.246   1.261  33.225  1.00  0.00     0.027 A 
HETATM    4  C4  UNK     1      19.137  -0.033  31.390  1.00  0.00     0.027 A 
HETATM    5  C5  UNK     1      18.433   0.177  34.081  1.00  0.00     0.031 A 
HETATM    6  C6  UNK     1      19.324  -1.118  32.247  1.00  0.00     0.031 A 
ENDROOT
BRANCH   2   7
HETATM    7  N2  UNK     1      19.158  -2.098  34.449  1.00  0.00    -0.323 N 
HETATM    8  C11 UNK     1      20.353  -2.558  34.986  1.00  0.00     0.262 C 
HETATM    9  O5  UNK     1      21.484  -2.107  34.817  1.00  0.00    -0.267 OA
HETATM   10  H6  UNK     1      18.297  -2.576  34.706  1.00  0.00     0.169 HD
BRANCH   8  11
HETATM   11  C8  UNK     1      20.158  -3.729  35.849  1.00  0.00     0.108 A 
HETATM   12  C10 UNK     1      20.048  -4.910  35.228  1.00  0.00     0.037 A 
HETATM   13  C7  UNK     1      19.852  -6.128  35.999  1.00  0.00    -0.001 A 
HETATM   14  C14 UNK     1      19.732  -7.382  35.393  1.00  0.00     0.014 A 
HETATM   15  C9  UNK     1      19.781  -6.043  37.385  1.00  0.00     0.089 A 
HETATM   16  C17 UNK     1      19.546  -8.523  36.177  1.00  0.00     0.001 A 
HETATM   17  C18 UNK     1      19.477  -8.418  37.569  1.00  0.00     0.003 A 
HETATM   18  C15 UNK     1      19.596  -7.172  38.180  1.00  0.00     0.038 A 
HETATM   19  O1  UNK     1      19.898  -4.798  38.033  1.00  0.00    -0.274 OA
HETATM   20  C13 UNK     1      20.086  -3.616  37.323  1.00  0.00     0.304 A 
HETATM   21  O6  UNK     1      20.185  -2.535  37.895  1.00  0.00    -0.259 OA
ENDBRANCH   8  11
ENDBRANCH   2   7
BRANCH   1  22
HETATM   22  S1  UNK     1      18.363   2.515  30.807  1.00  0.00     0.264 S 
HETATM   23  O2  UNK     1      19.673   3.041  30.445  1.00  0.00    -0.200 OA
HETATM   24  O3  UNK     1      17.438   2.108  29.756  1.00  0.00    -0.200 OA
BRANCH  22  25
HETATM   25  N1  UNK     1      17.582   3.626  31.840  1.00  0.00    -0.262 N 
HETATM   26  H5  UNK     1      16.710   3.329  32.298  1.00  0.00     0.180 HD
BRANCH  25  27
HETATM   27  C12 UNK     1      18.097   4.889  32.220  1.00  0.00     0.167 A 
HETATM   28  N3  UNK     1      18.246   5.888  31.358  1.00  0.00    -0.109 NA
HETATM   29  O4  UNK     1      18.769   6.927  32.117  1.00  0.00    -0.216 OA
HETATM   30  C19 UNK     1      18.913   6.516  33.403  1.00  0.00     0.079 A 
HETATM   31  C16 UNK     1      18.497   5.216  33.519  1.00  0.00     0.087 A 
HETATM   32  C20 UNK     1      19.457   7.497  34.349  1.00  0.00     0.079 C 
ENDBRANCH  25  27
ENDBRANCH  22  25
ENDBRANCH   1  22
TORSDOF 5
ENDMDL
