MODEL 1
REMARK VINA RESULT:      -8.9      0.000      0.000
REMARK  6 active torsions:
REMARK  status: ('A' for Active; 'I' for Inactive)
REMARK    1  A    between atoms: C11_17  and  N1_4 
REMARK    2  A    between atoms: C13_19  and  N2_5 
REMARK    3  A    between atoms: C1_7  and  N3_6 
REMARK       I    between atoms: C12_18  and  N3_6 
REMARK    4  A    between atoms: C11_17  and  C12_18 
REMARK    5  A    between atoms: C13_19  and  C14_20 
REMARK    6  A    between atoms: C19_25  and  C23_29 
ROOT
HETATM    1  N1  UNK     1      19.260   6.360  32.358  1.00  0.00     0.100 N 
HETATM    2  N2  UNK     1      18.914   3.689  31.307  1.00  0.00     0.096 N 
HETATM    3  C7  UNK     1      20.082   5.866  31.246  1.00  0.00     0.303 C 
HETATM    4  C8  UNK     1      18.848   5.248  33.223  1.00  0.00     0.303 C 
HETATM    5  C9  UNK     1      19.327   4.801  30.442  1.00  0.00     0.303 C 
HETATM    6  C10 UNK     1      18.093   4.183  32.421  1.00  0.00     0.303 C 
ENDROOT
BRANCH   2   7
HETATM    7  C13 UNK     1      18.191   2.676  30.540  1.00  0.00     0.312 C 
BRANCH   7   8
HETATM    8  C14 UNK     1      18.913   1.374  30.512  1.00  0.00    -0.011 A 
HETATM    9  C15 UNK     1      18.900   0.502  31.695  1.00  0.00     0.007 A 
HETATM   10  C17 UNK     1      19.586  -0.712  31.639  1.00  0.00     0.090 A 
HETATM   11  C18 UNK     1      18.236   0.818  32.888  1.00  0.00     0.022 A 
HETATM   12  O2  UNK     1      20.279  -1.104  30.477  1.00  0.00    -0.275 OA
HETATM   13  C21 UNK     1      19.624  -1.598  32.716  1.00  0.00     0.039 A 
HETATM   14  C20 UNK     1      20.308  -0.304  29.345  1.00  0.00     0.288 A 
HETATM   15  C16 UNK     1      19.580   0.975  29.420  1.00  0.00     0.092 A 
HETATM   16  O3  UNK     1      20.909  -0.634  28.329  1.00  0.00    -0.260 OA
HETATM   17  C22 UNK     1      18.958  -1.266  33.892  1.00  0.00     0.010 A 
HETATM   18  C19 UNK     1      18.264  -0.059  33.977  1.00  0.00    -0.058 A 
BRANCH  18  19
HETATM   19  C23 UNK     1      17.549   0.298  35.237  1.00  0.00     0.034 C 
HETATM   20  C24 UNK     1      16.033   0.226  35.084  1.00  0.00     0.010 C 
ENDBRANCH  18  19
ENDBRANCH   7   8
ENDBRANCH   2   7
BRANCH   1  21
HETATM   21  C11 UNK     1      19.980   7.375  33.125  1.00  0.00     0.374 C 
BRANCH  21  22
HETATM   22  C12 UNK     1      19.065   7.907  34.209  1.00  0.00     0.246 C 
HETATM   23  N3  UNK     1      17.899   8.444  33.683  1.00  0.00    -0.355 N 
HETATM   24  H20 UNK     1      17.728   8.362  32.686  1.00  0.00     0.162 HD
HETATM   25  O1  UNK     1      19.353   7.877  35.403  1.00  0.00    -0.272 OA
BRANCH  23  26
HETATM   26  C1  UNK     1      16.866   9.045  34.498  1.00  0.00     0.084 C 
HETATM   27  C2  UNK     1      15.919   7.981  35.062  1.00  0.00     0.025 C 
HETATM   28  C4  UNK     1      15.010   7.379  33.990  1.00  0.00     0.002 C 
HETATM   29  C6  UNK     1      14.246   8.459  33.229  1.00  0.00     0.000 C 
HETATM   30  C5  UNK     1      15.187   9.507  32.642  1.00  0.00     0.002 C 
HETATM   31  C3  UNK     1      16.096  10.112  33.711  1.00  0.00     0.025 C 
ENDBRANCH  23  26
ENDBRANCH  21  22
ENDBRANCH   1  21
TORSDOF 6
ENDMDL
MODEL 2
REMARK VINA RESULT:      -8.9      4.287      9.861
REMARK  6 active torsions:
REMARK  status: ('A' for Active; 'I' for Inactive)
REMARK    1  A    between atoms: C11_17  and  N1_4 
REMARK    2  A    between atoms: C13_19  and  N2_5 
REMARK    3  A    between atoms: C1_7  and  N3_6 
REMARK       I    between atoms: C12_18  and  N3_6 
REMARK    4  A    between atoms: C11_17  and  C12_18 
REMARK    5  A    between atoms: C13_19  and  C14_20 
REMARK    6  A    between atoms: C19_25  and  C23_29 
ROOT
HETATM    1  N1  UNK     1      18.252  -0.894  36.638  1.00  0.00     0.100 N 
HETATM    2  N2  UNK     1      17.945   1.638  35.276  1.00  0.00     0.096 N 
HETATM    3  C7  UNK     1      18.595  -0.746  35.218  1.00  0.00     0.303 C 
HETATM    4  C8  UNK     1      17.189   0.047  37.009  1.00  0.00     0.303 C 
HETATM    5  C9  UNK     1      19.008   0.697  34.904  1.00  0.00     0.303 C 
HETATM    6  C10 UNK     1      17.601   1.489  36.696  1.00  0.00     0.303 C 
ENDROOT
BRANCH   2   7
HETATM    7  C13 UNK     1      18.342   3.013  34.980  1.00  0.00     0.312 C 
BRANCH   7   8
HETATM    8  C14 UNK     1      18.309   3.305  33.520  1.00  0.00    -0.011 A 
HETATM    9  C15 UNK     1      18.341   4.696  33.049  1.00  0.00     0.007 A 
HETATM   10  C17 UNK     1      18.308   4.938  31.675  1.00  0.00     0.090 A 
HETATM   11  C18 UNK     1      18.402   5.806  33.903  1.00  0.00     0.022 A 
HETATM   12  O2  UNK     1      18.248   3.878  30.750  1.00  0.00    -0.275 OA
HETATM   13  C21 UNK     1      18.336   6.228  31.144  1.00  0.00     0.039 A 
HETATM   14  C20 UNK     1      18.217   2.554  31.164  1.00  0.00     0.288 A 
HETATM   15  C16 UNK     1      18.251   2.316  32.617  1.00  0.00     0.092 A 
HETATM   16  O3  UNK     1      18.162   1.624  30.369  1.00  0.00    -0.260 OA
HETATM   17  C22 UNK     1      18.397   7.317  32.008  1.00  0.00     0.010 A 
HETATM   18  C19 UNK     1      18.430   7.106  33.386  1.00  0.00    -0.058 A 
BRANCH  18  19
HETATM   19  C23 UNK     1      18.495   8.273  34.314  1.00  0.00     0.034 C 
HETATM   20  C24 UNK     1      19.921   8.784  34.504  1.00  0.00     0.010 C 
ENDBRANCH  18  19
ENDBRANCH   7   8
ENDBRANCH   2   7
BRANCH   1  21
HETATM   21  C11 UNK     1      17.857  -2.269  36.936  1.00  0.00     0.374 C 
BRANCH  21  22
HETATM   22  C12 UNK     1      19.106  -3.117  37.068  1.00  0.00     0.246 C 
HETATM   23  N3  UNK     1      18.938  -4.375  36.507  1.00  0.00    -0.355 N 
HETATM   24  H20 UNK     1      18.076  -4.578  36.010  1.00  0.00     0.162 HD
HETATM   25  O1  UNK     1      20.126  -2.725  37.630  1.00  0.00    -0.272 OA
BRANCH  23  26
HETATM   26  C1  UNK     1      19.966  -5.392  36.521  1.00  0.00     0.084 C 
HETATM   27  C2  UNK     1      19.904  -6.256  35.257  1.00  0.00     0.025 C 
HETATM   28  C4  UNK     1      18.693  -7.190  35.245  1.00  0.00     0.002 C 
HETATM   29  C6  UNK     1      18.628  -8.043  36.509  1.00  0.00     0.000 C 
HETATM   30  C5  UNK     1      18.662  -7.186  37.770  1.00  0.00     0.002 C 
HETATM   31  C3  UNK     1      19.872  -6.253  37.786  1.00  0.00     0.025 C 
ENDBRANCH  23  26
ENDBRANCH  21  22
ENDBRANCH   1  21
TORSDOF 6
ENDMDL
MODEL 3
REMARK VINA RESULT:      -8.7     14.307     17.438
REMARK  6 active torsions:
REMARK  status: ('A' for Active; 'I' for Inactive)
REMARK    1  A    between atoms: C11_17  and  N1_4 
REMARK    2  A    between atoms: C13_19  and  N2_5 
REMARK    3  A    between atoms: C1_7  and  N3_6 
REMARK       I    between atoms: C12_18  and  N3_6 
REMARK    4  A    between atoms: C11_17  and  C12_18 
REMARK    5  A    between atoms: C13_19  and  C14_20 
REMARK    6  A    between atoms: C19_25  and  C23_29 
ROOT
HETATM    1  N1  UNK     1      26.249  -9.946  36.416  1.00  0.00     0.100 N 
HETATM    2  N2  UNK     1      28.168  -7.784  36.442  1.00  0.00     0.096 N 
HETATM    3  C7  UNK     1      26.421  -9.095  37.599  1.00  0.00     0.303 C 
HETATM    4  C8  UNK     1      27.504 -10.031  35.659  1.00  0.00     0.303 C 
HETATM    5  C9  UNK     1      26.914  -7.699  37.200  1.00  0.00     0.303 C 
HETATM    6  C10 UNK     1      27.996  -8.636  35.259  1.00  0.00     0.303 C 
ENDROOT
BRANCH   2   7
HETATM    7  C13 UNK     1      28.634  -6.452  36.059  1.00  0.00     0.312 C 
BRANCH   7   8
HETATM    8  C14 UNK     1      29.563  -5.872  37.067  1.00  0.00    -0.011 A 
HETATM    9  C15 UNK     1      31.001  -6.167  36.995  1.00  0.00     0.007 A 
HETATM   10  C17 UNK     1      31.847  -5.609  37.954  1.00  0.00     0.090 A 
HETATM   11  C18 UNK     1      31.580  -6.983  36.014  1.00  0.00     0.022 A 
HETATM   12  O2  UNK     1      31.344  -4.777  38.974  1.00  0.00    -0.275 OA
HETATM   13  C21 UNK     1      33.224  -5.838  37.959  1.00  0.00     0.039 A 
HETATM   14  C20 UNK     1      29.993  -4.479  39.067  1.00  0.00     0.288 A 
HETATM   15  C16 UNK     1      29.113  -5.077  38.048  1.00  0.00     0.092 A 
HETATM   16  O3  UNK     1      29.544  -3.759  39.950  1.00  0.00    -0.260 OA
HETATM   17  C22 UNK     1      33.779  -6.651  36.976  1.00  0.00     0.010 A 
HETATM   18  C19 UNK     1      32.959  -7.223  36.005  1.00  0.00    -0.058 A 
BRANCH  18  19
HETATM   19  C23 UNK     1      33.553  -8.095  34.950  1.00  0.00     0.034 C 
HETATM   20  C24 UNK     1      32.858  -9.451  34.859  1.00  0.00     0.010 C 
ENDBRANCH  18  19
ENDBRANCH   7   8
ENDBRANCH   2   7
BRANCH   1  21
HETATM   21  C11 UNK     1      25.781 -11.277  36.797  1.00  0.00     0.374 C 
BRANCH  21  22
HETATM   22  C12 UNK     1      24.506 -11.582  36.036  1.00  0.00     0.246 C 
HETATM   23  N3  UNK     1      23.446 -10.800  36.470  1.00  0.00    -0.355 N 
HETATM   24  H20 UNK     1      23.623 -10.073  37.157  1.00  0.00     0.162 HD
HETATM   25  O1  UNK     1      24.438 -12.441  35.160  1.00  0.00    -0.272 OA
BRANCH  23  26
HETATM   26  C1  UNK     1      22.109 -10.908  35.931  1.00  0.00     0.084 C 
HETATM   27  C2  UNK     1      21.777  -9.710  35.035  1.00  0.00     0.025 C 
HETATM   28  C4  UNK     1      21.571  -8.422  35.832  1.00  0.00     0.002 C 
HETATM   29  C6  UNK     1      20.530  -8.602  36.933  1.00  0.00     0.000 C 
HETATM   30  C5  UNK     1      20.870  -9.777  37.845  1.00  0.00     0.002 C 
HETATM   31  C3  UNK     1      21.074 -11.067  37.051  1.00  0.00     0.025 C 
ENDBRANCH  23  26
ENDBRANCH  21  22
ENDBRANCH   1  21
TORSDOF 6
ENDMDL
MODEL 4
REMARK VINA RESULT:      -8.7      2.332      8.481
REMARK  6 active torsions:
REMARK  status: ('A' for Active; 'I' for Inactive)
REMARK    1  A    between atoms: C11_17  and  N1_4 
REMARK    2  A    between atoms: C13_19  and  N2_5 
REMARK    3  A    between atoms: C1_7  and  N3_6 
REMARK       I    between atoms: C12_18  and  N3_6 
REMARK    4  A    between atoms: C11_17  and  C12_18 
REMARK    5  A    between atoms: C13_19  and  C14_20 
REMARK    6  A    between atoms: C19_25  and  C23_29 
ROOT
HETATM    1  N1  UNK     1      18.946   2.208  31.358  1.00  0.00     0.100 N 
HETATM    2  N2  UNK     1      18.123   4.965  31.640  1.00  0.00     0.096 N 
HETATM    3  C7  UNK     1      18.789   3.080  30.187  1.00  0.00     0.303 C 
HETATM    4  C8  UNK     1      18.039   2.627  32.434  1.00  0.00     0.303 C 
HETATM    5  C9  UNK     1      19.029   4.547  30.564  1.00  0.00     0.303 C 
HETATM    6  C10 UNK     1      18.279   4.093  32.811  1.00  0.00     0.303 C 
ENDROOT
BRANCH   2   7
HETATM    7  C13 UNK     1      18.356   6.363  32.000  1.00  0.00     0.312 C 
BRANCH   7   8
HETATM    8  C14 UNK     1      17.085   7.094  32.260  1.00  0.00    -0.011 A 
HETATM    9  C15 UNK     1      17.113   8.393  32.947  1.00  0.00     0.007 A 
HETATM   10  C17 UNK     1      15.906   9.054  33.178  1.00  0.00     0.090 A 
HETATM   11  C18 UNK     1      18.289   9.014  33.391  1.00  0.00     0.022 A 
HETATM   12  O2  UNK     1      14.680   8.497  32.763  1.00  0.00    -0.275 OA
HETATM   13  C21 UNK     1      15.843  10.290  33.822  1.00  0.00     0.039 A 
HETATM   14  C20 UNK     1      14.621   7.274  32.111  1.00  0.00     0.288 A 
HETATM   15  C16 UNK     1      15.904   6.588  31.877  1.00  0.00     0.092 A 
HETATM   16  O3  UNK     1      13.561   6.779  31.748  1.00  0.00    -0.260 OA
HETATM   17  C22 UNK     1      17.021  10.890  34.254  1.00  0.00     0.010 A 
HETATM   18  C19 UNK     1      18.242  10.253  34.039  1.00  0.00    -0.058 A 
BRANCH  18  19
HETATM   19  C23 UNK     1      19.507  10.895  34.502  1.00  0.00     0.034 C 
HETATM   20  C24 UNK     1      20.671   9.910  34.562  1.00  0.00     0.010 C 
ENDBRANCH  18  19
ENDBRANCH   7   8
ENDBRANCH   2   7
BRANCH   1  21
HETATM   21  C11 UNK     1      18.716   0.810  30.999  1.00  0.00     0.374 C 
BRANCH  21  22
HETATM   22  C12 UNK     1      19.019  -0.058  32.203  1.00  0.00     0.246 C 
HETATM   23  N3  UNK     1      18.037   0.048  33.178  1.00  0.00    -0.355 N 
HETATM   24  H20 UNK     1      17.206   0.596  32.977  1.00  0.00     0.162 HD
HETATM   25  O1  UNK     1      20.032  -0.748  32.294  1.00  0.00    -0.272 OA
BRANCH  23  26
HETATM   26  C1  UNK     1      18.094  -0.655  34.439  1.00  0.00     0.084 C 
HETATM   27  C2  UNK     1      16.698  -1.099  34.888  1.00  0.00     0.025 C 
HETATM   28  C4  UNK     1      15.830   0.073  35.346  1.00  0.00     0.002 C 
HETATM   29  C6  UNK     1      16.526   0.900  36.423  1.00  0.00     0.000 C 
HETATM   30  C5  UNK     1      17.906   1.368  35.972  1.00  0.00     0.002 C 
HETATM   31  C3  UNK     1      18.776   0.199  35.515  1.00  0.00     0.025 C 
ENDBRANCH  23  26
ENDBRANCH  21  22
ENDBRANCH   1  21
TORSDOF 6
ENDMDL
MODEL 5
REMARK VINA RESULT:      -8.4     16.094     20.086
REMARK  6 active torsions:
REMARK  status: ('A' for Active; 'I' for Inactive)
REMARK    1  A    between atoms: C11_17  and  N1_4 
REMARK    2  A    between atoms: C13_19  and  N2_5 
REMARK    3  A    between atoms: C1_7  and  N3_6 
REMARK       I    between atoms: C12_18  and  N3_6 
REMARK    4  A    between atoms: C11_17  and  C12_18 
REMARK    5  A    between atoms: C13_19  and  C14_20 
REMARK    6  A    between atoms: C19_25  and  C23_29 
ROOT
HETATM    1  N1  UNK     1      34.737  -6.463  34.867  1.00  0.00     0.100 N 
HETATM    2  N2  UNK     1      32.111  -5.831  35.899  1.00  0.00     0.096 N 
HETATM    3  C7  UNK     1      33.773  -7.520  35.198  1.00  0.00     0.303 C 
HETATM    4  C8  UNK     1      34.513  -5.283  35.712  1.00  0.00     0.303 C 
HETATM    5  C9  UNK     1      32.335  -7.011  35.055  1.00  0.00     0.303 C 
HETATM    6  C10 UNK     1      33.075  -4.773  35.569  1.00  0.00     0.303 C 
ENDROOT
BRANCH   2   7
HETATM    7  C13 UNK     1      30.740  -5.344  35.759  1.00  0.00     0.312 C 
BRANCH   7   8
HETATM    8  C14 UNK     1      30.001  -5.370  37.052  1.00  0.00    -0.011 A 
HETATM    9  C15 UNK     1      29.067  -6.467  37.341  1.00  0.00     0.007 A 
HETATM   10  C17 UNK     1      28.388  -6.464  38.560  1.00  0.00     0.090 A 
HETATM   11  C18 UNK     1      28.811  -7.525  36.458  1.00  0.00     0.022 A 
HETATM   12  O2  UNK     1      28.589  -5.436  39.503  1.00  0.00    -0.275 OA
HETATM   13  C21 UNK     1      27.484  -7.466  38.914  1.00  0.00     0.039 A 
HETATM   14  C20 UNK     1      29.465  -4.389  39.259  1.00  0.00     0.288 A 
HETATM   15  C16 UNK     1      30.172  -4.406  37.967  1.00  0.00     0.092 A 
HETATM   16  O3  UNK     1      29.645  -3.488  40.070  1.00  0.00    -0.260 OA
HETATM   17  C22 UNK     1      27.245  -8.509  38.024  1.00  0.00     0.010 A 
HETATM   18  C19 UNK     1      27.908  -8.538  36.798  1.00  0.00    -0.058 A 
BRANCH  18  19
HETATM   19  C23 UNK     1      27.652  -9.656  35.843  1.00  0.00     0.034 C 
HETATM   20  C24 UNK     1      28.787  -9.830  34.837  1.00  0.00     0.010 C 
ENDBRANCH  18  19
ENDBRANCH   7   8
ENDBRANCH   2   7
BRANCH   1  21
HETATM   21  C11 UNK     1      36.108  -6.948  35.004  1.00  0.00     0.374 C 
BRANCH  21  22
HETATM   22  C12 UNK     1      36.563  -7.508  33.672  1.00  0.00     0.246 C 
HETATM   23  N3  UNK     1      36.888  -8.854  33.761  1.00  0.00    -0.355 N 
HETATM   24  H20 UNK     1      36.721  -9.341  34.636  1.00  0.00     0.162 HD
HETATM   25  O1  UNK     1      36.648  -6.827  32.652  1.00  0.00    -0.272 OA
BRANCH  23  26
HETATM   26  C1  UNK     1      37.377  -9.627  32.641  1.00  0.00     0.084 C 
HETATM   27  C2  UNK     1      36.218 -10.180  31.805  1.00  0.00     0.025 C 
HETATM   28  C4  UNK     1      35.468 -11.306  32.517  1.00  0.00     0.002 C 
HETATM   29  C6  UNK     1      36.414 -12.416  32.966  1.00  0.00     0.000 C 
HETATM   30  C5  UNK     1      37.555 -11.874  33.821  1.00  0.00     0.002 C 
HETATM   31  C3  UNK     1      38.308 -10.750  33.111  1.00  0.00     0.025 C 
ENDBRANCH  23  26
ENDBRANCH  21  22
ENDBRANCH   1  21
TORSDOF 6
ENDMDL
MODEL 6
REMARK VINA RESULT:      -8.3     15.395     18.328
REMARK  6 active torsions:
REMARK  status: ('A' for Active; 'I' for Inactive)
REMARK    1  A    between atoms: C11_17  and  N1_4 
REMARK    2  A    between atoms: C13_19  and  N2_5 
REMARK    3  A    between atoms: C1_7  and  N3_6 
REMARK       I    between atoms: C12_18  and  N3_6 
REMARK    4  A    between atoms: C11_17  and  C12_18 
REMARK    5  A    between atoms: C13_19  and  C14_20 
REMARK    6  A    between atoms: C19_25  and  C23_29 
ROOT
HETATM    1  N1  UNK     1      30.503 -10.579  33.481  1.00  0.00     0.100 N 
HETATM    2  N2  UNK     1      30.707  -9.808  36.260  1.00  0.00     0.096 N 
HETATM    3  C7  UNK     1      29.385  -9.929  34.176  1.00  0.00     0.303 C 
HETATM    4  C8  UNK     1      31.315 -11.352  34.429  1.00  0.00     0.303 C 
HETATM    5  C9  UNK     1      29.894  -9.036  35.312  1.00  0.00     0.303 C 
HETATM    6  C10 UNK     1      31.826 -10.459  35.565  1.00  0.00     0.303 C 
ENDROOT
BRANCH   2   7
HETATM    7  C13 UNK     1      31.196  -8.954  37.341  1.00  0.00     0.312 C 
BRANCH   7   8
HETATM    8  C14 UNK     1      30.090  -8.232  38.028  1.00  0.00    -0.011 A 
HETATM    9  C15 UNK     1      30.063  -6.762  38.031  1.00  0.00     0.007 A 
HETATM   10  C17 UNK     1      29.014  -6.114  38.685  1.00  0.00     0.090 A 
HETATM   11  C18 UNK     1      31.037  -5.965  37.414  1.00  0.00     0.022 A 
HETATM   12  O2  UNK     1      27.996  -6.843  39.329  1.00  0.00    -0.275 OA
HETATM   13  C21 UNK     1      28.913  -4.723  38.735  1.00  0.00     0.039 A 
HETATM   14  C20 UNK     1      27.993  -8.230  39.342  1.00  0.00     0.288 A 
HETATM   15  C16 UNK     1      29.108  -8.899  38.650  1.00  0.00     0.092 A 
HETATM   16  O3  UNK     1      27.114  -8.874  39.902  1.00  0.00    -0.260 OA
HETATM   17  C22 UNK     1      29.889  -3.949  38.115  1.00  0.00     0.010 A 
HETATM   18  C19 UNK     1      30.949  -4.569  37.456  1.00  0.00    -0.058 A 
BRANCH  18  19
HETATM   19  C23 UNK     1      31.997  -3.740  36.791  1.00  0.00     0.034 C 
HETATM   20  C24 UNK     1      32.944  -4.577  35.937  1.00  0.00     0.010 C 
ENDBRANCH  18  19
ENDBRANCH   7   8
ENDBRANCH   2   7
BRANCH   1  21
HETATM   21  C11 UNK     1      30.017 -11.432  32.398  1.00  0.00     0.374 C 
BRANCH  21  22
HETATM   22  C12 UNK     1      30.159 -10.684  31.088  1.00  0.00     0.246 C 
HETATM   23  N3  UNK     1      29.090  -9.830  30.861  1.00  0.00    -0.355 N 
HETATM   24  H20 UNK     1      28.389  -9.719  31.588  1.00  0.00     0.162 HD
HETATM   25  O1  UNK     1      31.106 -10.850  30.322  1.00  0.00    -0.272 OA
BRANCH  23  26
HETATM   26  C1  UNK     1      28.963  -9.018  29.671  1.00  0.00     0.084 C 
HETATM   27  C2  UNK     1      29.851  -7.773  29.755  1.00  0.00     0.025 C 
HETATM   28  C4  UNK     1      29.326  -6.746  30.759  1.00  0.00     0.002 C 
HETATM   29  C6  UNK     1      27.872  -6.378  30.479  1.00  0.00     0.000 C 
HETATM   30  C5  UNK     1      26.978  -7.613  30.421  1.00  0.00     0.002 C 
HETATM   31  C3  UNK     1      27.499  -8.640  29.417  1.00  0.00     0.025 C 
ENDBRANCH  23  26
ENDBRANCH  21  22
ENDBRANCH   1  21
TORSDOF 6
ENDMDL
MODEL 7
REMARK VINA RESULT:      -8.3     16.015     19.356
REMARK  6 active torsions:
REMARK  status: ('A' for Active; 'I' for Inactive)
REMARK    1  A    between atoms: C11_17  and  N1_4 
REMARK    2  A    between atoms: C13_19  and  N2_5 
REMARK    3  A    between atoms: C1_7  and  N3_6 
REMARK       I    between atoms: C12_18  and  N3_6 
REMARK    4  A    between atoms: C11_17  and  C12_18 
REMARK    5  A    between atoms: C13_19  and  C14_20 
REMARK    6  A    between atoms: C19_25  and  C23_29 
ROOT
HETATM    1  N1  UNK     1      34.622  -6.583  35.411  1.00  0.00     0.100 N 
HETATM    2  N2  UNK     1      31.958  -5.638  36.019  1.00  0.00     0.096 N 
HETATM    3  C7  UNK     1      33.931  -6.990  36.641  1.00  0.00     0.303 C 
HETATM    4  C8  UNK     1      34.169  -5.253  34.985  1.00  0.00     0.303 C 
HETATM    5  C9  UNK     1      32.411  -6.968  36.445  1.00  0.00     0.303 C 
HETATM    6  C10 UNK     1      32.650  -5.230  34.789  1.00  0.00     0.303 C 
ENDROOT
BRANCH   2   7
HETATM    7  C13 UNK     1      30.509  -5.620  35.829  1.00  0.00     0.312 C 
BRANCH   7   8
HETATM    8  C14 UNK     1      29.774  -5.567  37.123  1.00  0.00    -0.011 A 
HETATM    9  C15 UNK     1      28.804  -6.618  37.460  1.00  0.00     0.007 A 
HETATM   10  C17 UNK     1      28.131  -6.541  38.679  1.00  0.00     0.090 A 
HETATM   11  C18 UNK     1      28.510  -7.703  36.622  1.00  0.00     0.022 A 
HETATM   12  O2  UNK     1      28.370  -5.483  39.578  1.00  0.00    -0.275 OA
HETATM   13  C21 UNK     1      27.195  -7.497  39.077  1.00  0.00     0.039 A 
HETATM   14  C20 UNK     1      29.280  -4.477  39.289  1.00  0.00     0.288 A 
HETATM   15  C16 UNK     1      29.982  -4.572  37.997  1.00  0.00     0.092 A 
HETATM   16  O3  UNK     1      29.494  -3.550  40.061  1.00  0.00    -0.260 OA
HETATM   17  C22 UNK     1      26.917  -8.566  38.231  1.00  0.00     0.010 A 
HETATM   18  C19 UNK     1      27.573  -8.669  37.006  1.00  0.00    -0.058 A 
BRANCH  18  19
HETATM   19  C23 UNK     1      27.276  -9.816  36.098  1.00  0.00     0.034 C 
HETATM   20  C24 UNK     1      26.061 -10.618  36.557  1.00  0.00     0.010 C 
ENDBRANCH  18  19
ENDBRANCH   7   8
ENDBRANCH   2   7
BRANCH   1  21
HETATM   21  C11 UNK     1      36.071  -6.603  35.598  1.00  0.00     0.374 C 
BRANCH  21  22
HETATM   22  C12 UNK     1      36.692  -7.454  34.509  1.00  0.00     0.246 C 
HETATM   23  N3  UNK     1      35.821  -8.437  34.061  1.00  0.00    -0.355 N 
HETATM   24  H20 UNK     1      34.869  -8.447  34.417  1.00  0.00     0.162 HD
HETATM   25  O1  UNK     1      37.840  -7.291  34.103  1.00  0.00    -0.272 OA
BRANCH  23  26
HETATM   26  C1  UNK     1      36.171  -9.403  33.045  1.00  0.00     0.084 C 
HETATM   27  C2  UNK     1      36.012  -8.810  31.641  1.00  0.00     0.025 C 
HETATM   28  C4  UNK     1      34.546  -8.623  31.247  1.00  0.00     0.002 C 
HETATM   29  C6  UNK     1      33.753  -9.918  31.401  1.00  0.00     0.000 C 
HETATM   30  C5  UNK     1      33.886 -10.499  32.805  1.00  0.00     0.002 C 
HETATM   31  C3  UNK     1      35.350 -10.688  33.201  1.00  0.00     0.025 C 
ENDBRANCH  23  26
ENDBRANCH  21  22
ENDBRANCH   1  21
TORSDOF 6
ENDMDL
MODEL 8
REMARK VINA RESULT:      -8.2     15.170     18.372
REMARK  6 active torsions:
REMARK  status: ('A' for Active; 'I' for Inactive)
REMARK    1  A    between atoms: C11_17  and  N1_4 
REMARK    2  A    between atoms: C13_19  and  N2_5 
REMARK    3  A    between atoms: C1_7  and  N3_6 
REMARK       I    between atoms: C12_18  and  N3_6 
REMARK    4  A    between atoms: C11_17  and  C12_18 
REMARK    5  A    between atoms: C13_19  and  C14_20 
REMARK    6  A    between atoms: C19_25  and  C23_29 
ROOT
HETATM    1  N1  UNK     1      30.340  -9.547  34.716  1.00  0.00     0.100 N 
HETATM    2  N2  UNK     1      31.072  -8.672  37.373  1.00  0.00     0.096 N 
HETATM    3  C7  UNK     1      29.337  -9.011  35.646  1.00  0.00     0.303 C 
HETATM    4  C8  UNK     1      31.433 -10.190  35.456  1.00  0.00     0.303 C 
HETATM    5  C9  UNK     1      29.979  -8.030  36.633  1.00  0.00     0.303 C 
HETATM    6  C10 UNK     1      32.075  -9.209  36.443  1.00  0.00     0.303 C 
ENDROOT
BRANCH   2   7
HETATM    7  C13 UNK     1      31.686  -7.734  38.311  1.00  0.00     0.312 C 
BRANCH   7   8
HETATM    8  C14 UNK     1      31.169  -6.348  38.137  1.00  0.00    -0.011 A 
HETATM    9  C15 UNK     1      31.895  -5.396  37.286  1.00  0.00     0.007 A 
HETATM   10  C17 UNK     1      31.387  -4.104  37.143  1.00  0.00     0.090 A 
HETATM   11  C18 UNK     1      33.080  -5.707  36.604  1.00  0.00     0.022 A 
HETATM   12  O2  UNK     1      30.202  -3.711  37.795  1.00  0.00    -0.275 OA
HETATM   13  C21 UNK     1      32.014  -3.138  36.354  1.00  0.00     0.039 A 
HETATM   14  C20 UNK     1      29.494  -4.588  38.603  1.00  0.00     0.288 A 
HETATM   15  C16 UNK     1      30.044  -5.947  38.746  1.00  0.00     0.092 A 
HETATM   16  O3  UNK     1      28.463  -4.257  39.177  1.00  0.00    -0.260 OA
HETATM   17  C22 UNK     1      33.188  -3.468  35.684  1.00  0.00     0.010 A 
HETATM   18  C19 UNK     1      33.720  -4.750  35.809  1.00  0.00    -0.058 A 
BRANCH  18  19
HETATM   19  C23 UNK     1      34.980  -5.104  35.092  1.00  0.00     0.034 C 
HETATM   20  C24 UNK     1      35.589  -6.408  35.599  1.00  0.00     0.010 C 
ENDBRANCH  18  19
ENDBRANCH   7   8
ENDBRANCH   2   7
BRANCH   1  21
HETATM   21  C11 UNK     1      29.728 -10.483  33.776  1.00  0.00     0.374 C 
BRANCH  21  22
HETATM   22  C12 UNK     1      30.093 -10.066  32.366  1.00  0.00     0.246 C 
HETATM   23  N3  UNK     1      29.087  -9.320  31.770  1.00  0.00    -0.355 N 
HETATM   24  H20 UNK     1      28.278  -9.059  32.325  1.00  0.00     0.162 HD
HETATM   25  O1  UNK     1      31.151 -10.383  31.826  1.00  0.00    -0.272 OA
BRANCH  23  26
HETATM   26  C1  UNK     1      29.167  -8.820  30.416  1.00  0.00     0.084 C 
HETATM   27  C2  UNK     1      29.879  -7.464  30.370  1.00  0.00     0.025 C 
HETATM   28  C4  UNK     1      29.028  -6.336  30.954  1.00  0.00     0.002 C 
HETATM   29  C6  UNK     1      27.654  -6.268  30.294  1.00  0.00     0.000 C 
HETATM   30  C5  UNK     1      26.929  -7.609  30.360  1.00  0.00     0.002 C 
HETATM   31  C3  UNK     1      27.776  -8.738  29.776  1.00  0.00     0.025 C 
ENDBRANCH  23  26
ENDBRANCH  21  22
ENDBRANCH   1  21
TORSDOF 6
ENDMDL
MODEL 9
REMARK VINA RESULT:      -8.1     15.242     18.006
REMARK  6 active torsions:
REMARK  status: ('A' for Active; 'I' for Inactive)
REMARK    1  A    between atoms: C11_17  and  N1_4 
REMARK    2  A    between atoms: C13_19  and  N2_5 
REMARK    3  A    between atoms: C1_7  and  N3_6 
REMARK       I    between atoms: C12_18  and  N3_6 
REMARK    4  A    between atoms: C11_17  and  C12_18 
REMARK    5  A    between atoms: C13_19  and  C14_20 
REMARK    6  A    between atoms: C19_25  and  C23_29 
ROOT
HETATM    1  N1  UNK     1      30.946 -10.221  33.614  1.00  0.00     0.100 N 
HETATM    2  N2  UNK     1      31.407  -8.553  35.930  1.00  0.00     0.096 N 
HETATM    3  C7  UNK     1      30.450  -8.841  33.669  1.00  0.00     0.303 C 
HETATM    4  C8  UNK     1      31.019 -10.794  34.963  1.00  0.00     0.303 C 
HETATM    5  C9  UNK     1      31.333  -7.980  34.581  1.00  0.00     0.303 C 
HETATM    6  C10 UNK     1      31.902  -9.935  35.875  1.00  0.00     0.303 C 
ENDROOT
BRANCH   2   7
HETATM    7  C13 UNK     1      32.252  -7.734  36.797  1.00  0.00     0.312 C 
BRANCH   7   8
HETATM    8  C14 UNK     1      31.667  -6.386  37.039  1.00  0.00    -0.011 A 
HETATM    9  C15 UNK     1      30.405  -6.257  37.780  1.00  0.00     0.007 A 
HETATM   10  C17 UNK     1      29.881  -4.981  37.990  1.00  0.00     0.090 A 
HETATM   11  C18 UNK     1      29.687  -7.347  38.291  1.00  0.00     0.022 A 
HETATM   12  O2  UNK     1      30.541  -3.833  37.509  1.00  0.00    -0.275 OA
HETATM   13  C21 UNK     1      28.688  -4.769  38.684  1.00  0.00     0.039 A 
HETATM   14  C20 UNK     1      31.734  -3.924  36.808  1.00  0.00     0.288 A 
HETATM   15  C16 UNK     1      32.274  -5.277  36.592  1.00  0.00     0.092 A 
HETATM   16  O3  UNK     1      32.316  -2.933  36.382  1.00  0.00    -0.260 OA
HETATM   17  C22 UNK     1      27.991  -5.864  39.184  1.00  0.00     0.010 A 
HETATM   18  C19 UNK     1      28.490  -7.151  38.988  1.00  0.00    -0.058 A 
BRANCH  18  19
HETATM   19  C23 UNK     1      27.743  -8.326  39.524  1.00  0.00     0.034 C 
HETATM   20  C24 UNK     1      28.358  -9.653  39.088  1.00  0.00     0.010 C 
ENDBRANCH  18  19
ENDBRANCH   7   8
ENDBRANCH   2   7
BRANCH   1  21
HETATM   21  C11 UNK     1      30.104 -11.042  32.746  1.00  0.00     0.374 C 
BRANCH  21  22
HETATM   22  C12 UNK     1      30.135 -10.462  31.346  1.00  0.00     0.246 C 
HETATM   23  N3  UNK     1      28.997  -9.718  31.069  1.00  0.00    -0.355 N 
HETATM   24  H20 UNK     1      28.322  -9.562  31.811  1.00  0.00     0.162 HD
HETATM   25  O1  UNK     1      31.059 -10.660  30.560  1.00  0.00    -0.272 OA
BRANCH  23  26
HETATM   26  C1  UNK     1      28.761  -9.078  29.794  1.00  0.00     0.084 C 
HETATM   27  C2  UNK     1      29.696  -7.881  29.596  1.00  0.00     0.025 C 
HETATM   28  C4  UNK     1      29.329  -6.697  30.491  1.00  0.00     0.002 C 
HETATM   29  C6  UNK     1      27.866  -6.297  30.322  1.00  0.00     0.000 C 
HETATM   30  C5  UNK     1      26.928  -7.479  30.545  1.00  0.00     0.002 C 
HETATM   31  C3  UNK     1      27.292  -8.664  29.651  1.00  0.00     0.025 C 
ENDBRANCH  23  26
ENDBRANCH  21  22
ENDBRANCH   1  21
TORSDOF 6
ENDMDL
MODEL 10
REMARK VINA RESULT:      -8.1     13.785     15.870
REMARK  6 active torsions:
REMARK  status: ('A' for Active; 'I' for Inactive)
REMARK    1  A    between atoms: C11_17  and  N1_4 
REMARK    2  A    between atoms: C13_19  and  N2_5 
REMARK    3  A    between atoms: C1_7  and  N3_6 
REMARK       I    between atoms: C12_18  and  N3_6 
REMARK    4  A    between atoms: C11_17  and  C12_18 
REMARK    5  A    between atoms: C13_19  and  C14_20 
REMARK    6  A    between atoms: C19_25  and  C23_29 
ROOT
HETATM    1  N1  UNK     1      25.933  -8.479  37.717  1.00  0.00     0.100 N 
HETATM    2  N2  UNK     1      28.339  -8.978  36.193  1.00  0.00     0.096 N 
HETATM    3  C7  UNK     1      27.004  -7.478  37.634  1.00  0.00     0.303 C 
HETATM    4  C8  UNK     1      26.486  -9.833  37.586  1.00  0.00     0.303 C 
HETATM    5  C9  UNK     1      27.787  -7.625  36.324  1.00  0.00     0.303 C 
HETATM    6  C10 UNK     1      27.268  -9.980  36.277  1.00  0.00     0.303 C 
ENDROOT
BRANCH   2   7
HETATM    7  C13 UNK     1      29.081  -9.117  34.941  1.00  0.00     0.312 C 
BRANCH   7   8
HETATM    8  C14 UNK     1      29.746  -7.846  34.539  1.00  0.00    -0.011 A 
HETATM    9  C15 UNK     1      29.339  -7.165  33.303  1.00  0.00     0.007 A 
HETATM   10  C17 UNK     1      29.980  -5.976  32.952  1.00  0.00     0.090 A 
HETATM   11  C18 UNK     1      28.337  -7.640  32.445  1.00  0.00     0.022 A 
HETATM   12  O2  UNK     1      30.997  -5.431  33.761  1.00  0.00    -0.275 OA
HETATM   13  C21 UNK     1      29.654  -5.265  31.796  1.00  0.00     0.039 A 
HETATM   14  C20 UNK     1      31.402  -6.051  34.933  1.00  0.00     0.288 A 
HETATM   15  C16 UNK     1      30.716  -7.305  35.289  1.00  0.00     0.092 A 
HETATM   16  O3  UNK     1      32.287  -5.587  35.643  1.00  0.00    -0.260 OA
HETATM   17  C22 UNK     1      28.657  -5.754  30.958  1.00  0.00     0.010 A 
HETATM   18  C19 UNK     1      27.999  -6.939  31.282  1.00  0.00    -0.058 A 
BRANCH  18  19
HETATM   19  C23 UNK     1      26.929  -7.464  30.384  1.00  0.00     0.034 C 
HETATM   20  C24 UNK     1      25.860  -6.418  30.083  1.00  0.00     0.010 C 
ENDBRANCH  18  19
ENDBRANCH   7   8
ENDBRANCH   2   7
BRANCH   1  21
HETATM   21  C11 UNK     1      25.189  -8.341  38.967  1.00  0.00     0.374 C 
BRANCH  21  22
HETATM   22  C12 UNK     1      23.873  -7.649  38.676  1.00  0.00     0.246 C 
HETATM   23  N3  UNK     1      22.926  -8.528  38.169  1.00  0.00    -0.355 N 
HETATM   24  H20 UNK     1      23.153  -9.516  38.121  1.00  0.00     0.162 HD
HETATM   25  O1  UNK     1      23.695  -6.445  38.852  1.00  0.00    -0.272 OA
BRANCH  23  26
HETATM   26  C1  UNK     1      21.594  -8.121  37.782  1.00  0.00     0.084 C 
HETATM   27  C2  UNK     1      20.639  -8.147  38.979  1.00  0.00     0.025 C 
HETATM   28  C4  UNK     1      20.297  -9.570  39.424  1.00  0.00     0.002 C 
HETATM   29  C6  UNK     1      19.764 -10.408  38.266  1.00  0.00     0.000 C 
HETATM   30  C5  UNK     1      20.724 -10.408  37.080  1.00  0.00     0.002 C 
HETATM   31  C3  UNK     1      21.067  -8.988  36.632  1.00  0.00     0.025 C 
ENDBRANCH  23  26
ENDBRANCH  21  22
ENDBRANCH   1  21
TORSDOF 6
ENDMDL
