MODEL 1
REMARK VINA RESULT:      -9.5      0.000      0.000
REMARK  8 active torsions:
REMARK  status: ('A' for Active; 'I' for Inactive)
REMARK    1  A    between atoms: C1_11  and  O1_1 
REMARK    2  A    between atoms: C9_19  and  O1_1 
REMARK    3  A    between atoms: C11_21  and  O3_3 
REMARK    4  A    between atoms: C14_24  and  O3_3 
REMARK    5  A    between atoms: C5_15  and  N1_9 
REMARK       I    between atoms: C9_19  and  N1_9 
REMARK    6  A    between atoms: C23_33  and  N2_10 
REMARK    7  A    between atoms: C14_24  and  C5_15 
REMARK    8  A    between atoms: C12_22  and  C8_18 
ROOT
HETATM    1  O2  UNK     1      17.900   4.033  33.194  1.00  0.00    -0.321 OA
HETATM    2  O5  UNK     1      18.598   6.967  30.445  1.00  0.00    -0.286 OA
HETATM    3  C6  UNK     1      18.415   4.666  30.908  1.00  0.00     0.049 A 
HETATM    4  C7  UNK     1      18.180   3.706  31.892  1.00  0.00     0.091 A 
HETATM    5  C8  UNK     1      18.042   6.405  32.691  1.00  0.00     0.048 A 
HETATM    6  C10 UNK     1      18.368   6.093  31.272  1.00  0.00     0.197 A 
HETATM    7  C11 UNK     1      18.504   1.955  30.261  1.00  0.00     0.082 A 
HETATM    8  C13 UNK     1      18.224   2.349  31.570  1.00  0.00     0.075 A 
HETATM    9  C15 UNK     1      18.697   4.273  29.596  1.00  0.00     0.021 A 
HETATM   10  C17 UNK     1      18.740   2.916  29.277  1.00  0.00     0.038 A 
HETATM   11  C18 UNK     1      17.838   5.367  33.516  1.00  0.00     0.159 A 
ENDROOT
BRANCH   7  12
HETATM   12  O3  UNK     1      18.546   0.632  29.944  1.00  0.00    -0.277 OA
BRANCH  12  13
HETATM   13  C14 UNK     1      19.812   0.039  30.082  1.00  0.00     0.286 C 
HETATM   14  O6  UNK     1      20.763   0.251  29.336  1.00  0.00    -0.263 OA
BRANCH  13  15
HETATM   15  C5  UNK     1      19.894  -0.906  31.273  1.00  0.00     0.183 C 
HETATM   16  C16 UNK     1      20.187  -2.323  30.803  1.00  0.00     0.043 C 
BRANCH  15  17
HETATM   17  N1  UNK     1      18.692  -0.880  32.066  1.00  0.00    -0.323 N 
HETATM   18  C9  UNK     1      18.663  -1.104  33.428  1.00  0.00     0.362 C 
HETATM   19  O4  UNK     1      19.638  -1.349  34.133  1.00  0.00    -0.238 OA
HETATM   20  H11 UNK     1      17.818  -0.633  31.611  1.00  0.00     0.165 HD
BRANCH  18  21
HETATM   21  O1  UNK     1      17.379  -1.012  33.886  1.00  0.00    -0.294 OA
BRANCH  21  22
HETATM   22  C1  UNK     1      17.198  -0.258  35.091  1.00  0.00     0.061 C 
HETATM   23  C2  UNK     1      18.084   0.985  35.025  1.00  0.00     0.046 C 
HETATM   24  C3  UNK     1      15.725   0.135  35.171  1.00  0.00     0.046 C 
HETATM   25  C4  UNK     1      17.584  -1.139  36.277  1.00  0.00     0.046 C 
ENDBRANCH  21  22
ENDBRANCH  18  21
ENDBRANCH  15  17
ENDBRANCH  13  15
ENDBRANCH  12  13
ENDBRANCH   7  12
BRANCH   5  26
HETATM   26  C12 UNK     1      17.924   7.789  33.179  1.00  0.00    -0.020 A 
HETATM   27  C19 UNK     1      19.036   8.440  33.716  1.00  0.00     0.015 A 
HETATM   28  C21 UNK     1      18.924   9.752  34.175  1.00  0.00     0.037 A 
HETATM   29  C23 UNK     1      17.700  10.418  34.097  1.00  0.00     0.102 A 
HETATM   30  C22 UNK     1      16.588   9.769  33.560  1.00  0.00     0.037 A 
HETATM   31  C20 UNK     1      16.699   8.457  33.101  1.00  0.00     0.015 A 
BRANCH  29  32
HETATM   32  N2  UNK     1      17.585  11.753  34.565  1.00  0.00    -0.116 N 
HETATM   33  O7  UNK     1      16.453  12.190  34.882  1.00  0.00    -0.532 OA
HETATM   34  O8  UNK     1      18.619  12.458  34.649  1.00  0.00    -0.532 OA
ENDBRANCH  29  32
ENDBRANCH   5  26
TORSDOF 8
ENDMDL
MODEL 2
REMARK VINA RESULT:      -9.1      1.856      2.844
REMARK  8 active torsions:
REMARK  status: ('A' for Active; 'I' for Inactive)
REMARK    1  A    between atoms: C1_11  and  O1_1 
REMARK    2  A    between atoms: C9_19  and  O1_1 
REMARK    3  A    between atoms: C11_21  and  O3_3 
REMARK    4  A    between atoms: C14_24  and  O3_3 
REMARK    5  A    between atoms: C5_15  and  N1_9 
REMARK       I    between atoms: C9_19  and  N1_9 
REMARK    6  A    between atoms: C23_33  and  N2_10 
REMARK    7  A    between atoms: C14_24  and  C5_15 
REMARK    8  A    between atoms: C12_22  and  C8_18 
ROOT
HETATM    1  O2  UNK     1      17.280   7.483  30.690  1.00  0.00    -0.321 OA
HETATM    2  O5  UNK     1      16.887   6.598  34.653  1.00  0.00    -0.286 OA
HETATM    3  C6  UNK     1      17.617   5.923  32.519  1.00  0.00     0.049 A 
HETATM    4  C7  UNK     1      17.715   6.275  31.173  1.00  0.00     0.091 A 
HETATM    5  C8  UNK     1      16.579   8.186  32.906  1.00  0.00     0.048 A 
HETATM    6  C10 UNK     1      17.020   6.879  33.469  1.00  0.00     0.197 A 
HETATM    7  C11 UNK     1      18.733   4.140  30.689  1.00  0.00     0.082 A 
HETATM    8  C13 UNK     1      18.273   5.383  30.256  1.00  0.00     0.075 A 
HETATM    9  C15 UNK     1      18.076   4.678  32.955  1.00  0.00     0.021 A 
HETATM   10  C17 UNK     1      18.633   3.788  32.036  1.00  0.00     0.038 A 
HETATM   11  C18 UNK     1      16.745   8.373  31.587  1.00  0.00     0.159 A 
ENDROOT
BRANCH   7  12
HETATM   12  O3  UNK     1      19.279   3.269  29.798  1.00  0.00    -0.277 OA
BRANCH  12  13
HETATM   13  C14 UNK     1      18.579   2.057  29.661  1.00  0.00     0.286 C 
HETATM   14  O6  UNK     1      17.468   1.952  29.151  1.00  0.00    -0.263 OA
BRANCH  13  15
HETATM   15  C5  UNK     1      19.351   0.865  30.209  1.00  0.00     0.183 C 
HETATM   16  C16 UNK     1      19.787  -0.048  29.073  1.00  0.00     0.043 C 
BRANCH  15  17
HETATM   17  N1  UNK     1      18.585   0.126  31.179  1.00  0.00    -0.323 N 
HETATM   18  C9  UNK     1      19.140  -0.736  32.104  1.00  0.00     0.362 C 
HETATM   19  O4  UNK     1      20.336  -0.983  32.222  1.00  0.00    -0.238 OA
HETATM   20  H11 UNK     1      17.582   0.282  31.224  1.00  0.00     0.165 HD
BRANCH  18  21
HETATM   21  O1  UNK     1      18.155  -1.282  32.878  1.00  0.00    -0.294 OA
BRANCH  21  22
HETATM   22  C1  UNK     1      17.995  -0.708  34.181  1.00  0.00     0.061 C 
HETATM   23  C2  UNK     1      18.227   0.799  34.081  1.00  0.00     0.046 C 
HETATM   24  C3  UNK     1      16.570  -1.003  34.642  1.00  0.00     0.046 C 
HETATM   25  C4  UNK     1      19.010  -1.353  35.124  1.00  0.00     0.046 C 
ENDBRANCH  21  22
ENDBRANCH  18  21
ENDBRANCH  15  17
ENDBRANCH  13  15
ENDBRANCH  12  13
ENDBRANCH   7  12
BRANCH   5  26
HETATM   26  C12 UNK     1      16.002   9.244  33.750  1.00  0.00    -0.020 A 
HETATM   27  C19 UNK     1      16.773  10.350  34.113  1.00  0.00     0.015 A 
HETATM   28  C21 UNK     1      16.223  11.354  34.911  1.00  0.00     0.037 A 
HETATM   29  C23 UNK     1      14.902  11.255  35.347  1.00  0.00     0.102 A 
HETATM   30  C22 UNK     1      14.130  10.151  34.985  1.00  0.00     0.037 A 
HETATM   31  C20 UNK     1      14.678   9.147  34.187  1.00  0.00     0.015 A 
BRANCH  29  32
HETATM   32  N2  UNK     1      14.343  12.276  36.160  1.00  0.00    -0.116 N 
HETATM   33  O7  UNK     1      13.316  12.876  35.760  1.00  0.00    -0.532 OA
HETATM   34  O8  UNK     1      14.890  12.549  37.254  1.00  0.00    -0.532 OA
ENDBRANCH  29  32
ENDBRANCH   5  26
TORSDOF 8
ENDMDL
MODEL 3
REMARK VINA RESULT:      -9.0      2.407      4.222
REMARK  8 active torsions:
REMARK  status: ('A' for Active; 'I' for Inactive)
REMARK    1  A    between atoms: C1_11  and  O1_1 
REMARK    2  A    between atoms: C9_19  and  O1_1 
REMARK    3  A    between atoms: C11_21  and  O3_3 
REMARK    4  A    between atoms: C14_24  and  O3_3 
REMARK    5  A    between atoms: C5_15  and  N1_9 
REMARK       I    between atoms: C9_19  and  N1_9 
REMARK    6  A    between atoms: C23_33  and  N2_10 
REMARK    7  A    between atoms: C14_24  and  C5_15 
REMARK    8  A    between atoms: C12_22  and  C8_18 
ROOT
HETATM    1  O2  UNK     1      16.010   7.886  31.684  1.00  0.00    -0.321 OA
HETATM    2  O5  UNK     1      18.604   9.025  34.621  1.00  0.00    -0.286 OA
HETATM    3  C6  UNK     1      18.148   7.605  32.800  1.00  0.00     0.049 A 
HETATM    4  C7  UNK     1      17.218   7.251  31.822  1.00  0.00     0.091 A 
HETATM    5  C8  UNK     1      16.515   9.378  33.533  1.00  0.00     0.048 A 
HETATM    6  C10 UNK     1      17.828   8.703  33.730  1.00  0.00     0.197 A 
HETATM    7  C11 UNK     1      18.711   5.529  31.026  1.00  0.00     0.082 A 
HETATM    8  C13 UNK     1      17.498   6.212  30.935  1.00  0.00     0.075 A 
HETATM    9  C15 UNK     1      19.363   6.921  32.894  1.00  0.00     0.021 A 
HETATM   10  C17 UNK     1      19.641   5.883  32.005  1.00  0.00     0.038 A 
HETATM   11  C18 UNK     1      15.733   8.921  32.543  1.00  0.00     0.159 A 
ENDROOT
BRANCH   7  12
HETATM   12  O3  UNK     1      18.988   4.516  30.161  1.00  0.00    -0.277 OA
BRANCH  12  13
HETATM   13  C14 UNK     1      18.429   3.276  30.514  1.00  0.00     0.286 C 
HETATM   14  O6  UNK     1      17.523   3.130  31.329  1.00  0.00    -0.263 OA
BRANCH  13  15
HETATM   15  C5  UNK     1      19.062   2.109  29.768  1.00  0.00     0.183 C 
HETATM   16  C16 UNK     1      18.013   1.382  28.940  1.00  0.00     0.043 C 
BRANCH  15  17
HETATM   17  N1  UNK     1      19.719   1.191  30.662  1.00  0.00    -0.323 N 
HETATM   18  C9  UNK     1      20.541   0.163  30.242  1.00  0.00     0.362 C 
HETATM   19  O4  UNK     1      20.816  -0.101  29.076  1.00  0.00    -0.238 OA
HETATM   20  H11 UNK     1      19.618   1.333  31.662  1.00  0.00     0.165 HD
BRANCH  18  21
HETATM   21  O1  UNK     1      21.009  -0.528  31.324  1.00  0.00    -0.294 OA
BRANCH  21  22
HETATM   22  C1  UNK     1      20.325  -1.749  31.629  1.00  0.00     0.061 C 
HETATM   23  C2  UNK     1      18.939  -1.409  32.173  1.00  0.00     0.046 C 
HETATM   24  C3  UNK     1      20.212  -2.548  30.333  1.00  0.00     0.046 C 
HETATM   25  C4  UNK     1      21.143  -2.519  32.665  1.00  0.00     0.046 C 
ENDBRANCH  21  22
ENDBRANCH  18  21
ENDBRANCH  15  17
ENDBRANCH  13  15
ENDBRANCH  12  13
ENDBRANCH   7  12
BRANCH   5  26
HETATM   26  C12 UNK     1      16.089  10.513  34.367  1.00  0.00    -0.020 A 
HETATM   27  C19 UNK     1      16.813  11.706  34.351  1.00  0.00     0.015 A 
HETATM   28  C21 UNK     1      16.406  12.783  35.140  1.00  0.00     0.037 A 
HETATM   29  C23 UNK     1      15.273  12.669  35.946  1.00  0.00     0.102 A 
HETATM   30  C22 UNK     1      14.548  11.477  35.963  1.00  0.00     0.037 A 
HETATM   31  C20 UNK     1      14.954  10.401  35.174  1.00  0.00     0.015 A 
BRANCH  29  32
HETATM   32  N2  UNK     1      14.859  13.763  36.750  1.00  0.00    -0.116 N 
HETATM   33  O7  UNK     1      15.128  13.753  37.975  1.00  0.00    -0.532 OA
HETATM   34  O8  UNK     1      14.235  14.710  36.212  1.00  0.00    -0.532 OA
ENDBRANCH  29  32
ENDBRANCH   5  26
TORSDOF 8
ENDMDL
MODEL 4
REMARK VINA RESULT:      -8.7     23.631     25.196
REMARK  8 active torsions:
REMARK  status: ('A' for Active; 'I' for Inactive)
REMARK    1  A    between atoms: C1_11  and  O1_1 
REMARK    2  A    between atoms: C9_19  and  O1_1 
REMARK    3  A    between atoms: C11_21  and  O3_3 
REMARK    4  A    between atoms: C14_24  and  O3_3 
REMARK    5  A    between atoms: C5_15  and  N1_9 
REMARK       I    between atoms: C9_19  and  N1_9 
REMARK    6  A    between atoms: C23_33  and  N2_10 
REMARK    7  A    between atoms: C14_24  and  C5_15 
REMARK    8  A    between atoms: C12_22  and  C8_18 
ROOT
HETATM    1  O2  UNK     1      14.325  10.197   8.662  1.00  0.00    -0.321 OA
HETATM    2  O5  UNK     1      17.612   8.206  10.032  1.00  0.00    -0.286 OA
HETATM    3  C6  UNK     1      15.310   8.161   9.542  1.00  0.00     0.049 A 
HETATM    4  C7  UNK     1      14.219   8.894   9.075  1.00  0.00     0.091 A 
HETATM    5  C8  UNK     1      16.709  10.213   9.123  1.00  0.00     0.048 A 
HETATM    6  C10 UNK     1      16.635   8.805   9.600  1.00  0.00     0.197 A 
HETATM    7  C11 UNK     1      12.787   6.982   9.423  1.00  0.00     0.082 A 
HETATM    8  C13 UNK     1      12.955   8.306   9.016  1.00  0.00     0.075 A 
HETATM    9  C15 UNK     1      15.142   6.836   9.952  1.00  0.00     0.021 A 
HETATM   10  C17 UNK     1      13.878   6.249   9.891  1.00  0.00     0.038 A 
HETATM   11  C18 UNK     1      15.568  10.779   8.701  1.00  0.00     0.159 A 
ENDROOT
BRANCH   7  12
HETATM   12  O3  UNK     1      11.555   6.405   9.365  1.00  0.00    -0.277 OA
BRANCH  12  13
HETATM   13  C14 UNK     1      11.412   5.433   8.360  1.00  0.00     0.286 C 
HETATM   14  O6  UNK     1      11.958   4.334   8.376  1.00  0.00    -0.263 OA
BRANCH  13  15
HETATM   15  C5  UNK     1      10.493   5.881   7.233  1.00  0.00     0.183 C 
HETATM   16  C16 UNK     1      11.283   6.636   6.176  1.00  0.00     0.043 C 
BRANCH  15  17
HETATM   17  N1  UNK     1       9.402   6.689   7.715  1.00  0.00    -0.323 N 
HETATM   18  C9  UNK     1       8.116   6.218   7.896  1.00  0.00     0.362 C 
HETATM   19  O4  UNK     1       7.738   5.072   7.676  1.00  0.00    -0.238 OA
HETATM   20  H11 UNK     1       9.595   7.648   7.988  1.00  0.00     0.165 HD
BRANCH  18  21
HETATM   21  O1  UNK     1       7.316   7.224   8.361  1.00  0.00    -0.294 OA
BRANCH  21  22
HETATM   22  C1  UNK     1       7.262   7.370   9.785  1.00  0.00     0.061 C 
HETATM   23  C2  UNK     1       8.232   8.476  10.199  1.00  0.00     0.046 C 
HETATM   24  C3  UNK     1       5.829   7.747  10.155  1.00  0.00     0.046 C 
HETATM   25  C4  UNK     1       7.650   6.038  10.426  1.00  0.00     0.046 C 
ENDBRANCH  21  22
ENDBRANCH  18  21
ENDBRANCH  15  17
ENDBRANCH  13  15
ENDBRANCH  12  13
ENDBRANCH   7  12
BRANCH   5  26
HETATM   26  C12 UNK     1      17.977  10.961   9.092  1.00  0.00    -0.020 A 
HETATM   27  C19 UNK     1      18.562  11.400  10.281  1.00  0.00     0.015 A 
HETATM   28  C21 UNK     1      19.765  12.105  10.250  1.00  0.00     0.037 A 
HETATM   29  C23 UNK     1      20.387  12.373   9.030  1.00  0.00     0.102 A 
HETATM   30  C22 UNK     1      19.804  11.934   7.840  1.00  0.00     0.037 A 
HETATM   31  C20 UNK     1      18.601  11.229   7.871  1.00  0.00     0.015 A 
BRANCH  29  32
HETATM   32  N2  UNK     1      21.611  13.091   8.997  1.00  0.00    -0.116 N 
HETATM   33  O7  UNK     1      22.156  13.411  10.080  1.00  0.00    -0.532 OA
HETATM   34  O8  UNK     1      22.113  13.386   7.886  1.00  0.00    -0.532 OA
ENDBRANCH  29  32
ENDBRANCH   5  26
TORSDOF 8
ENDMDL
MODEL 5
REMARK VINA RESULT:      -8.6     14.185     16.583
REMARK  8 active torsions:
REMARK  status: ('A' for Active; 'I' for Inactive)
REMARK    1  A    between atoms: C1_11  and  O1_1 
REMARK    2  A    between atoms: C9_19  and  O1_1 
REMARK    3  A    between atoms: C11_21  and  O3_3 
REMARK    4  A    between atoms: C14_24  and  O3_3 
REMARK    5  A    between atoms: C5_15  and  N1_9 
REMARK       I    between atoms: C9_19  and  N1_9 
REMARK    6  A    between atoms: C23_33  and  N2_10 
REMARK    7  A    between atoms: C14_24  and  C5_15 
REMARK    8  A    between atoms: C12_22  and  C8_18 
ROOT
HETATM    1  O2  UNK     1      25.918  -5.198  38.806  1.00  0.00    -0.321 OA
HETATM    2  O5  UNK     1      25.976  -9.264  38.472  1.00  0.00    -0.286 OA
HETATM    3  C6  UNK     1      27.194  -7.255  38.631  1.00  0.00     0.049 A 
HETATM    4  C7  UNK     1      27.113  -5.867  38.734  1.00  0.00     0.091 A 
HETATM    5  C8  UNK     1      24.676  -7.281  38.693  1.00  0.00     0.048 A 
HETATM    6  C10 UNK     1      25.950  -8.046  38.592  1.00  0.00     0.197 A 
HETATM    7  C11 UNK     1      29.522  -5.724  38.698  1.00  0.00     0.082 A 
HETATM    8  C13 UNK     1      28.278  -5.099  38.767  1.00  0.00     0.075 A 
HETATM    9  C15 UNK     1      28.440  -7.883  38.559  1.00  0.00     0.021 A 
HETATM   10  C17 UNK     1      29.603  -7.114  38.593  1.00  0.00     0.038 A 
HETATM   11  C18 UNK     1      24.766  -5.946  38.791  1.00  0.00     0.159 A 
ENDROOT
BRANCH   7  12
HETATM   12  O3  UNK     1      30.661  -4.979  38.732  1.00  0.00    -0.277 OA
BRANCH  12  13
HETATM   13  C14 UNK     1      30.939  -4.283  37.543  1.00  0.00     0.286 C 
HETATM   14  O6  UNK     1      30.669  -3.101  37.352  1.00  0.00    -0.263 OA
BRANCH  13  15
HETATM   15  C5  UNK     1      31.628  -5.150  36.499  1.00  0.00     0.183 C 
HETATM   16  C16 UNK     1      33.003  -4.590  36.172  1.00  0.00     0.043 C 
BRANCH  15  17
HETATM   17  N1  UNK     1      30.841  -5.277  35.299  1.00  0.00    -0.323 N 
HETATM   18  C9  UNK     1      30.718  -6.449  34.579  1.00  0.00     0.362 C 
HETATM   19  O4  UNK     1      31.251  -7.518  34.858  1.00  0.00    -0.238 OA
HETATM   20  H11 UNK     1      30.301  -4.475  34.987  1.00  0.00     0.165 HD
BRANCH  18  21
HETATM   21  O1  UNK     1      29.908  -6.246  33.497  1.00  0.00    -0.294 OA
BRANCH  21  22
HETATM   22  C1  UNK     1      28.607  -6.841  33.571  1.00  0.00     0.061 C 
HETATM   23  C2  UNK     1      28.156  -6.848  35.030  1.00  0.00     0.046 C 
HETATM   24  C3  UNK     1      27.664  -5.992  32.721  1.00  0.00     0.046 C 
HETATM   25  C4  UNK     1      28.692  -8.264  33.021  1.00  0.00     0.046 C 
ENDBRANCH  21  22
ENDBRANCH  18  21
ENDBRANCH  15  17
ENDBRANCH  13  15
ENDBRANCH  12  13
ENDBRANCH   7  12
BRANCH   5  26
HETATM   26  C12 UNK     1      23.364  -7.950  38.706  1.00  0.00    -0.020 A 
HETATM   27  C19 UNK     1      22.819  -8.449  37.522  1.00  0.00     0.015 A 
HETATM   28  C21 UNK     1      21.578  -9.085  37.536  1.00  0.00     0.037 A 
HETATM   29  C23 UNK     1      20.878  -9.224  38.735  1.00  0.00     0.102 A 
HETATM   30  C22 UNK     1      21.421  -8.726  39.920  1.00  0.00     0.037 A 
HETATM   31  C20 UNK     1      22.663  -8.090  39.906  1.00  0.00     0.015 A 
BRANCH  29  32
HETATM   32  N2  UNK     1      19.614  -9.870  38.750  1.00  0.00    -0.116 N 
HETATM   33  O7  UNK     1      19.436 -10.836  39.530  1.00  0.00    -0.532 OA
HETATM   34  O8  UNK     1      18.711  -9.456  37.984  1.00  0.00    -0.532 OA
ENDBRANCH  29  32
ENDBRANCH   5  26
TORSDOF 8
ENDMDL
MODEL 6
REMARK VINA RESULT:      -8.6      2.921      4.583
REMARK  8 active torsions:
REMARK  status: ('A' for Active; 'I' for Inactive)
REMARK    1  A    between atoms: C1_11  and  O1_1 
REMARK    2  A    between atoms: C9_19  and  O1_1 
REMARK    3  A    between atoms: C11_21  and  O3_3 
REMARK    4  A    between atoms: C14_24  and  O3_3 
REMARK    5  A    between atoms: C5_15  and  N1_9 
REMARK       I    between atoms: C9_19  and  N1_9 
REMARK    6  A    between atoms: C23_33  and  N2_10 
REMARK    7  A    between atoms: C14_24  and  C5_15 
REMARK    8  A    between atoms: C12_22  and  C8_18 
ROOT
HETATM    1  O2  UNK     1      15.181   6.901  32.833  1.00  0.00    -0.321 OA
HETATM    2  O5  UNK     1      16.996  10.302  34.170  1.00  0.00    -0.286 OA
HETATM    3  C6  UNK     1      17.224   8.121  33.312  1.00  0.00     0.049 A 
HETATM    4  C7  UNK     1      16.550   6.980  32.876  1.00  0.00     0.091 A 
HETATM    5  C8  UNK     1      14.962   9.170  33.669  1.00  0.00     0.048 A 
HETATM    6  C10 UNK     1      16.444   9.292  33.751  1.00  0.00     0.197 A 
HETATM    7  C11 UNK     1      18.663   5.882  32.482  1.00  0.00     0.082 A 
HETATM    8  C13 UNK     1      17.268   5.859  32.461  1.00  0.00     0.075 A 
HETATM    9  C15 UNK     1      18.621   8.145  33.336  1.00  0.00     0.021 A 
HETATM   10  C17 UNK     1      19.337   7.023  32.920  1.00  0.00     0.038 A 
HETATM   11  C18 UNK     1      14.465   8.006  33.224  1.00  0.00     0.159 A 
ENDROOT
BRANCH   7  12
HETATM   12  O3  UNK     1      19.367   4.790  32.076  1.00  0.00    -0.277 OA
BRANCH  12  13
HETATM   13  C14 UNK     1      18.992   4.287  30.819  1.00  0.00     0.286 C 
HETATM   14  O6  UNK     1      18.904   4.965  29.799  1.00  0.00    -0.263 OA
BRANCH  13  15
HETATM   15  C5  UNK     1      18.707   2.792  30.842  1.00  0.00     0.183 C 
HETATM   16  C16 UNK     1      17.999   2.371  29.563  1.00  0.00     0.043 C 
BRANCH  15  17
HETATM   17  N1  UNK     1      17.932   2.408  31.993  1.00  0.00    -0.323 N 
HETATM   18  C9  UNK     1      18.202   1.297  32.768  1.00  0.00     0.362 C 
HETATM   19  O4  UNK     1      19.119   0.503  32.583  1.00  0.00    -0.238 OA
HETATM   20  H11 UNK     1      17.172   3.014  32.289  1.00  0.00     0.165 HD
BRANCH  18  21
HETATM   21  O1  UNK     1      17.289   1.206  33.781  1.00  0.00    -0.294 OA
BRANCH  21  22
HETATM   22  C1  UNK     1      17.826   0.938  35.082  1.00  0.00     0.061 C 
HETATM   23  C2  UNK     1      18.789   2.065  35.453  1.00  0.00     0.046 C 
HETATM   24  C3  UNK     1      16.656   0.886  36.061  1.00  0.00     0.046 C 
HETATM   25  C4  UNK     1      18.552  -0.406  35.040  1.00  0.00     0.046 C 
ENDBRANCH  21  22
ENDBRANCH  18  21
ENDBRANCH  15  17
ENDBRANCH  13  15
ENDBRANCH  12  13
ENDBRANCH   7  12
BRANCH   5  26
HETATM   26  C12 UNK     1      14.066  10.278  34.039  1.00  0.00    -0.020 A 
HETATM   27  C19 UNK     1      13.218  10.842  33.086  1.00  0.00     0.015 A 
HETATM   28  C21 UNK     1      12.367  11.890  33.439  1.00  0.00     0.037 A 
HETATM   29  C23 UNK     1      12.363  12.376  34.747  1.00  0.00     0.102 A 
HETATM   30  C22 UNK     1      13.210  11.813  35.701  1.00  0.00     0.037 A 
HETATM   31  C20 UNK     1      14.061  10.765  35.349  1.00  0.00     0.015 A 
BRANCH  29  32
HETATM   32  N2  UNK     1      11.498  13.443  35.106  1.00  0.00    -0.116 N 
HETATM   33  O7  UNK     1      11.959  14.609  35.153  1.00  0.00    -0.532 OA
HETATM   34  O8  UNK     1      10.298  13.191  35.367  1.00  0.00    -0.532 OA
ENDBRANCH  29  32
ENDBRANCH   5  26
TORSDOF 8
ENDMDL
MODEL 7
REMARK VINA RESULT:      -8.5     14.567     17.746
REMARK  8 active torsions:
REMARK  status: ('A' for Active; 'I' for Inactive)
REMARK    1  A    between atoms: C1_11  and  O1_1 
REMARK    2  A    between atoms: C9_19  and  O1_1 
REMARK    3  A    between atoms: C11_21  and  O3_3 
REMARK    4  A    between atoms: C14_24  and  O3_3 
REMARK    5  A    between atoms: C5_15  and  N1_9 
REMARK       I    between atoms: C9_19  and  N1_9 
REMARK    6  A    between atoms: C23_33  and  N2_10 
REMARK    7  A    between atoms: C14_24  and  C5_15 
REMARK    8  A    between atoms: C12_22  and  C8_18 
ROOT
HETATM    1  O2  UNK     1      27.551  -8.663  38.442  1.00  0.00    -0.321 OA
HETATM    2  O5  UNK     1      25.031  -5.472  38.776  1.00  0.00    -0.286 OA
HETATM    3  C6  UNK     1      27.242  -6.260  38.589  1.00  0.00     0.049 A 
HETATM    4  C7  UNK     1      28.055  -7.389  38.487  1.00  0.00     0.091 A 
HETATM    5  C8  UNK     1      25.274  -7.833  38.584  1.00  0.00     0.048 A 
HETATM    6  C10 UNK     1      25.779  -6.434  38.656  1.00  0.00     0.197 A 
HETATM    7  C11 UNK     1      30.012  -5.975  38.469  1.00  0.00     0.082 A 
HETATM    8  C13 UNK     1      29.442  -7.248  38.427  1.00  0.00     0.075 A 
HETATM    9  C15 UNK     1      27.811  -4.985  38.632  1.00  0.00     0.021 A 
HETATM   10  C17 UNK     1      29.198  -4.847  38.572  1.00  0.00     0.038 A 
HETATM   11  C18 UNK     1      26.187  -8.811  38.483  1.00  0.00     0.159 A 
ENDROOT
BRANCH   7  12
HETATM   12  O3  UNK     1      31.365  -5.834  38.409  1.00  0.00    -0.277 OA
BRANCH  12  13
HETATM   13  C14 UNK     1      31.900  -5.874  37.110  1.00  0.00     0.286 C 
HETATM   14  O6  UNK     1      31.698  -6.777  36.304  1.00  0.00    -0.263 OA
BRANCH  13  15
HETATM   15  C5  UNK     1      32.762  -4.661  36.790  1.00  0.00     0.183 C 
HETATM   16  C16 UNK     1      31.890  -3.431  36.592  1.00  0.00     0.043 C 
BRANCH  15  17
HETATM   17  N1  UNK     1      33.590  -4.878  35.632  1.00  0.00    -0.323 N 
HETATM   18  C9  UNK     1      34.880  -5.370  35.689  1.00  0.00     0.362 C 
HETATM   19  O4  UNK     1      35.481  -5.681  36.712  1.00  0.00    -0.238 OA
HETATM   20  H11 UNK     1      33.191  -4.711  34.713  1.00  0.00     0.165 HD
BRANCH  18  21
HETATM   21  O1  UNK     1      35.397  -5.461  34.427  1.00  0.00    -0.294 OA
BRANCH  21  22
HETATM   22  C1  UNK     1      35.701  -6.784  33.971  1.00  0.00     0.061 C 
HETATM   23  C2  UNK     1      34.568  -7.718  34.394  1.00  0.00     0.046 C 
HETATM   24  C3  UNK     1      35.815  -6.732  32.450  1.00  0.00     0.046 C 
HETATM   25  C4  UNK     1      37.027  -7.220  34.594  1.00  0.00     0.046 C 
ENDBRANCH  21  22
ENDBRANCH  18  21
ENDBRANCH  15  17
ENDBRANCH  13  15
ENDBRANCH  12  13
ENDBRANCH   7  12
BRANCH   5  26
HETATM   26  C12 UNK     1      23.836  -8.144  38.601  1.00  0.00    -0.020 A 
HETATM   27  C19 UNK     1      23.098  -7.988  39.776  1.00  0.00     0.015 A 
HETATM   28  C21 UNK     1      21.734  -8.280  39.790  1.00  0.00     0.037 A 
HETATM   29  C23 UNK     1      21.104  -8.729  38.628  1.00  0.00     0.102 A 
HETATM   30  C22 UNK     1      21.839  -8.886  37.453  1.00  0.00     0.037 A 
HETATM   31  C20 UNK     1      23.203  -8.593  37.439  1.00  0.00     0.015 A 
BRANCH  29  32
HETATM   32  N2  UNK     1      19.716  -9.028  38.642  1.00  0.00    -0.116 N 
HETATM   33  O7  UNK     1      19.350 -10.206  38.870  1.00  0.00    -0.532 OA
HETATM   34  O8  UNK     1      18.894  -8.106  38.425  1.00  0.00    -0.532 OA
ENDBRANCH  29  32
ENDBRANCH   5  26
TORSDOF 8
ENDMDL
MODEL 8
REMARK VINA RESULT:      -8.5      4.238     11.330
REMARK  8 active torsions:
REMARK  status: ('A' for Active; 'I' for Inactive)
REMARK    1  A    between atoms: C1_11  and  O1_1 
REMARK    2  A    between atoms: C9_19  and  O1_1 
REMARK    3  A    between atoms: C11_21  and  O3_3 
REMARK    4  A    between atoms: C14_24  and  O3_3 
REMARK    5  A    between atoms: C5_15  and  N1_9 
REMARK       I    between atoms: C9_19  and  N1_9 
REMARK    6  A    between atoms: C23_33  and  N2_10 
REMARK    7  A    between atoms: C14_24  and  C5_15 
REMARK    8  A    between atoms: C12_22  and  C8_18 
ROOT
HETATM    1  O2  UNK     1      18.379  -1.414  36.809  1.00  0.00    -0.321 OA
HETATM    2  O5  UNK     1      20.554  -3.501  34.059  1.00  0.00    -0.286 OA
HETATM    3  C6  UNK     1      19.247  -1.605  34.550  1.00  0.00     0.049 A 
HETATM    4  C7  UNK     1      18.507  -0.941  35.528  1.00  0.00     0.091 A 
HETATM    5  C8  UNK     1      19.771  -3.338  36.302  1.00  0.00     0.048 A 
HETATM    6  C10 UNK     1      19.920  -2.871  34.896  1.00  0.00     0.197 A 
HETATM    7  C11 UNK     1      17.952   0.785  33.935  1.00  0.00     0.082 A 
HETATM    8  C13 UNK     1      17.858   0.255  35.221  1.00  0.00     0.075 A 
HETATM    9  C15 UNK     1      19.341  -1.077  33.260  1.00  0.00     0.021 A 
HETATM   10  C17 UNK     1      18.692   0.120  32.956  1.00  0.00     0.038 A 
HETATM   11  C18 UNK     1      19.028  -2.583  37.125  1.00  0.00     0.159 A 
ENDROOT
BRANCH   7  12
HETATM   12  O3  UNK     1      17.322   1.953  33.633  1.00  0.00    -0.277 OA
BRANCH  12  13
HETATM   13  C14 UNK     1      18.153   3.086  33.641  1.00  0.00     0.286 C 
HETATM   14  O6  UNK     1      18.982   3.331  34.512  1.00  0.00    -0.263 OA
BRANCH  13  15
HETATM   15  C5  UNK     1      17.929   3.992  32.439  1.00  0.00     0.183 C 
HETATM   16  C16 UNK     1      18.580   3.395  31.200  1.00  0.00     0.043 C 
BRANCH  15  17
HETATM   17  N1  UNK     1      18.421   5.326  32.669  1.00  0.00    -0.323 N 
HETATM   18  C9  UNK     1      17.669   6.468  32.476  1.00  0.00     0.362 C 
HETATM   19  O4  UNK     1      16.505   6.500  32.089  1.00  0.00    -0.238 OA
HETATM   20  H11 UNK     1      19.357   5.438  33.046  1.00  0.00     0.165 HD
BRANCH  18  21
HETATM   21  O1  UNK     1      18.416   7.572  32.779  1.00  0.00    -0.294 OA
BRANCH  21  22
HETATM   22  C1  UNK     1      18.178   8.151  34.067  1.00  0.00     0.061 C 
HETATM   23  C2  UNK     1      17.072   7.358  34.762  1.00  0.00     0.046 C 
HETATM   24  C3  UNK     1      19.481   8.062  34.859  1.00  0.00     0.046 C 
HETATM   25  C4  UNK     1      17.764   9.609  33.876  1.00  0.00     0.046 C 
ENDBRANCH  21  22
ENDBRANCH  18  21
ENDBRANCH  15  17
ENDBRANCH  13  15
ENDBRANCH  12  13
ENDBRANCH   7  12
BRANCH   5  26
HETATM   26  C12 UNK     1      20.423  -4.564  36.789  1.00  0.00    -0.020 A 
HETATM   27  C19 UNK     1      20.063  -5.806  36.265  1.00  0.00     0.015 A 
HETATM   28  C21 UNK     1      20.684  -6.968  36.725  1.00  0.00     0.037 A 
HETATM   29  C23 UNK     1      21.667  -6.890  37.712  1.00  0.00     0.102 A 
HETATM   30  C22 UNK     1      22.030  -5.649  38.237  1.00  0.00     0.037 A 
HETATM   31  C20 UNK     1      21.409  -4.488  37.777  1.00  0.00     0.015 A 
BRANCH  29  32
HETATM   32  N2  UNK     1      22.299  -8.071  38.181  1.00  0.00    -0.116 N 
HETATM   33  O7  UNK     1      23.502  -8.273  37.890  1.00  0.00    -0.532 OA
HETATM   34  O8  UNK     1      21.637  -8.879  38.875  1.00  0.00    -0.532 OA
ENDBRANCH  29  32
ENDBRANCH   5  26
TORSDOF 8
ENDMDL
MODEL 9
REMARK VINA RESULT:      -8.5     14.155     16.612
REMARK  8 active torsions:
REMARK  status: ('A' for Active; 'I' for Inactive)
REMARK    1  A    between atoms: C1_11  and  O1_1 
REMARK    2  A    between atoms: C9_19  and  O1_1 
REMARK    3  A    between atoms: C11_21  and  O3_3 
REMARK    4  A    between atoms: C14_24  and  O3_3 
REMARK    5  A    between atoms: C5_15  and  N1_9 
REMARK       I    between atoms: C9_19  and  N1_9 
REMARK    6  A    between atoms: C23_33  and  N2_10 
REMARK    7  A    between atoms: C14_24  and  C5_15 
REMARK    8  A    between atoms: C12_22  and  C8_18 
ROOT
HETATM    1  O2  UNK     1      27.652  -8.318  38.703  1.00  0.00    -0.321 OA
HETATM    2  O5  UNK     1      24.873  -5.331  38.748  1.00  0.00    -0.286 OA
HETATM    3  C6  UNK     1      27.146  -5.944  38.709  1.00  0.00     0.049 A 
HETATM    4  C7  UNK     1      28.051  -7.005  38.705  1.00  0.00     0.091 A 
HETATM    5  C8  UNK     1      25.312  -7.671  38.692  1.00  0.00     0.048 A 
HETATM    6  C10 UNK     1      25.700  -6.233  38.714  1.00  0.00     0.197 A 
HETATM    7  C11 UNK     1      29.887  -5.439  38.707  1.00  0.00     0.082 A 
HETATM    8  C13 UNK     1      29.423  -6.754  38.705  1.00  0.00     0.075 A 
HETATM    9  C15 UNK     1      27.609  -4.626  38.712  1.00  0.00     0.021 A 
HETATM   10  C17 UNK     1      28.981  -4.377  38.711  1.00  0.00     0.038 A 
HETATM   11  C18 UNK     1      26.303  -8.575  38.687  1.00  0.00     0.159 A 
ENDROOT
BRANCH   7  12
HETATM   12  O3  UNK     1      31.225  -5.190  38.705  1.00  0.00    -0.277 OA
BRANCH  12  13
HETATM   13  C14 UNK     1      31.936  -5.825  37.672  1.00  0.00     0.286 C 
HETATM   14  O6  UNK     1      32.562  -6.873  37.804  1.00  0.00    -0.263 OA
BRANCH  13  15
HETATM   15  C5  UNK     1      31.847  -5.079  36.348  1.00  0.00     0.183 C 
HETATM   16  C16 UNK     1      32.005  -3.583  36.575  1.00  0.00     0.043 C 
BRANCH  15  17
HETATM   17  N1  UNK     1      30.614  -5.354  35.657  1.00  0.00    -0.323 N 
HETATM   18  C9  UNK     1      30.374  -6.509  34.939  1.00  0.00     0.362 C 
HETATM   19  O4  UNK     1      31.162  -7.438  34.797  1.00  0.00    -0.238 OA
HETATM   20  H11 UNK     1      29.853  -4.686  35.740  1.00  0.00     0.165 HD
BRANCH  18  21
HETATM   21  O1  UNK     1      29.117  -6.469  34.403  1.00  0.00    -0.294 OA
BRANCH  21  22
HETATM   22  C1  UNK     1      29.050  -6.424  32.973  1.00  0.00     0.061 C 
HETATM   23  C2  UNK     1      29.292  -7.831  32.429  1.00  0.00     0.046 C 
HETATM   24  C3  UNK     1      27.656  -5.934  32.592  1.00  0.00     0.046 C 
HETATM   25  C4  UNK     1      30.118  -5.455  32.467  1.00  0.00     0.046 C 
ENDBRANCH  21  22
ENDBRANCH  18  21
ENDBRANCH  15  17
ENDBRANCH  13  15
ENDBRANCH  12  13
ENDBRANCH   7  12
BRANCH   5  26
HETATM   26  C12 UNK     1      23.904  -8.098  38.656  1.00  0.00    -0.020 A 
HETATM   27  C19 UNK     1      23.341  -8.562  37.466  1.00  0.00     0.015 A 
HETATM   28  C21 UNK     1      22.008  -8.970  37.434  1.00  0.00     0.037 A 
HETATM   29  C23 UNK     1      21.233  -8.914  38.593  1.00  0.00     0.102 A 
HETATM   30  C22 UNK     1      21.793  -8.451  39.784  1.00  0.00     0.037 A 
HETATM   31  C20 UNK     1      23.127  -8.044  39.816  1.00  0.00     0.015 A 
BRANCH  29  32
HETATM   32  N2  UNK     1      19.875  -9.328  38.561  1.00  0.00    -0.116 N 
HETATM   33  O7  UNK     1      19.613 -10.555  38.582  1.00  0.00    -0.532 OA
HETATM   34  O8  UNK     1      18.975  -8.456  38.514  1.00  0.00    -0.532 OA
ENDBRANCH  29  32
ENDBRANCH   5  26
TORSDOF 8
ENDMDL
MODEL 10
REMARK VINA RESULT:      -8.4     23.140     25.656
REMARK  8 active torsions:
REMARK  status: ('A' for Active; 'I' for Inactive)
REMARK    1  A    between atoms: C1_11  and  O1_1 
REMARK    2  A    between atoms: C9_19  and  O1_1 
REMARK    3  A    between atoms: C11_21  and  O3_3 
REMARK    4  A    between atoms: C14_24  and  O3_3 
REMARK    5  A    between atoms: C5_15  and  N1_9 
REMARK       I    between atoms: C9_19  and  N1_9 
REMARK    6  A    between atoms: C23_33  and  N2_10 
REMARK    7  A    between atoms: C14_24  and  C5_15 
REMARK    8  A    between atoms: C12_22  and  C8_18 
ROOT
HETATM    1  O2  UNK     1      14.921  10.696   7.979  1.00  0.00    -0.321 OA
HETATM    2  O5  UNK     1      18.792  10.666   9.266  1.00  0.00    -0.286 OA
HETATM    3  C6  UNK     1      16.666   9.656   9.307  1.00  0.00     0.049 A 
HETATM    4  C7  UNK     1      15.352   9.723   8.844  1.00  0.00     0.091 A 
HETATM    5  C8  UNK     1      17.132  11.697   7.906  1.00  0.00     0.048 A 
HETATM    6  C10 UNK     1      17.637  10.670   8.860  1.00  0.00     0.197 A 
HETATM    7  C11 UNK     1      14.796   7.762  10.137  1.00  0.00     0.082 A 
HETATM    8  C13 UNK     1      14.415   8.776   9.258  1.00  0.00     0.075 A 
HETATM    9  C15 UNK     1      17.049   8.642  10.189  1.00  0.00     0.021 A 
HETATM   10  C17 UNK     1      16.111   7.696  10.602  1.00  0.00     0.038 A 
HETATM   11  C18 UNK     1      15.840  11.623   7.552  1.00  0.00     0.159 A 
ENDROOT
BRANCH   7  12
HETATM   12  O3  UNK     1      13.885   6.835  10.542  1.00  0.00    -0.277 OA
BRANCH  12  13
HETATM   13  C14 UNK     1      14.025   5.574   9.938  1.00  0.00     0.286 C 
HETATM   14  O6  UNK     1      14.840   4.725  10.287  1.00  0.00    -0.263 OA
BRANCH  13  15
HETATM   15  C5  UNK     1      13.047   5.357   8.793  1.00  0.00     0.183 C 
HETATM   16  C16 UNK     1      13.665   5.808   7.478  1.00  0.00     0.043 C 
BRANCH  15  17
HETATM   17  N1  UNK     1      11.796   6.034   9.016  1.00  0.00    -0.323 N 
HETATM   18  C9  UNK     1      10.615   5.389   9.328  1.00  0.00     0.362 C 
HETATM   19  O4  UNK     1      10.476   4.177   9.454  1.00  0.00    -0.238 OA
HETATM   20  H11 UNK     1      11.785   7.050   8.995  1.00  0.00     0.165 HD
BRANCH  18  21
HETATM   21  O1  UNK     1       9.612   6.305   9.477  1.00  0.00    -0.294 OA
BRANCH  21  22
HETATM   22  C1  UNK     1       8.554   6.234   8.513  1.00  0.00     0.061 C 
HETATM   23  C2  UNK     1       7.680   5.023   8.837  1.00  0.00     0.046 C 
HETATM   24  C3  UNK     1       7.745   7.524   8.622  1.00  0.00     0.046 C 
HETATM   25  C4  UNK     1       9.172   6.102   7.122  1.00  0.00     0.046 C 
ENDBRANCH  21  22
ENDBRANCH  18  21
ENDBRANCH  15  17
ENDBRANCH  13  15
ENDBRANCH  12  13
ENDBRANCH   7  12
BRANCH   5  26
HETATM   26  C12 UNK     1      18.005  12.743   7.351  1.00  0.00    -0.020 A 
HETATM   27  C19 UNK     1      18.692  12.523   6.156  1.00  0.00     0.015 A 
HETATM   28  C21 UNK     1      19.517  13.517   5.629  1.00  0.00     0.037 A 
HETATM   29  C23 UNK     1      19.658  14.734   6.297  1.00  0.00     0.102 A 
HETATM   30  C22 UNK     1      18.973  14.956   7.492  1.00  0.00     0.037 A 
HETATM   31  C20 UNK     1      18.147  13.963   8.018  1.00  0.00     0.015 A 
BRANCH  29  32
HETATM   32  N2  UNK     1      20.499  15.745   5.762  1.00  0.00    -0.116 N 
HETATM   33  O7  UNK     1      20.934  15.618   4.593  1.00  0.00    -0.532 OA
HETATM   34  O8  UNK     1      20.782  16.738   6.473  1.00  0.00    -0.532 OA
ENDBRANCH  29  32
ENDBRANCH   5  26
TORSDOF 8
ENDMDL
