MODEL 1
REMARK VINA RESULT:     -10.0      0.000      0.000
REMARK  8 active torsions:
REMARK  status: ('A' for Active; 'I' for Inactive)
REMARK    1  A    between atoms: C1_9  and  O1_2 
REMARK       I    between atoms: C4_12  and  N1_6 
REMARK    2  A    between atoms: N1_6  and  N2_7 
REMARK    3  A    between atoms: C23_31  and  N2_7 
REMARK    4  A    between atoms: C16_24  and  N3_8 
REMARK    5  A    between atoms: C23_31  and  N3_8 
REMARK    6  A    between atoms: C1_9  and  C2_10 
REMARK    7  A    between atoms: C1_9  and  C3_11 
REMARK    8  A    between atoms: C1_9  and  C4_12 
ROOT
HETATM    1  O2  UNK     1      20.368  -1.444  32.859  1.00  0.00    -0.268 OA
HETATM    2  N1  UNK     1      19.187  -2.218  34.686  1.00  0.00    -0.265 N 
HETATM    3  C4  UNK     1      19.366  -1.408  33.574  1.00  0.00     0.280 C 
HETATM    4  H6  UNK     1      18.477  -2.041  35.385  1.00  0.00     0.190 HD
ENDROOT
BRANCH   2   5
HETATM    5  N2  UNK     1      20.175  -3.116  35.017  1.00  0.00    -0.273 N 
HETATM    6  H16 UNK     1      21.020  -3.090  34.455  1.00  0.00     0.189 HD
BRANCH   5   7
HETATM    7  C23 UNK     1      20.028  -4.019  36.062  1.00  0.00     0.191 C 
HETATM    8  S1  UNK     1      20.509  -3.511  37.588  1.00  0.00    -0.039 SA
BRANCH   7   9
HETATM    9  N3  UNK     1      19.450  -5.247  35.698  1.00  0.00    -0.332 N 
HETATM   10  H17 UNK     1      18.789  -5.183  34.930  1.00  0.00     0.168 HD
BRANCH   9  11
HETATM   11  C16 UNK     1      19.658  -6.560  36.118  1.00  0.00     0.037 A 
HETATM   12  C17 UNK     1      20.641  -7.339  35.516  1.00  0.00     0.067 A 
HETATM   13  C10 UNK     1      20.833  -8.650  35.955  1.00  0.00     0.092 A 
HETATM   14  O3  UNK     1      21.844  -9.389  35.307  1.00  0.00    -0.275 OA
HETATM   15  C9  UNK     1      20.071  -9.214  36.980  1.00  0.00     0.004 A 
HETATM   16  C25 UNK     1      22.122 -10.701  35.660  1.00  0.00     0.288 A 
HETATM   17  C22 UNK     1      21.310 -11.281  36.743  1.00  0.00     0.090 A 
HETATM   18  O4  UNK     1      22.999 -11.353  35.104  1.00  0.00    -0.260 OA
HETATM   19  C15 UNK     1      20.343 -10.602  37.376  1.00  0.00    -0.043 A 
HETATM   20  C24 UNK     1      19.541 -11.237  38.475  1.00  0.00     0.049 C 
HETATM   21  C20 UNK     1      19.087  -8.413  37.573  1.00  0.00     0.017 A 
HETATM   22  C21 UNK     1      18.882  -7.096  37.145  1.00  0.00     0.030 A 
ENDBRANCH   9  11
ENDBRANCH   7   9
ENDBRANCH   5   7
ENDBRANCH   2   5
BRANCH   3  23
HETATM   23  C1  UNK     1      18.196  -0.434  33.327  1.00  0.00     0.195 C 
BRANCH  23  24
HETATM   24  O1  UNK     1      17.199  -1.360  32.855  1.00  0.00    -0.371 OA
HETATM   25  H5  UNK     1      16.614  -0.891  32.235  1.00  0.00     0.212 HD
ENDBRANCH  23  24
BRANCH  23  26
HETATM   26  C2  UNK     1      18.494   0.626  32.260  1.00  0.00    -0.010 A 
HETATM   27  C5  UNK     1      18.187   1.937  32.534  1.00  0.00     0.011 A 
HETATM   28  C11 UNK     1      18.457   2.902  31.564  1.00  0.00     0.001 A 
HETATM   29  C18 UNK     1      19.026   2.526  30.347  1.00  0.00     0.000 A 
HETATM   30  C13 UNK     1      19.324   1.186  30.101  1.00  0.00     0.001 A 
HETATM   31  C7  UNK     1      19.054   0.221  31.072  1.00  0.00     0.011 A 
ENDBRANCH  23  26
BRANCH  23  32
HETATM   32  C3  UNK     1      17.696   0.226  34.619  1.00  0.00    -0.010 A 
HETATM   33  C6  UNK     1      18.568   1.012  35.333  1.00  0.00     0.011 A 
HETATM   34  C12 UNK     1      18.114   1.612  36.507  1.00  0.00     0.001 A 
HETATM   35  C19 UNK     1      16.801   1.410  36.931  1.00  0.00     0.000 A 
HETATM   36  C14 UNK     1      15.942   0.606  36.181  1.00  0.00     0.001 A 
HETATM   37  C8  UNK     1      16.396   0.005  35.006  1.00  0.00     0.011 A 
ENDBRANCH  23  32
ENDBRANCH   3  23
TORSDOF 8
ENDMDL
MODEL 2
REMARK VINA RESULT:     -10.0      1.835      2.846
REMARK  8 active torsions:
REMARK  status: ('A' for Active; 'I' for Inactive)
REMARK    1  A    between atoms: C1_9  and  O1_2 
REMARK       I    between atoms: C4_12  and  N1_6 
REMARK    2  A    between atoms: N1_6  and  N2_7 
REMARK    3  A    between atoms: C23_31  and  N2_7 
REMARK    4  A    between atoms: C16_24  and  N3_8 
REMARK    5  A    between atoms: C23_31  and  N3_8 
REMARK    6  A    between atoms: C1_9  and  C2_10 
REMARK    7  A    between atoms: C1_9  and  C3_11 
REMARK    8  A    between atoms: C1_9  and  C4_12 
ROOT
HETATM    1  O2  UNK     1      19.813  -0.752  35.681  1.00  0.00    -0.268 OA
HETATM    2  N1  UNK     1      17.903  -2.042  35.538  1.00  0.00    -0.265 N 
HETATM    3  C4  UNK     1      18.794  -1.084  35.075  1.00  0.00     0.280 C 
HETATM    4  H6  UNK     1      16.973  -2.157  35.155  1.00  0.00     0.190 HD
ENDROOT
BRANCH   2   5
HETATM    5  N2  UNK     1      18.162  -2.663  36.738  1.00  0.00    -0.273 N 
HETATM    6  H16 UNK     1      17.665  -2.308  37.549  1.00  0.00     0.189 HD
BRANCH   5   7
HETATM    7  C23 UNK     1      19.061  -3.716  36.842  1.00  0.00     0.191 C 
HETATM    8  S1  UNK     1      20.578  -3.370  37.472  1.00  0.00    -0.039 SA
BRANCH   7   9
HETATM    9  N3  UNK     1      18.554  -4.961  36.434  1.00  0.00    -0.332 N 
HETATM   10  H17 UNK     1      17.602  -4.927  36.081  1.00  0.00     0.168 HD
BRANCH   9  11
HETATM   11  C16 UNK     1      19.118  -6.233  36.331  1.00  0.00     0.037 A 
HETATM   12  C17 UNK     1      18.795  -7.218  37.258  1.00  0.00     0.067 A 
HETATM   13  C10 UNK     1      19.371  -8.483  37.135  1.00  0.00     0.092 A 
HETATM   14  O3  UNK     1      19.004  -9.440  38.104  1.00  0.00    -0.275 OA
HETATM   15  C9  UNK     1      20.265  -8.800  36.111  1.00  0.00     0.004 A 
HETATM   16  C25 UNK     1      19.515 -10.728  38.080  1.00  0.00     0.288 A 
HETATM   17  C22 UNK     1      20.457 -11.047  36.993  1.00  0.00     0.090 A 
HETATM   18  O4  UNK     1      19.202 -11.568  38.917  1.00  0.00    -0.260 OA
HETATM   19  C15 UNK     1      20.823 -10.158  36.059  1.00  0.00    -0.043 A 
HETATM   20  C24 UNK     1      21.788 -10.530  34.971  1.00  0.00     0.049 C 
HETATM   21  C20 UNK     1      20.578  -7.794  35.188  1.00  0.00     0.017 A 
HETATM   22  C21 UNK     1      20.008  -6.520  35.297  1.00  0.00     0.030 A 
ENDBRANCH   9  11
ENDBRANCH   7   9
ENDBRANCH   5   7
ENDBRANCH   2   5
BRANCH   3  23
HETATM   23  C1  UNK     1      18.376  -0.453  33.732  1.00  0.00     0.195 C 
BRANCH  23  24
HETATM   24  O1  UNK     1      17.028  -0.953  33.632  1.00  0.00    -0.371 OA
HETATM   25  H5  UNK     1      16.519  -0.350  33.064  1.00  0.00     0.212 HD
ENDBRANCH  23  24
BRANCH  23  26
HETATM   26  C2  UNK     1      19.216  -0.928  32.541  1.00  0.00    -0.010 A 
HETATM   27  C5  UNK     1      19.199  -0.183  31.386  1.00  0.00     0.011 A 
HETATM   28  C11 UNK     1      19.963  -0.615  30.303  1.00  0.00     0.001 A 
HETATM   29  C18 UNK     1      20.721  -1.782  30.406  1.00  0.00     0.000 A 
HETATM   30  C13 UNK     1      20.715  -2.515  31.592  1.00  0.00     0.001 A 
HETATM   31  C7  UNK     1      19.951  -2.082  32.676  1.00  0.00     0.011 A 
ENDBRANCH  23  26
BRANCH  23  32
HETATM   32  C3  UNK     1      18.338   1.080  33.788  1.00  0.00    -0.010 A 
HETATM   33  C6  UNK     1      18.196   1.775  32.611  1.00  0.00     0.011 A 
HETATM   34  C12 UNK     1      18.162   3.168  32.661  1.00  0.00     0.001 A 
HETATM   35  C19 UNK     1      18.270   3.825  33.887  1.00  0.00     0.000 A 
HETATM   36  C14 UNK     1      18.413   3.088  35.062  1.00  0.00     0.001 A 
HETATM   37  C8  UNK     1      18.447   1.694  35.012  1.00  0.00     0.011 A 
ENDBRANCH  23  32
ENDBRANCH   3  23
TORSDOF 8
ENDMDL
MODEL 3
REMARK VINA RESULT:      -9.9     10.675     13.149
REMARK  8 active torsions:
REMARK  status: ('A' for Active; 'I' for Inactive)
REMARK    1  A    between atoms: C1_9  and  O1_2 
REMARK       I    between atoms: C4_12  and  N1_6 
REMARK    2  A    between atoms: N1_6  and  N2_7 
REMARK    3  A    between atoms: C23_31  and  N2_7 
REMARK    4  A    between atoms: C16_24  and  N3_8 
REMARK    5  A    between atoms: C23_31  and  N3_8 
REMARK    6  A    between atoms: C1_9  and  C2_10 
REMARK    7  A    between atoms: C1_9  and  C3_11 
REMARK    8  A    between atoms: C1_9  and  C4_12 
ROOT
HETATM    1  O2  UNK     1      32.687  -7.006  33.744  1.00  0.00    -0.268 OA
HETATM    2  N1  UNK     1      31.858  -4.899  34.197  1.00  0.00    -0.265 N 
HETATM    3  C4  UNK     1      31.755  -6.202  33.730  1.00  0.00     0.280 C 
HETATM    4  H6  UNK     1      31.169  -4.187  33.990  1.00  0.00     0.190 HD
ENDROOT
BRANCH   2   5
HETATM    5  N2  UNK     1      33.061  -4.471  34.707  1.00  0.00    -0.273 N 
HETATM    6  H16 UNK     1      33.606  -3.846  34.122  1.00  0.00     0.189 HD
BRANCH   5   7
HETATM    7  C23 UNK     1      33.516  -4.876  35.956  1.00  0.00     0.191 C 
HETATM    8  S1  UNK     1      35.091  -5.449  36.048  1.00  0.00    -0.039 SA
BRANCH   7   9
HETATM    9  N3  UNK     1      32.589  -4.710  36.999  1.00  0.00    -0.332 N 
HETATM   10  H17 UNK     1      32.673  -3.827  37.493  1.00  0.00     0.168 HD
BRANCH   9  11
HETATM   11  C16 UNK     1      31.512  -5.475  37.447  1.00  0.00     0.037 A 
HETATM   12  C17 UNK     1      30.270  -4.884  37.647  1.00  0.00     0.067 A 
HETATM   13  C10 UNK     1      29.206  -5.669  38.094  1.00  0.00     0.092 A 
HETATM   14  O3  UNK     1      27.972  -5.013  38.278  1.00  0.00    -0.275 OA
HETATM   15  C9  UNK     1      29.343  -7.035  38.350  1.00  0.00     0.004 A 
HETATM   16  C25 UNK     1      26.848  -5.694  38.718  1.00  0.00     0.288 A 
HETATM   17  C22 UNK     1      27.008  -7.134  38.984  1.00  0.00     0.090 A 
HETATM   18  O4  UNK     1      25.769  -5.134  38.881  1.00  0.00    -0.260 OA
HETATM   19  C15 UNK     1      28.169  -7.783  38.818  1.00  0.00    -0.043 A 
HETATM   20  C24 UNK     1      28.283  -9.253  39.103  1.00  0.00     0.049 C 
HETATM   21  C20 UNK     1      30.602  -7.611  38.143  1.00  0.00     0.017 A 
HETATM   22  C21 UNK     1      31.679  -6.837  37.694  1.00  0.00     0.030 A 
ENDBRANCH   9  11
ENDBRANCH   7   9
ENDBRANCH   5   7
ENDBRANCH   2   5
BRANCH   3  23
HETATM   23  C1  UNK     1      30.362  -6.546  33.166  1.00  0.00     0.195 C 
BRANCH  23  24
HETATM   24  O1  UNK     1      29.699  -5.280  33.355  1.00  0.00    -0.371 OA
HETATM   25  H5  UNK     1      29.549  -5.153  34.307  1.00  0.00     0.212 HD
ENDBRANCH  23  24
BRANCH  23  26
HETATM   26  C2  UNK     1      29.640  -7.652  33.943  1.00  0.00    -0.010 A 
HETATM   27  C5  UNK     1      28.526  -7.319  34.677  1.00  0.00     0.011 A 
HETATM   28  C11 UNK     1      27.870  -8.325  35.385  1.00  0.00     0.001 A 
HETATM   29  C18 UNK     1      28.346  -9.636  35.338  1.00  0.00     0.000 A 
HETATM   30  C13 UNK     1      29.480  -9.939  34.584  1.00  0.00     0.001 A 
HETATM   31  C7  UNK     1      30.136  -8.932  33.876  1.00  0.00     0.011 A 
ENDBRANCH  23  26
BRANCH  23  32
HETATM   32  C3  UNK     1      30.397  -6.874  31.667  1.00  0.00    -0.010 A 
HETATM   33  C6  UNK     1      31.620  -7.019  31.057  1.00  0.00     0.011 A 
HETATM   34  C12 UNK     1      31.652  -7.317  29.695  1.00  0.00     0.001 A 
HETATM   35  C19 UNK     1      30.461  -7.463  28.985  1.00  0.00     0.000 A 
HETATM   36  C14 UNK     1      29.238  -7.310  29.636  1.00  0.00     0.001 A 
HETATM   37  C8  UNK     1      29.205  -7.011  30.999  1.00  0.00     0.011 A 
ENDBRANCH  23  32
ENDBRANCH   3  23
TORSDOF 8
ENDMDL
MODEL 4
REMARK VINA RESULT:      -9.9     10.871     13.534
REMARK  8 active torsions:
REMARK  status: ('A' for Active; 'I' for Inactive)
REMARK    1  A    between atoms: C1_9  and  O1_2 
REMARK       I    between atoms: C4_12  and  N1_6 
REMARK    2  A    between atoms: N1_6  and  N2_7 
REMARK    3  A    between atoms: C23_31  and  N2_7 
REMARK    4  A    between atoms: C16_24  and  N3_8 
REMARK    5  A    between atoms: C23_31  and  N3_8 
REMARK    6  A    between atoms: C1_9  and  C2_10 
REMARK    7  A    between atoms: C1_9  and  C3_11 
REMARK    8  A    between atoms: C1_9  and  C4_12 
ROOT
HETATM    1  O2  UNK     1      29.701  -6.033  36.328  1.00  0.00    -0.268 OA
HETATM    2  N1  UNK     1      31.977  -6.343  36.572  1.00  0.00    -0.265 N 
HETATM    3  C4  UNK     1      30.656  -6.768  36.581  1.00  0.00     0.280 C 
HETATM    4  H6  UNK     1      32.729  -6.881  36.983  1.00  0.00     0.190 HD
ENDROOT
BRANCH   2   5
HETATM    5  N2  UNK     1      32.248  -5.030  36.264  1.00  0.00    -0.273 N 
HETATM    6  H16 UNK     1      32.150  -4.357  37.018  1.00  0.00     0.189 HD
BRANCH   5   7
HETATM    7  C23 UNK     1      32.629  -4.637  34.988  1.00  0.00     0.191 C 
HETATM    8  S1  UNK     1      34.258  -4.321  34.738  1.00  0.00    -0.039 SA
BRANCH   7   9
HETATM    9  N3  UNK     1      31.582  -4.594  34.051  1.00  0.00    -0.332 N 
HETATM   10  H17 UNK     1      31.206  -3.665  33.891  1.00  0.00     0.168 HD
BRANCH   9  11
HETATM   11  C16 UNK     1      31.004  -5.558  33.225  1.00  0.00     0.037 A 
HETATM   12  C17 UNK     1      29.699  -5.398  32.772  1.00  0.00     0.067 A 
HETATM   13  C10 UNK     1      29.141  -6.373  31.944  1.00  0.00     0.092 A 
HETATM   14  O3  UNK     1      27.815  -6.155  31.517  1.00  0.00    -0.275 OA
HETATM   15  C9  UNK     1      29.847  -7.512  31.552  1.00  0.00     0.004 A 
HETATM   16  C25 UNK     1      27.162  -7.058  30.694  1.00  0.00     0.288 A 
HETATM   17  C22 UNK     1      27.920  -8.255  30.289  1.00  0.00     0.090 A 
HETATM   18  O4  UNK     1      26.009  -6.878  30.316  1.00  0.00    -0.260 OA
HETATM   19  C15 UNK     1      29.181  -8.487  30.680  1.00  0.00    -0.043 A 
HETATM   20  C24 UNK     1      29.913  -9.722  30.240  1.00  0.00     0.049 C 
HETATM   21  C20 UNK     1      31.160  -7.655  32.019  1.00  0.00     0.017 A 
HETATM   22  C21 UNK     1      31.734  -6.684  32.849  1.00  0.00     0.030 A 
ENDBRANCH   9  11
ENDBRANCH   7   9
ENDBRANCH   5   7
ENDBRANCH   2   5
BRANCH   3  23
HETATM   23  C1  UNK     1      30.490  -8.253  36.961  1.00  0.00     0.195 C 
BRANCH  23  24
HETATM   24  O1  UNK     1      31.791  -8.512  37.523  1.00  0.00    -0.371 OA
HETATM   25  H5  UNK     1      31.770  -9.381  37.958  1.00  0.00     0.212 HD
ENDBRANCH  23  24
BRANCH  23  26
HETATM   26  C2  UNK     1      30.232  -9.170  35.760  1.00  0.00    -0.010 A 
HETATM   27  C5  UNK     1      29.015  -9.093  35.125  1.00  0.00     0.011 A 
HETATM   28  C11 UNK     1      28.779  -9.927  34.032  1.00  0.00     0.001 A 
HETATM   29  C18 UNK     1      29.768 -10.815  33.607  1.00  0.00     0.000 A 
HETATM   30  C13 UNK     1      30.992 -10.867  34.275  1.00  0.00     0.001 A 
HETATM   31  C7  UNK     1      31.227 -10.033  35.368  1.00  0.00     0.011 A 
ENDBRANCH  23  26
BRANCH  23  32
HETATM   32  C3  UNK     1      29.424  -8.469  38.043  1.00  0.00    -0.010 A 
HETATM   33  C6  UNK     1      29.229  -9.741  38.527  1.00  0.00     0.011 A 
HETATM   34  C12 UNK     1      28.260  -9.936  39.510  1.00  0.00     0.001 A 
HETATM   35  C19 UNK     1      27.516  -8.855  39.982  1.00  0.00     0.000 A 
HETATM   36  C14 UNK     1      27.741  -7.578  39.470  1.00  0.00     0.001 A 
HETATM   37  C8  UNK     1      28.710  -7.381  38.485  1.00  0.00     0.011 A 
ENDBRANCH  23  32
ENDBRANCH   3  23
TORSDOF 8
ENDMDL
MODEL 5
REMARK VINA RESULT:      -9.9     10.260     13.342
REMARK  8 active torsions:
REMARK  status: ('A' for Active; 'I' for Inactive)
REMARK    1  A    between atoms: C1_9  and  O1_2 
REMARK       I    between atoms: C4_12  and  N1_6 
REMARK    2  A    between atoms: N1_6  and  N2_7 
REMARK    3  A    between atoms: C23_31  and  N2_7 
REMARK    4  A    between atoms: C16_24  and  N3_8 
REMARK    5  A    between atoms: C23_31  and  N3_8 
REMARK    6  A    between atoms: C1_9  and  C2_10 
REMARK    7  A    between atoms: C1_9  and  C3_11 
REMARK    8  A    between atoms: C1_9  and  C4_12 
ROOT
HETATM    1  O2  UNK     1      30.328  -6.722  38.055  1.00  0.00    -0.268 OA
HETATM    2  N1  UNK     1      29.976  -5.850  35.946  1.00  0.00    -0.265 N 
HETATM    3  C4  UNK     1      29.740  -6.752  36.974  1.00  0.00     0.280 C 
HETATM    4  H6  UNK     1      29.656  -6.004  34.998  1.00  0.00     0.190 HD
ENDROOT
BRANCH   2   5
HETATM    5  N2  UNK     1      30.915  -4.864  36.132  1.00  0.00    -0.273 N 
HETATM    6  H16 UNK     1      30.847  -4.328  36.992  1.00  0.00     0.189 HD
BRANCH   5   7
HETATM    7  C23 UNK     1      31.905  -4.603  35.194  1.00  0.00     0.191 C 
HETATM    8  S1  UNK     1      33.467  -4.385  35.768  1.00  0.00    -0.039 SA
BRANCH   7   9
HETATM    9  N3  UNK     1      31.461  -4.595  33.861  1.00  0.00    -0.332 N 
HETATM   10  H17 UNK     1      31.676  -3.741  33.356  1.00  0.00     0.168 HD
BRANCH   9  11
HETATM   11  C16 UNK     1      30.855  -5.558  33.053  1.00  0.00     0.037 A 
HETATM   12  C17 UNK     1      29.556  -5.368  32.593  1.00  0.00     0.067 A 
HETATM   13  C10 UNK     1      28.971  -6.343  31.784  1.00  0.00     0.092 A 
HETATM   14  O3  UNK     1      27.654  -6.094  31.349  1.00  0.00    -0.275 OA
HETATM   15  C9  UNK     1      29.643  -7.511  31.419  1.00  0.00     0.004 A 
HETATM   16  C25 UNK     1      26.974  -6.994  30.542  1.00  0.00     0.288 A 
HETATM   17  C22 UNK     1      27.697  -8.221  30.165  1.00  0.00     0.090 A 
HETATM   18  O4  UNK     1      25.829  -6.787  30.157  1.00  0.00    -0.260 OA
HETATM   19  C15 UNK     1      28.949  -8.484  30.565  1.00  0.00    -0.043 A 
HETATM   20  C24 UNK     1      29.644  -9.750  30.154  1.00  0.00     0.049 C 
HETATM   21  C20 UNK     1      30.950  -7.684  31.893  1.00  0.00     0.017 A 
HETATM   22  C21 UNK     1      31.551  -6.714  32.704  1.00  0.00     0.030 A 
ENDBRANCH   9  11
ENDBRANCH   7   9
ENDBRANCH   5   7
ENDBRANCH   2   5
BRANCH   3  23
HETATM   23  C1  UNK     1      28.680  -7.817  36.627  1.00  0.00     0.195 C 
BRANCH  23  24
HETATM   24  O1  UNK     1      27.681  -6.982  36.011  1.00  0.00    -0.371 OA
HETATM   25  H5  UNK     1      28.116  -6.427  35.342  1.00  0.00     0.212 HD
ENDBRANCH  23  24
BRANCH  23  26
HETATM   26  C2  UNK     1      28.102  -8.531  37.855  1.00  0.00    -0.010 A 
HETATM   27  C5  UNK     1      28.883  -9.458  38.504  1.00  0.00     0.011 A 
HETATM   28  C11 UNK     1      28.357 -10.107  39.620  1.00  0.00     0.001 A 
HETATM   29  C18 UNK     1      27.065  -9.810  40.055  1.00  0.00     0.000 A 
HETATM   30  C13 UNK     1      26.300  -8.865  39.373  1.00  0.00     0.001 A 
HETATM   31  C7  UNK     1      26.826  -8.215  38.256  1.00  0.00     0.011 A 
ENDBRANCH  23  26
BRANCH  23  32
HETATM   32  C3  UNK     1      29.185  -8.838  35.598  1.00  0.00    -0.010 A 
HETATM   33  C6  UNK     1      30.502  -9.229  35.655  1.00  0.00     0.011 A 
HETATM   34  C12 UNK     1      30.960 -10.155  34.720  1.00  0.00     0.001 A 
HETATM   35  C19 UNK     1      30.089 -10.665  33.757  1.00  0.00     0.000 A 
HETATM   36  C14 UNK     1      28.759 -10.247  33.729  1.00  0.00     0.001 A 
HETATM   37  C8  UNK     1      28.300  -9.319  34.664  1.00  0.00     0.011 A 
ENDBRANCH  23  32
ENDBRANCH   3  23
TORSDOF 8
ENDMDL
MODEL 6
REMARK VINA RESULT:      -9.9     11.559     13.454
REMARK  8 active torsions:
REMARK  status: ('A' for Active; 'I' for Inactive)
REMARK    1  A    between atoms: C1_9  and  O1_2 
REMARK       I    between atoms: C4_12  and  N1_6 
REMARK    2  A    between atoms: N1_6  and  N2_7 
REMARK    3  A    between atoms: C23_31  and  N2_7 
REMARK    4  A    between atoms: C16_24  and  N3_8 
REMARK    5  A    between atoms: C23_31  and  N3_8 
REMARK    6  A    between atoms: C1_9  and  C2_10 
REMARK    7  A    between atoms: C1_9  and  C3_11 
REMARK    8  A    between atoms: C1_9  and  C4_12 
ROOT
HETATM    1  O2  UNK     1      31.771  -7.676  31.908  1.00  0.00    -0.268 OA
HETATM    2  N1  UNK     1      32.488  -8.976  33.677  1.00  0.00    -0.265 N 
HETATM    3  C4  UNK     1      31.577  -8.598  32.701  1.00  0.00     0.280 C 
HETATM    4  H6  UNK     1      32.242  -9.579  34.453  1.00  0.00     0.190 HD
ENDROOT
BRANCH   2   5
HETATM    5  N2  UNK     1      33.677  -8.293  33.774  1.00  0.00    -0.273 N 
HETATM    6  H16 UNK     1      34.269  -8.293  32.949  1.00  0.00     0.189 HD
BRANCH   5   7
HETATM    7  C23 UNK     1      34.058  -7.640  34.939  1.00  0.00     0.191 C 
HETATM    8  S1  UNK     1      34.960  -6.235  34.771  1.00  0.00    -0.039 SA
BRANCH   7   9
HETATM    9  N3  UNK     1      33.594  -8.238  36.124  1.00  0.00    -0.332 N 
HETATM   10  H17 UNK     1      34.283  -8.813  36.597  1.00  0.00     0.168 HD
BRANCH   9  11
HETATM   11  C16 UNK     1      32.399  -8.137  36.836  1.00  0.00     0.037 A 
HETATM   12  C17 UNK     1      31.898  -6.888  37.189  1.00  0.00     0.067 A 
HETATM   13  C10 UNK     1      30.700  -6.812  37.900  1.00  0.00     0.092 A 
HETATM   14  O3  UNK     1      30.244  -5.519  38.229  1.00  0.00    -0.275 OA
HETATM   15  C9  UNK     1      29.980  -7.948  38.275  1.00  0.00     0.004 A 
HETATM   16  C25 UNK     1      29.066  -5.324  38.933  1.00  0.00     0.288 A 
HETATM   17  C22 UNK     1      28.318  -6.532  39.321  1.00  0.00     0.090 A 
HETATM   18  O4  UNK     1      28.659  -4.203  39.224  1.00  0.00    -0.260 OA
HETATM   19  C15 UNK     1      28.729  -7.772  39.023  1.00  0.00    -0.043 A 
HETATM   20  C24 UNK     1      27.931  -8.974  39.441  1.00  0.00     0.049 C 
HETATM   21  C20 UNK     1      30.502  -9.196  37.910  1.00  0.00     0.017 A 
HETATM   22  C21 UNK     1      31.702  -9.289  37.196  1.00  0.00     0.030 A 
ENDBRANCH   9  11
ENDBRANCH   7   9
ENDBRANCH   5   7
ENDBRANCH   2   5
BRANCH   3  23
HETATM   23  C1  UNK     1      30.278  -9.429  32.715  1.00  0.00     0.195 C 
BRANCH  23  24
HETATM   24  O1  UNK     1      30.816 -10.723  33.053  1.00  0.00    -0.371 OA
HETATM   25  H5  UNK     1      31.253 -10.656  33.919  1.00  0.00     0.212 HD
ENDBRANCH  23  24
BRANCH  23  26
HETATM   26  C2  UNK     1      29.567  -9.481  31.358  1.00  0.00    -0.010 A 
HETATM   27  C5  UNK     1      30.098 -10.273  30.368  1.00  0.00     0.011 A 
HETATM   28  C11 UNK     1      29.452 -10.320  29.134  1.00  0.00     0.001 A 
HETATM   29  C18 UNK     1      28.293  -9.572  28.925  1.00  0.00     0.000 A 
HETATM   30  C13 UNK     1      27.781  -8.778  29.951  1.00  0.00     0.001 A 
HETATM   31  C7  UNK     1      28.428  -8.732  31.186  1.00  0.00     0.011 A 
ENDBRANCH  23  26
BRANCH  23  32
HETATM   32  C3  UNK     1      29.307  -8.987  33.817  1.00  0.00    -0.010 A 
HETATM   33  C6  UNK     1      28.630  -9.955  34.521  1.00  0.00     0.011 A 
HETATM   34  C12 UNK     1      27.747  -9.553  35.522  1.00  0.00     0.001 A 
HETATM   35  C19 UNK     1      27.567  -8.196  35.791  1.00  0.00     0.000 A 
HETATM   36  C14 UNK     1      28.271  -7.241  35.057  1.00  0.00     0.001 A 
HETATM   37  C8  UNK     1      29.154  -7.643  34.055  1.00  0.00     0.011 A 
ENDBRANCH  23  32
ENDBRANCH   3  23
TORSDOF 8
ENDMDL
MODEL 7
REMARK VINA RESULT:      -9.8     10.315     13.890
REMARK  8 active torsions:
REMARK  status: ('A' for Active; 'I' for Inactive)
REMARK    1  A    between atoms: C1_9  and  O1_2 
REMARK       I    between atoms: C4_12  and  N1_6 
REMARK    2  A    between atoms: N1_6  and  N2_7 
REMARK    3  A    between atoms: C23_31  and  N2_7 
REMARK    4  A    between atoms: C16_24  and  N3_8 
REMARK    5  A    between atoms: C23_31  and  N3_8 
REMARK    6  A    between atoms: C1_9  and  C2_10 
REMARK    7  A    between atoms: C1_9  and  C3_11 
REMARK    8  A    between atoms: C1_9  and  C4_12 
ROOT
HETATM    1  O2  UNK     1      28.259  -8.522  35.206  1.00  0.00    -0.268 OA
HETATM    2  N1  UNK     1      28.324  -6.223  34.996  1.00  0.00    -0.265 N 
HETATM    3  C4  UNK     1      28.477  -7.412  35.694  1.00  0.00     0.280 C 
HETATM    4  H6  UNK     1      28.294  -5.320  35.452  1.00  0.00     0.190 HD
ENDROOT
BRANCH   2   5
HETATM    5  N2  UNK     1      27.908  -6.272  33.687  1.00  0.00    -0.273 N 
HETATM    6  H16 UNK     1      26.965  -6.610  33.522  1.00  0.00     0.189 HD
BRANCH   5   7
HETATM    7  C23 UNK     1      28.732  -5.886  32.638  1.00  0.00     0.191 C 
HETATM    8  S1  UNK     1      28.188  -6.199  31.081  1.00  0.00    -0.039 SA
BRANCH   7   9
HETATM    9  N3  UNK     1      29.915  -5.238  33.031  1.00  0.00    -0.332 N 
HETATM   10  H17 UNK     1      29.821  -4.234  33.146  1.00  0.00     0.168 HD
BRANCH   9  11
HETATM   11  C16 UNK     1      31.184  -5.701  33.381  1.00  0.00     0.037 A 
HETATM   12  C17 UNK     1      31.670  -6.886  32.838  1.00  0.00     0.067 A 
HETATM   13  C10 UNK     1      32.942  -7.329  33.201  1.00  0.00     0.092 A 
HETATM   14  O3  UNK     1      33.380  -8.536  32.618  1.00  0.00    -0.275 OA
HETATM   15  C9  UNK     1      33.751  -6.625  34.096  1.00  0.00     0.004 A 
HETATM   16  C25 UNK     1      34.626  -9.070  32.907  1.00  0.00     0.288 A 
HETATM   17  C22 UNK     1      35.467  -8.315  33.852  1.00  0.00     0.090 A 
HETATM   18  O4  UNK     1      35.017 -10.119  32.405  1.00  0.00    -0.260 OA
HETATM   19  C15 UNK     1      35.077  -7.167  34.421  1.00  0.00    -0.043 A 
HETATM   20  C24 UNK     1      35.970  -6.433  35.379  1.00  0.00     0.049 C 
HETATM   21  C20 UNK     1      33.243  -5.434  34.631  1.00  0.00     0.017 A 
HETATM   22  C21 UNK     1      31.969  -4.976  34.276  1.00  0.00     0.030 A 
ENDBRANCH   9  11
ENDBRANCH   7   9
ENDBRANCH   5   7
ENDBRANCH   2   5
BRANCH   3  23
HETATM   23  C1  UNK     1      28.927  -7.216  37.156  1.00  0.00     0.195 C 
BRANCH  23  24
HETATM   24  O1  UNK     1      28.452  -5.874  37.383  1.00  0.00    -0.371 OA
HETATM   25  H5  UNK     1      27.616  -5.760  36.899  1.00  0.00     0.212 HD
ENDBRANCH  23  24
BRANCH  23  26
HETATM   26  C2  UNK     1      30.447  -7.286  37.345  1.00  0.00    -0.010 A 
HETATM   27  C5  UNK     1      31.063  -6.301  38.081  1.00  0.00     0.011 A 
HETATM   28  C11 UNK     1      32.445  -6.365  38.253  1.00  0.00     0.001 A 
HETATM   29  C18 UNK     1      33.172  -7.412  37.685  1.00  0.00     0.000 A 
HETATM   30  C13 UNK     1      32.515  -8.394  36.944  1.00  0.00     0.001 A 
HETATM   31  C7  UNK     1      31.132  -8.330  36.771  1.00  0.00     0.011 A 
ENDBRANCH  23  26
BRANCH  23  32
HETATM   32  C3  UNK     1      28.218  -8.170  38.125  1.00  0.00    -0.010 A 
HETATM   33  C6  UNK     1      26.897  -7.936  38.426  1.00  0.00     0.011 A 
HETATM   34  C12 UNK     1      26.253  -8.804  39.306  1.00  0.00     0.001 A 
HETATM   35  C19 UNK     1      26.946  -9.880  39.859  1.00  0.00     0.000 A 
HETATM   36  C14 UNK     1      28.285 -10.088  39.531  1.00  0.00     0.001 A 
HETATM   37  C8  UNK     1      28.932  -9.220  38.650  1.00  0.00     0.011 A 
ENDBRANCH  23  32
ENDBRANCH   3  23
TORSDOF 8
ENDMDL
MODEL 8
REMARK VINA RESULT:      -9.8      5.241      8.286
REMARK  8 active torsions:
REMARK  status: ('A' for Active; 'I' for Inactive)
REMARK    1  A    between atoms: C1_9  and  O1_2 
REMARK       I    between atoms: C4_12  and  N1_6 
REMARK    2  A    between atoms: N1_6  and  N2_7 
REMARK    3  A    between atoms: C23_31  and  N2_7 
REMARK    4  A    between atoms: C16_24  and  N3_8 
REMARK    5  A    between atoms: C23_31  and  N3_8 
REMARK    6  A    between atoms: C1_9  and  C2_10 
REMARK    7  A    between atoms: C1_9  and  C3_11 
REMARK    8  A    between atoms: C1_9  and  C4_12 
ROOT
HETATM    1  O2  UNK     1      19.368   6.447  31.603  1.00  0.00    -0.268 OA
HETATM    2  N1  UNK     1      18.169   4.626  32.363  1.00  0.00    -0.265 N 
HETATM    3  C4  UNK     1      18.546   5.962  32.380  1.00  0.00     0.280 C 
HETATM    4  H6  UNK     1      17.666   4.189  33.125  1.00  0.00     0.190 HD
ENDROOT
BRANCH   2   5
HETATM    5  N2  UNK     1      18.738   3.789  31.432  1.00  0.00    -0.273 N 
HETATM    6  H16 UNK     1      19.340   4.222  30.739  1.00  0.00     0.189 HD
BRANCH   5   7
HETATM    7  C23 UNK     1      18.499   2.421  31.430  1.00  0.00     0.191 C 
HETATM    8  S1  UNK     1      19.234   1.517  30.222  1.00  0.00    -0.039 SA
BRANCH   7   9
HETATM    9  N3  UNK     1      17.689   1.966  32.485  1.00  0.00    -0.332 N 
HETATM   10  H17 UNK     1      16.715   2.242  32.409  1.00  0.00     0.168 HD
BRANCH   9  11
HETATM   11  C16 UNK     1      17.929   1.136  33.579  1.00  0.00     0.037 A 
HETATM   12  C17 UNK     1      18.609  -0.065  33.410  1.00  0.00     0.067 A 
HETATM   13  C10 UNK     1      18.839  -0.880  34.520  1.00  0.00     0.092 A 
HETATM   14  O3  UNK     1      19.534  -2.084  34.286  1.00  0.00    -0.275 OA
HETATM   15  C9  UNK     1      18.408  -0.533  35.802  1.00  0.00     0.004 A 
HETATM   16  C25 UNK     1      19.817  -2.968  35.315  1.00  0.00     0.288 A 
HETATM   17  C22 UNK     1      19.356  -2.588  36.661  1.00  0.00     0.090 A 
HETATM   18  O4  UNK     1      20.422  -4.018  35.122  1.00  0.00    -0.260 OA
HETATM   19  C15 UNK     1      18.693  -1.451  36.912  1.00  0.00    -0.043 A 
HETATM   20  C24 UNK     1      18.243  -1.107  38.303  1.00  0.00     0.049 C 
HETATM   21  C20 UNK     1      17.724   0.681  35.951  1.00  0.00     0.017 A 
HETATM   22  C21 UNK     1      17.486   1.509  34.848  1.00  0.00     0.030 A 
ENDBRANCH   9  11
ENDBRANCH   7   9
ENDBRANCH   5   7
ENDBRANCH   2   5
BRANCH   3  23
HETATM   23  C1  UNK     1      17.851   6.784  33.484  1.00  0.00     0.195 C 
BRANCH  23  24
HETATM   24  O1  UNK     1      18.021   5.891  34.602  1.00  0.00    -0.371 OA
HETATM   25  H5  UNK     1      17.733   5.003  34.331  1.00  0.00     0.212 HD
ENDBRANCH  23  24
BRANCH  23  26
HETATM   26  C2  UNK     1      16.362   7.034  33.218  1.00  0.00    -0.010 A 
HETATM   27  C5  UNK     1      15.915   7.019  31.918  1.00  0.00     0.011 A 
HETATM   28  C11 UNK     1      14.561   7.247  31.676  1.00  0.00     0.001 A 
HETATM   29  C18 UNK     1      13.692   7.484  32.742  1.00  0.00     0.000 A 
HETATM   30  C13 UNK     1      14.179   7.493  34.049  1.00  0.00     0.001 A 
HETATM   31  C7  UNK     1      15.534   7.265  34.291  1.00  0.00     0.011 A 
ENDBRANCH  23  26
BRANCH  23  32
HETATM   32  C3  UNK     1      18.575   8.103  33.780  1.00  0.00    -0.010 A 
HETATM   33  C6  UNK     1      19.862   8.051  34.260  1.00  0.00     0.011 A 
HETATM   34  C12 UNK     1      20.520   9.250  34.530  1.00  0.00     0.001 A 
HETATM   35  C19 UNK     1      19.874  10.466  34.311  1.00  0.00     0.000 A 
HETATM   36  C14 UNK     1      18.567  10.482  33.823  1.00  0.00     0.001 A 
HETATM   37  C8  UNK     1      17.908   9.283  33.553  1.00  0.00     0.011 A 
ENDBRANCH  23  32
ENDBRANCH   3  23
TORSDOF 8
ENDMDL
MODEL 9
REMARK VINA RESULT:      -9.8     11.492     13.476
REMARK  8 active torsions:
REMARK  status: ('A' for Active; 'I' for Inactive)
REMARK    1  A    between atoms: C1_9  and  O1_2 
REMARK       I    between atoms: C4_12  and  N1_6 
REMARK    2  A    between atoms: N1_6  and  N2_7 
REMARK    3  A    between atoms: C23_31  and  N2_7 
REMARK    4  A    between atoms: C16_24  and  N3_8 
REMARK    5  A    between atoms: C23_31  and  N3_8 
REMARK    6  A    between atoms: C1_9  and  C2_10 
REMARK    7  A    between atoms: C1_9  and  C3_11 
REMARK    8  A    between atoms: C1_9  and  C4_12 
ROOT
HETATM    1  O2  UNK     1      32.156  -5.125  34.089  1.00  0.00    -0.268 OA
HETATM    2  N1  UNK     1      32.659  -7.372  33.915  1.00  0.00    -0.265 N 
HETATM    3  C4  UNK     1      31.838  -6.265  33.752  1.00  0.00     0.280 C 
HETATM    4  H6  UNK     1      32.320  -8.322  33.839  1.00  0.00     0.190 HD
ENDROOT
BRANCH   2   5
HETATM    5  N2  UNK     1      33.900  -7.198  34.483  1.00  0.00    -0.273 N 
HETATM    6  H16 UNK     1      34.681  -7.092  33.843  1.00  0.00     0.189 HD
BRANCH   5   7
HETATM    7  C23 UNK     1      34.082  -7.174  35.859  1.00  0.00     0.191 C 
HETATM    8  S1  UNK     1      35.000  -5.918  36.489  1.00  0.00    -0.039 SA
BRANCH   7   9
HETATM    9  N3  UNK     1      33.428  -8.205  36.555  1.00  0.00    -0.332 N 
HETATM   10  H17 UNK     1      33.996  -9.033  36.701  1.00  0.00     0.168 HD
BRANCH   9  11
HETATM   11  C16 UNK     1      32.177  -8.297  37.165  1.00  0.00     0.037 A 
HETATM   12  C17 UNK     1      31.425  -7.151  37.395  1.00  0.00     0.067 A 
HETATM   13  C10 UNK     1      30.175  -7.267  38.006  1.00  0.00     0.092 A 
HETATM   14  O3  UNK     1      29.460  -6.070  38.212  1.00  0.00    -0.275 OA
HETATM   15  C9  UNK     1      29.649  -8.499  38.399  1.00  0.00     0.004 A 
HETATM   16  C25 UNK     1      28.210  -6.067  38.810  1.00  0.00     0.288 A 
HETATM   17  C22 UNK     1      27.668  -7.374  39.218  1.00  0.00     0.090 A 
HETATM   18  O4  UNK     1      27.578  -5.031  38.994  1.00  0.00    -0.260 OA
HETATM   19  C15 UNK     1      28.325  -8.527  39.035  1.00  0.00    -0.043 A 
HETATM   20  C24 UNK     1      27.731  -9.836  39.469  1.00  0.00     0.049 C 
HETATM   21  C20 UNK     1      30.422  -9.642  38.158  1.00  0.00     0.017 A 
HETATM   22  C21 UNK     1      31.677  -9.542  37.546  1.00  0.00     0.030 A 
ENDBRANCH   9  11
ENDBRANCH   7   9
ENDBRANCH   5   7
ENDBRANCH   2   5
BRANCH   3  23
HETATM   23  C1  UNK     1      30.470  -6.601  33.125  1.00  0.00     0.195 C 
BRANCH  23  24
HETATM   24  O1  UNK     1      29.802  -5.336  33.294  1.00  0.00    -0.371 OA
HETATM   25  H5  UNK     1      28.847  -5.500  33.364  1.00  0.00     0.212 HD
ENDBRANCH  23  24
BRANCH  23  26
HETATM   26  C2  UNK     1      29.712  -7.711  33.862  1.00  0.00    -0.010 A 
HETATM   27  C5  UNK     1      30.150  -9.007  33.726  1.00  0.00     0.011 A 
HETATM   28  C11 UNK     1      29.461 -10.017  34.396  1.00  0.00     0.001 A 
HETATM   29  C18 UNK     1      28.352  -9.701  35.183  1.00  0.00     0.000 A 
HETATM   30  C13 UNK     1      27.935  -8.376  35.299  1.00  0.00     0.001 A 
HETATM   31  C7  UNK     1      28.625  -7.366  34.628  1.00  0.00     0.011 A 
ENDBRANCH  23  26
BRANCH  23  32
HETATM   32  C3  UNK     1      30.570  -6.919  31.627  1.00  0.00    -0.010 A 
HETATM   33  C6  UNK     1      29.407  -7.043  30.904  1.00  0.00     0.011 A 
HETATM   34  C12 UNK     1      29.498  -7.332  29.543  1.00  0.00     0.001 A 
HETATM   35  C19 UNK     1      30.748  -7.488  28.945  1.00  0.00     0.000 A 
HETATM   36  C14 UNK     1      31.908  -7.355  29.708  1.00  0.00     0.001 A 
HETATM   37  C8  UNK     1      31.818  -7.066  31.071  1.00  0.00     0.011 A 
ENDBRANCH  23  32
ENDBRANCH   3  23
TORSDOF 8
ENDMDL
MODEL 10
REMARK VINA RESULT:      -9.8     10.236     13.019
REMARK  8 active torsions:
REMARK  status: ('A' for Active; 'I' for Inactive)
REMARK    1  A    between atoms: C1_9  and  O1_2 
REMARK       I    between atoms: C4_12  and  N1_6 
REMARK    2  A    between atoms: N1_6  and  N2_7 
REMARK    3  A    between atoms: C23_31  and  N2_7 
REMARK    4  A    between atoms: C16_24  and  N3_8 
REMARK    5  A    between atoms: C23_31  and  N3_8 
REMARK    6  A    between atoms: C1_9  and  C2_10 
REMARK    7  A    between atoms: C1_9  and  C3_11 
REMARK    8  A    between atoms: C1_9  and  C4_12 
ROOT
HETATM    1  O2  UNK     1      28.915  -9.788  34.717  1.00  0.00    -0.268 OA
HETATM    2  N1  UNK     1      27.688  -8.300  35.988  1.00  0.00    -0.265 N 
HETATM    3  C4  UNK     1      28.488  -8.649  34.909  1.00  0.00     0.280 C 
HETATM    4  H6  UNK     1      27.520  -7.339  36.257  1.00  0.00     0.190 HD
ENDROOT
BRANCH   2   5
HETATM    5  N2  UNK     1      27.345  -9.271  36.899  1.00  0.00    -0.273 N 
HETATM    6  H16 UNK     1      26.772 -10.035  36.556  1.00  0.00     0.189 HD
BRANCH   5   7
HETATM    7  C23 UNK     1      27.754  -9.211  38.226  1.00  0.00     0.191 C 
HETATM    8  S1  UNK     1      26.551  -9.151  39.395  1.00  0.00    -0.039 SA
BRANCH   7   9
HETATM    9  N3  UNK     1      29.146  -9.249  38.412  1.00  0.00    -0.332 N 
HETATM   10  H17 UNK     1      29.490 -10.124  38.794  1.00  0.00     0.168 HD
BRANCH   9  11
HETATM   11  C16 UNK     1      30.173  -8.359  38.099  1.00  0.00     0.037 A 
HETATM   12  C17 UNK     1      29.886  -7.025  37.833  1.00  0.00     0.067 A 
HETATM   13  C10 UNK     1      30.930  -6.152  37.524  1.00  0.00     0.092 A 
HETATM   14  O3  UNK     1      30.576  -4.812  37.265  1.00  0.00    -0.275 OA
HETATM   15  C9  UNK     1      32.261  -6.570  37.470  1.00  0.00     0.004 A 
HETATM   16  C25 UNK     1      31.531  -3.859  36.948  1.00  0.00     0.288 A 
HETATM   17  C22 UNK     1      32.930  -4.315  36.895  1.00  0.00     0.090 A 
HETATM   18  O4  UNK     1      31.234  -2.690  36.722  1.00  0.00    -0.260 OA
HETATM   19  C15 UNK     1      33.295  -5.582  37.136  1.00  0.00    -0.043 A 
HETATM   20  C24 UNK     1      34.736  -6.000  37.070  1.00  0.00     0.049 C 
HETATM   21  C20 UNK     1      32.530  -7.918  37.741  1.00  0.00     0.017 A 
HETATM   22  C21 UNK     1      31.493  -8.805  38.053  1.00  0.00     0.030 A 
ENDBRANCH   9  11
ENDBRANCH   7   9
ENDBRANCH   5   7
ENDBRANCH   2   5
BRANCH   3  23
HETATM   23  C1  UNK     1      28.815  -7.465  33.976  1.00  0.00     0.195 C 
BRANCH  23  24
HETATM   24  O1  UNK     1      28.149  -6.401  34.684  1.00  0.00    -0.371 OA
HETATM   25  H5  UNK     1      28.789  -5.683  34.829  1.00  0.00     0.212 HD
ENDBRANCH  23  24
BRANCH  23  26
HETATM   26  C2  UNK     1      28.234  -7.616  32.565  1.00  0.00    -0.010 A 
HETATM   27  C5  UNK     1      28.552  -8.742  31.842  1.00  0.00     0.011 A 
HETATM   28  C11 UNK     1      28.025  -8.880  30.559  1.00  0.00     0.001 A 
HETATM   29  C18 UNK     1      27.195  -7.887  30.035  1.00  0.00     0.000 A 
HETATM   30  C13 UNK     1      26.894  -6.758  30.796  1.00  0.00     0.001 A 
HETATM   31  C7  UNK     1      27.422  -6.620  32.080  1.00  0.00     0.011 A 
ENDBRANCH  23  26
BRANCH  23  32
HETATM   32  C3  UNK     1      30.317  -7.162  33.912  1.00  0.00    -0.010 A 
HETATM   33  C6  UNK     1      30.715  -5.865  33.694  1.00  0.00     0.011 A 
HETATM   34  C12 UNK     1      32.081  -5.589  33.635  1.00  0.00     0.001 A 
HETATM   35  C19 UNK     1      33.008  -6.618  33.799  1.00  0.00     0.000 A 
HETATM   36  C14 UNK     1      32.569  -7.923  34.019  1.00  0.00     0.001 A 
HETATM   37  C8  UNK     1      31.202  -8.200  34.077  1.00  0.00     0.011 A 
ENDBRANCH  23  32
ENDBRANCH   3  23
TORSDOF 8
ENDMDL
