MODEL 1
REMARK VINA RESULT:      -7.6      0.000      0.000
REMARK  2 active torsions:
REMARK  status: ('A' for Active; 'I' for Inactive)
REMARK    1  A    between atoms: C11_14  and  O2_2 
REMARK    2  A    between atoms: C2_5  and  C4_7 
ROOT
HETATM    1  O1  UNK     1      16.031   6.077   9.997  1.00  0.00    -0.275 OA
HETATM    2  O3  UNK     1      15.809   3.806   9.861  1.00  0.00    -0.260 OA
HETATM    3  C1  UNK     1      14.275   7.499   9.079  1.00  0.00     0.009 A 
HETATM    4  C2  UNK     1      13.530   6.297   8.674  1.00  0.00    -0.007 A 
HETATM    5  C3  UNK     1      15.501   7.353   9.726  1.00  0.00     0.093 A 
HETATM    6  C5  UNK     1      13.806   8.799   8.843  1.00  0.00     0.018 A 
HETATM    7  C6  UNK     1      14.063   5.095   8.946  1.00  0.00     0.095 A 
HETATM    8  C7  UNK     1      16.258   8.451  10.135  1.00  0.00     0.074 A 
HETATM    9  C8  UNK     1      14.556   9.909   9.248  1.00  0.00     0.037 A 
HETATM   10  C11 UNK     1      15.780   9.735   9.893  1.00  0.00     0.068 A 
HETATM   11  C12 UNK     1      15.357   4.923   9.631  1.00  0.00     0.289 A 
ENDROOT
BRANCH   4  12
HETATM   12  C4  UNK     1      12.239   6.275   7.991  1.00  0.00    -0.025 A 
HETATM   13  C10 UNK     1      12.187   6.369   6.604  1.00  0.00     0.012 A 
HETATM   14  C14 UNK     1      10.953   6.348   5.953  1.00  0.00     0.001 A 
HETATM   15  C15 UNK     1       9.777   6.232   6.692  1.00  0.00     0.000 A 
HETATM   16  C13 UNK     1       9.832   6.138   8.083  1.00  0.00     0.001 A 
HETATM   17  C9  UNK     1      11.066   6.160   8.734  1.00  0.00     0.012 A 
ENDBRANCH   4  12
BRANCH  10  18
HETATM   18  O2  UNK     1      16.505  10.818  10.283  1.00  0.00    -0.361 OA
HETATM   19  H10 UNK     1      16.910  10.632  11.148  1.00  0.00     0.217 HD
ENDBRANCH  10  18
TORSDOF 2
ENDMDL
MODEL 2
REMARK VINA RESULT:      -7.6     23.975     25.887
REMARK  2 active torsions:
REMARK  status: ('A' for Active; 'I' for Inactive)
REMARK    1  A    between atoms: C11_14  and  O2_2 
REMARK    2  A    between atoms: C2_5  and  C4_7 
ROOT
HETATM    1  O1  UNK     1      19.183   1.702  30.410  1.00  0.00    -0.275 OA
HETATM    2  O3  UNK     1      18.440   3.853  30.620  1.00  0.00    -0.260 OA
HETATM    3  C1  UNK     1      18.961   0.179  32.301  1.00  0.00     0.009 A 
HETATM    4  C2  UNK     1      18.340   1.259  33.083  1.00  0.00    -0.007 A 
HETATM    5  C3  UNK     1      19.363   0.433  30.991  1.00  0.00     0.093 A 
HETATM    6  C5  UNK     1      19.168  -1.108  32.815  1.00  0.00     0.018 A 
HETATM    7  C6  UNK     1      18.183   2.459  32.500  1.00  0.00     0.095 A 
HETATM    8  C7  UNK     1      19.959  -0.547  30.196  1.00  0.00     0.074 A 
HETATM    9  C8  UNK     1      19.765  -2.100  32.029  1.00  0.00     0.037 A 
HETATM   10  C11 UNK     1      20.159  -1.820  30.721  1.00  0.00     0.068 A 
HETATM   11  C12 UNK     1      18.602   2.743  31.116  1.00  0.00     0.289 A 
ENDROOT
BRANCH   4  12
HETATM   12  C4  UNK     1      17.865   1.160  34.461  1.00  0.00    -0.025 A 
HETATM   13  C10 UNK     1      16.690   0.467  34.740  1.00  0.00     0.012 A 
HETATM   14  C14 UNK     1      16.237   0.373  36.056  1.00  0.00     0.001 A 
HETATM   15  C15 UNK     1      16.960   0.973  37.087  1.00  0.00     0.000 A 
HETATM   16  C13 UNK     1      18.136   1.667  36.803  1.00  0.00     0.001 A 
HETATM   17  C9  UNK     1      18.590   1.761  35.487  1.00  0.00     0.012 A 
ENDBRANCH   4  12
BRANCH  10  18
HETATM   18  O2  UNK     1      20.740  -2.787  29.962  1.00  0.00    -0.361 OA
HETATM   19  H10 UNK     1      20.074  -3.464  29.750  1.00  0.00     0.217 HD
ENDBRANCH  10  18
TORSDOF 2
ENDMDL
MODEL 3
REMARK VINA RESULT:      -7.6     22.817     24.624
REMARK  2 active torsions:
REMARK  status: ('A' for Active; 'I' for Inactive)
REMARK    1  A    between atoms: C11_14  and  O2_2 
REMARK    2  A    between atoms: C2_5  and  C4_7 
ROOT
HETATM    1  O1  UNK     1      14.543   8.479  32.938  1.00  0.00    -0.275 OA
HETATM    2  O3  UNK     1      13.716   6.640  31.860  1.00  0.00    -0.260 OA
HETATM    3  C1  UNK     1      16.959   8.774  33.098  1.00  0.00     0.009 A 
HETATM    4  C2  UNK     1      17.150   7.517  32.358  1.00  0.00    -0.007 A 
HETATM    5  C3  UNK     1      15.664   9.215  33.365  1.00  0.00     0.093 A 
HETATM    6  C5  UNK     1      18.028   9.559  33.551  1.00  0.00     0.018 A 
HETATM    7  C6  UNK     1      16.060   6.838  31.964  1.00  0.00     0.095 A 
HETATM    8  C7  UNK     1      15.413  10.397  34.063  1.00  0.00     0.074 A 
HETATM    9  C8  UNK     1      17.791  10.746  34.253  1.00  0.00     0.037 A 
HETATM   10  C11 UNK     1      16.485  11.165  34.508  1.00  0.00     0.068 A 
HETATM   11  C12 UNK     1      14.684   7.291  32.237  1.00  0.00     0.289 A 
ENDROOT
BRANCH   4  12
HETATM   12  C4  UNK     1      18.432   6.918  31.997  1.00  0.00    -0.025 A 
HETATM   13  C10 UNK     1      19.453   6.846  32.940  1.00  0.00     0.012 A 
HETATM   14  C14 UNK     1      20.677   6.273  32.594  1.00  0.00     0.001 A 
HETATM   15  C15 UNK     1      20.875   5.774  31.307  1.00  0.00     0.000 A 
HETATM   16  C13 UNK     1      19.849   5.849  30.364  1.00  0.00     0.001 A 
HETATM   17  C9  UNK     1      18.625   6.422  30.710  1.00  0.00     0.012 A 
ENDBRANCH   4  12
BRANCH  10  18
HETATM   18  O2  UNK     1      16.261  12.319  35.191  1.00  0.00    -0.361 OA
HETATM   19  H10 UNK     1      17.088  12.596  35.623  1.00  0.00     0.217 HD
ENDBRANCH  10  18
TORSDOF 2
ENDMDL
MODEL 4
REMARK VINA RESULT:      -7.6     22.701     24.439
REMARK  2 active torsions:
REMARK  status: ('A' for Active; 'I' for Inactive)
REMARK    1  A    between atoms: C11_14  and  O2_2 
REMARK    2  A    between atoms: C2_5  and  C4_7 
ROOT
HETATM    1  O1  UNK     1      18.052   9.208  34.133  1.00  0.00    -0.275 OA
HETATM    2  O3  UNK     1      20.269   8.935  34.620  1.00  0.00    -0.260 OA
HETATM    3  C1  UNK     1      16.930   7.550  32.740  1.00  0.00     0.009 A 
HETATM    4  C2  UNK     1      18.191   6.801  32.636  1.00  0.00    -0.007 A 
HETATM    5  C3  UNK     1      16.899   8.729  33.483  1.00  0.00     0.093 A 
HETATM    6  C5  UNK     1      15.744   7.131  32.121  1.00  0.00     0.018 A 
HETATM    7  C6  UNK     1      19.274   7.285  33.267  1.00  0.00     0.095 A 
HETATM    8  C7  UNK     1      15.736   9.487  33.622  1.00  0.00     0.074 A 
HETATM    9  C8  UNK     1      14.571   7.882  32.251  1.00  0.00     0.037 A 
HETATM   10  C11 UNK     1      14.567   9.058  33.000  1.00  0.00     0.068 A 
HETATM   11  C12 UNK     1      19.258   8.528  34.058  1.00  0.00     0.289 A 
ENDROOT
BRANCH   4  12
HETATM   12  C4  UNK     1      18.394   5.555  31.901  1.00  0.00    -0.025 A 
HETATM   13  C10 UNK     1      18.087   4.338  32.502  1.00  0.00     0.012 A 
HETATM   14  C14 UNK     1      18.281   3.149  31.799  1.00  0.00     0.001 A 
HETATM   15  C15 UNK     1      18.780   3.182  30.497  1.00  0.00     0.000 A 
HETATM   16  C13 UNK     1      19.087   4.403  29.898  1.00  0.00     0.001 A 
HETATM   17  C9  UNK     1      18.894   5.592  30.601  1.00  0.00     0.012 A 
ENDBRANCH   4  12
BRANCH  10  18
HETATM   18  O2  UNK     1      13.424   9.785  33.121  1.00  0.00    -0.361 OA
HETATM   19  H10 UNK     1      12.696   9.302  32.692  1.00  0.00     0.217 HD
ENDBRANCH  10  18
TORSDOF 2
ENDMDL
MODEL 5
REMARK VINA RESULT:      -7.4     35.253     36.665
REMARK  2 active torsions:
REMARK  status: ('A' for Active; 'I' for Inactive)
REMARK    1  A    between atoms: C11_14  and  O2_2 
REMARK    2  A    between atoms: C2_5  and  C4_7 
ROOT
HETATM    1  O1  UNK     1      31.227  -4.831  38.883  1.00  0.00    -0.275 OA
HETATM    2  O3  UNK     1      29.455  -3.684  39.758  1.00  0.00    -0.260 OA
HETATM    3  C1  UNK     1      30.877  -7.093  38.040  1.00  0.00     0.009 A 
HETATM    4  C2  UNK     1      29.456  -6.997  38.407  1.00  0.00    -0.007 A 
HETATM    5  C3  UNK     1      31.718  -6.009  38.289  1.00  0.00     0.093 A 
HETATM    6  C5  UNK     1      31.433  -8.233  37.444  1.00  0.00     0.018 A 
HETATM    7  C6  UNK     1      29.019  -5.860  38.972  1.00  0.00     0.095 A 
HETATM    8  C7  UNK     1      33.075  -6.035  37.967  1.00  0.00     0.074 A 
HETATM    9  C8  UNK     1      32.792  -8.273  37.116  1.00  0.00     0.037 A 
HETATM   10  C11 UNK     1      33.612  -7.175  37.377  1.00  0.00     0.068 A 
HETATM   11  C12 UNK     1      29.894  -4.705  39.241  1.00  0.00     0.289 A 
ENDROOT
BRANCH   4  12
HETATM   12  C4  UNK     1      28.446  -8.035  38.215  1.00  0.00    -0.025 A 
HETATM   13  C10 UNK     1      27.896  -8.241  36.953  1.00  0.00     0.012 A 
HETATM   14  C14 UNK     1      26.932  -9.233  36.771  1.00  0.00     0.001 A 
HETATM   15  C15 UNK     1      26.522 -10.014  37.851  1.00  0.00     0.000 A 
HETATM   16  C13 UNK     1      27.075  -9.804  39.114  1.00  0.00     0.001 A 
HETATM   17  C9  UNK     1      28.039  -8.812  39.296  1.00  0.00     0.012 A 
ENDBRANCH   4  12
BRANCH  10  18
HETATM   18  O2  UNK     1      34.933  -7.220  37.057  1.00  0.00    -0.361 OA
HETATM   19  H10 UNK     1      35.214  -6.341  36.751  1.00  0.00     0.217 HD
ENDBRANCH  10  18
TORSDOF 2
ENDMDL
MODEL 6
REMARK VINA RESULT:      -7.4     22.856     24.720
REMARK  2 active torsions:
REMARK  status: ('A' for Active; 'I' for Inactive)
REMARK    1  A    between atoms: C11_14  and  O2_2 
REMARK    2  A    between atoms: C2_5  and  C4_7 
ROOT
HETATM    1  O1  UNK     1      18.249   1.395  32.966  1.00  0.00    -0.275 OA
HETATM    2  O3  UNK     1      18.081   1.348  35.245  1.00  0.00    -0.260 OA
HETATM    3  C1  UNK     1      18.444   3.546  31.835  1.00  0.00     0.009 A 
HETATM    4  C2  UNK     1      18.383   4.225  33.138  1.00  0.00    -0.007 A 
HETATM    5  C3  UNK     1      18.374   2.155  31.788  1.00  0.00     0.093 A 
HETATM    6  C5  UNK     1      18.570   4.240  30.623  1.00  0.00     0.018 A 
HETATM    7  C6  UNK     1      18.264   3.471  34.244  1.00  0.00     0.095 A 
HETATM    8  C7  UNK     1      18.425   1.450  30.585  1.00  0.00     0.074 A 
HETATM    9  C8  UNK     1      18.621   3.545  29.409  1.00  0.00     0.037 A 
HETATM   10  C11 UNK     1      18.549   2.153  29.390  1.00  0.00     0.068 A 
HETATM   11  C12 UNK     1      18.190   1.999  34.212  1.00  0.00     0.289 A 
ENDROOT
BRANCH   4  12
HETATM   12  C4  UNK     1      18.443   5.667  33.361  1.00  0.00    -0.025 A 
HETATM   13  C10 UNK     1      17.271   6.417  33.362  1.00  0.00     0.012 A 
HETATM   14  C14 UNK     1      17.329   7.794  33.575  1.00  0.00     0.001 A 
HETATM   15  C15 UNK     1      18.560   8.416  33.787  1.00  0.00     0.000 A 
HETATM   16  C13 UNK     1      19.733   7.661  33.785  1.00  0.00     0.001 A 
HETATM   17  C9  UNK     1      19.674   6.283  33.572  1.00  0.00     0.012 A 
ENDBRANCH   4  12
BRANCH  10  18
HETATM   18  O2  UNK     1      18.598   1.484  28.207  1.00  0.00    -0.361 OA
HETATM   19  H10 UNK     1      18.107   1.991  27.537  1.00  0.00     0.217 HD
ENDBRANCH  10  18
TORSDOF 2
ENDMDL
MODEL 7
REMARK VINA RESULT:      -7.3     23.909     25.774
REMARK  2 active torsions:
REMARK  status: ('A' for Active; 'I' for Inactive)
REMARK    1  A    between atoms: C11_14  and  O2_2 
REMARK    2  A    between atoms: C2_5  and  C4_7 
ROOT
HETATM    1  O1  UNK     1      18.209   1.617  31.678  1.00  0.00    -0.275 OA
HETATM    2  O3  UNK     1      18.116   2.632  29.633  1.00  0.00    -0.260 OA
HETATM    3  C1  UNK     1      18.369   2.998  33.682  1.00  0.00     0.009 A 
HETATM    4  C2  UNK     1      18.355   4.203  32.839  1.00  0.00    -0.007 A 
HETATM    5  C3  UNK     1      18.296   1.744  33.078  1.00  0.00     0.093 A 
HETATM    6  C5  UNK     1      18.452   3.050  35.081  1.00  0.00     0.018 A 
HETATM    7  C6  UNK     1      18.271   4.048  31.508  1.00  0.00     0.095 A 
HETATM    8  C7  UNK     1      18.306   0.562  33.819  1.00  0.00     0.074 A 
HETATM    9  C8  UNK     1      18.464   1.872  35.836  1.00  0.00     0.037 A 
HETATM   10  C11 UNK     1      18.390   0.630  35.206  1.00  0.00     0.068 A 
HETATM   11  C12 UNK     1      18.192   2.730  30.852  1.00  0.00     0.289 A 
ENDROOT
BRANCH   4  12
HETATM   12  C4  UNK     1      18.423   5.583  33.311  1.00  0.00    -0.025 A 
HETATM   13  C10 UNK     1      17.257   6.250  33.674  1.00  0.00     0.012 A 
HETATM   14  C14 UNK     1      17.323   7.569  34.124  1.00  0.00     0.001 A 
HETATM   15  C15 UNK     1      18.556   8.215  34.210  1.00  0.00     0.000 A 
HETATM   16  C13 UNK     1      19.723   7.544  33.845  1.00  0.00     0.001 A 
HETATM   17  C9  UNK     1      19.657   6.225  33.395  1.00  0.00     0.012 A 
ENDBRANCH   4  12
BRANCH  10  18
HETATM   18  O2  UNK     1      18.403  -0.511  35.946  1.00  0.00    -0.361 OA
HETATM   19  H10 UNK     1      19.264  -0.950  35.834  1.00  0.00     0.217 HD
ENDBRANCH  10  18
TORSDOF 2
ENDMDL
MODEL 8
REMARK VINA RESULT:      -7.3     22.505     24.387
REMARK  2 active torsions:
REMARK  status: ('A' for Active; 'I' for Inactive)
REMARK    1  A    between atoms: C11_14  and  O2_2 
REMARK    2  A    between atoms: C2_5  and  C4_7 
ROOT
HETATM    1  O1  UNK     1      19.295  -0.443  30.570  1.00  0.00    -0.275 OA
HETATM    2  O3  UNK     1      19.755   0.069  28.391  1.00  0.00    -0.260 OA
HETATM    3  C1  UNK     1      18.672   1.348  32.105  1.00  0.00     0.009 A 
HETATM    4  C2  UNK     1      18.806   2.319  31.008  1.00  0.00    -0.007 A 
HETATM    5  C3  UNK     1      18.921  -0.001  31.854  1.00  0.00     0.093 A 
HETATM    6  C5  UNK     1      18.302   1.717  33.405  1.00  0.00     0.018 A 
HETATM    7  C6  UNK     1      19.165   1.864  29.796  1.00  0.00     0.095 A 
HETATM    8  C7  UNK     1      18.813  -0.972  32.849  1.00  0.00     0.074 A 
HETATM    9  C8  UNK     1      18.190   0.753  34.413  1.00  0.00     0.037 A 
HETATM   10  C11 UNK     1      18.445  -0.589  34.135  1.00  0.00     0.068 A 
HETATM   11  C12 UNK     1      19.430   0.443  29.513  1.00  0.00     0.289 A 
ENDROOT
BRANCH   4  12
HETATM   12  C4  UNK     1      18.583   3.759  31.102  1.00  0.00    -0.025 A 
HETATM   13  C10 UNK     1      17.807   4.274  32.136  1.00  0.00     0.012 A 
HETATM   14  C14 UNK     1      17.595   5.650  32.225  1.00  0.00     0.001 A 
HETATM   15  C15 UNK     1      18.160   6.505  31.278  1.00  0.00     0.000 A 
HETATM   16  C13 UNK     1      18.936   5.985  30.243  1.00  0.00     0.001 A 
HETATM   17  C9  UNK     1      19.148   4.609  30.154  1.00  0.00     0.012 A 
ENDBRANCH   4  12
BRANCH  10  18
HETATM   18  O2  UNK     1      18.336  -1.521  35.120  1.00  0.00    -0.361 OA
HETATM   19  H10 UNK     1      19.054  -2.171  35.020  1.00  0.00     0.217 HD
ENDBRANCH  10  18
TORSDOF 2
ENDMDL
MODEL 9
REMARK VINA RESULT:      -7.2     23.926     25.560
REMARK  2 active torsions:
REMARK  status: ('A' for Active; 'I' for Inactive)
REMARK    1  A    between atoms: C11_14  and  O2_2 
REMARK    2  A    between atoms: C2_5  and  C4_7 
ROOT
HETATM    1  O1  UNK     1      19.389   0.273  30.800  1.00  0.00    -0.275 OA
HETATM    2  O3  UNK     1      19.650  -1.903  31.450  1.00  0.00    -0.260 OA
HETATM    3  C1  UNK     1      18.456   1.880  32.380  1.00  0.00     0.009 A 
HETATM    4  C2  UNK     1      18.337   0.809  33.381  1.00  0.00    -0.007 A 
HETATM    5  C3  UNK     1      18.976   1.580  31.122  1.00  0.00     0.093 A 
HETATM    6  C5  UNK     1      18.066   3.202  32.632  1.00  0.00     0.018 A 
HETATM    7  C6  UNK     1      18.740  -0.427  33.043  1.00  0.00     0.095 A 
HETATM    8  C7  UNK     1      19.114   2.548  30.127  1.00  0.00     0.074 A 
HETATM    9  C8  UNK     1      18.198   4.183  31.643  1.00  0.00     0.037 A 
HETATM   10  C11 UNK     1      18.722   3.856  30.393  1.00  0.00     0.068 A 
HETATM   11  C12 UNK     1      19.294  -0.761  31.719  1.00  0.00     0.289 A 
ENDROOT
BRANCH   4  12
HETATM   12  C4  UNK     1      17.817   0.954  34.738  1.00  0.00    -0.025 A 
HETATM   13  C10 UNK     1      16.548   0.472  35.049  1.00  0.00     0.012 A 
HETATM   14  C14 UNK     1      16.052   0.611  36.345  1.00  0.00     0.001 A 
HETATM   15  C15 UNK     1      16.827   1.231  37.326  1.00  0.00     0.000 A 
HETATM   16  C13 UNK     1      18.097   1.712  37.011  1.00  0.00     0.001 A 
HETATM   17  C9  UNK     1      18.593   1.574  35.714  1.00  0.00     0.012 A 
ENDBRANCH   4  12
BRANCH  10  18
HETATM   18  O2  UNK     1      18.847   4.814  29.435  1.00  0.00    -0.361 OA
HETATM   19  H10 UNK     1      19.380   4.460  28.702  1.00  0.00     0.217 HD
ENDBRANCH  10  18
TORSDOF 2
ENDMDL
MODEL 10
REMARK VINA RESULT:      -7.2     35.338     36.701
REMARK  2 active torsions:
REMARK  status: ('A' for Active; 'I' for Inactive)
REMARK    1  A    between atoms: C11_14  and  O2_2 
REMARK    2  A    between atoms: C2_5  and  C4_7 
ROOT
HETATM    1  O1  UNK     1      28.745  -5.518  39.536  1.00  0.00    -0.275 OA
HETATM    2  O3  UNK     1      29.327  -3.346  39.947  1.00  0.00    -0.260 OA
HETATM    3  C1  UNK     1      30.171  -6.877  38.098  1.00  0.00     0.009 A 
HETATM    4  C2  UNK     1      31.071  -5.727  37.923  1.00  0.00    -0.007 A 
HETATM    5  C3  UNK     1      29.038  -6.738  38.897  1.00  0.00     0.093 A 
HETATM    6  C5  UNK     1      30.402  -8.120  37.493  1.00  0.00     0.018 A 
HETATM    7  C6  UNK     1      30.764  -4.577  38.546  1.00  0.00     0.095 A 
HETATM    8  C7  UNK     1      28.143  -7.788  39.103  1.00  0.00     0.074 A 
HETATM    9  C8  UNK     1      29.512  -9.182  37.691  1.00  0.00     0.037 A 
HETATM   10  C11 UNK     1      28.385  -9.016  38.495  1.00  0.00     0.068 A 
HETATM   11  C12 UNK     1      29.571  -4.413  39.395  1.00  0.00     0.289 A 
ENDROOT
BRANCH   4  12
HETATM   12  C4  UNK     1      32.294  -5.705  37.125  1.00  0.00    -0.025 A 
HETATM   13  C10 UNK     1      32.239  -5.336  35.783  1.00  0.00     0.012 A 
HETATM   14  C14 UNK     1      33.408  -5.315  35.022  1.00  0.00     0.001 A 
HETATM   15  C15 UNK     1      34.627  -5.663  35.605  1.00  0.00     0.000 A 
HETATM   16  C13 UNK     1      34.677  -6.033  36.949  1.00  0.00     0.001 A 
HETATM   17  C9  UNK     1      33.509  -6.054  37.710  1.00  0.00     0.012 A 
ENDBRANCH   4  12
BRANCH  10  18
HETATM   18  O2  UNK     1      27.523 -10.052  38.683  1.00  0.00    -0.361 OA
HETATM   19  H10 UNK     1      26.952 -10.133  37.899  1.00  0.00     0.217 HD
ENDBRANCH  10  18
TORSDOF 2
ENDMDL
