MODEL 1
REMARK VINA RESULT:     -11.5      0.000      0.000
REMARK  7 active torsions:
REMARK  status: ('A' for Active; 'I' for Inactive)
REMARK    1  A    between atoms: C5_13  and  N1_5 
REMARK       I    between atoms: C15_23  and  N2_6 
REMARK    2  A    between atoms: N2_6  and  N3_7 
REMARK    3  A    between atoms: C26_34  and  N3_7 
REMARK    4  A    between atoms: C22_30  and  N4_8 
REMARK    5  A    between atoms: C26_34  and  N4_8 
REMARK    6  A    between atoms: C11_19  and  C5_13 
REMARK    7  A    between atoms: C10_18  and  C15_23 
ROOT
HETATM    1  O1  UNK     1      17.144  -0.949  33.770  1.00  0.00    -0.266 OA
HETATM    2  N2  UNK     1      19.218  -0.801  34.793  1.00  0.00    -0.264 N 
HETATM    3  C15 UNK     1      18.142  -0.305  34.084  1.00  0.00     0.270 C 
HETATM    4  H17 UNK     1      19.972  -0.230  35.162  1.00  0.00     0.190 HD
ENDROOT
BRANCH   2   5
HETATM    5  N3  UNK     1      19.198  -2.119  35.194  1.00  0.00    -0.273 N 
HETATM    6  H18 UNK     1      19.562  -2.800  34.537  1.00  0.00     0.189 HD
BRANCH   5   7
HETATM    7  C26 UNK     1      18.706  -2.498  36.438  1.00  0.00     0.191 C 
HETATM    8  S1  UNK     1      18.284  -1.266  37.494  1.00  0.00    -0.039 SA
BRANCH   7   9
HETATM    9  N4  UNK     1      18.618  -3.890  36.625  1.00  0.00    -0.332 N 
HETATM   10  H22 UNK     1      17.668  -4.242  36.524  1.00  0.00     0.168 HD
BRANCH   9  11
HETATM   11  C22 UNK     1      19.552  -4.905  36.830  1.00  0.00     0.037 A 
HETATM   12  C23 UNK     1      19.637  -5.967  35.936  1.00  0.00     0.067 A 
HETATM   13  C20 UNK     1      20.579  -6.972  36.161  1.00  0.00     0.092 A 
HETATM   14  C19 UNK     1      21.445  -6.951  37.255  1.00  0.00     0.004 A 
HETATM   15  O2  UNK     1      20.618  -8.022  35.220  1.00  0.00    -0.275 OA
HETATM   16  C21 UNK     1      22.406  -8.051  37.413  1.00  0.00    -0.043 A 
HETATM   17  C24 UNK     1      21.344  -5.873  38.145  1.00  0.00     0.017 A 
HETATM   18  C27 UNK     1      22.420  -9.036  36.504  1.00  0.00     0.090 A 
HETATM   19  C28 UNK     1      23.350  -8.059  38.579  1.00  0.00     0.049 C 
HETATM   20  C29 UNK     1      21.514  -9.072  35.343  1.00  0.00     0.288 A 
HETATM   21  O3  UNK     1      21.557  -9.989  34.531  1.00  0.00    -0.260 OA
HETATM   22  C25 UNK     1      20.403  -4.858  37.932  1.00  0.00     0.030 A 
ENDBRANCH   9  11
ENDBRANCH   7   9
ENDBRANCH   5   7
ENDBRANCH   2   5
BRANCH   3  23
HETATM   23  C10 UNK     1      18.247   1.121  33.677  1.00  0.00     0.034 A 
HETATM   24  C6  UNK     1      18.378   1.412  32.330  1.00  0.00     0.031 A 
HETATM   25  C2  UNK     1      18.477   2.766  31.950  1.00  0.00    -0.000 A 
HETATM   26  C1  UNK     1      18.440   3.746  32.944  1.00  0.00     0.045 A 
HETATM   27  C4  UNK     1      18.619   3.438  30.705  1.00  0.00    -0.027 A 
HETATM   28  N1  UNK     1      18.554   4.965  32.314  1.00  0.00    -0.345 N 
HETATM   29  C7  UNK     1      18.306   3.440  34.303  1.00  0.00     0.031 A 
HETATM   30  C3  UNK     1      18.663   4.789  30.962  1.00  0.00     0.015 A 
HETATM   31  C8  UNK     1      18.801   5.931  30.031  1.00  0.00     0.069 C 
HETATM   32  C12 UNK     1      18.209   2.090  34.655  1.00  0.00     0.019 A 
HETATM   33  C9  UNK     1      18.703   2.801  29.373  1.00  0.00     0.051 C 
BRANCH  28  34
HETATM   34  C5  UNK     1      18.557   6.248  32.988  1.00  0.00     0.167 C 
BRANCH  34  35
HETATM   35  C11 UNK     1      17.158   6.745  33.228  1.00  0.00    -0.040 A 
HETATM   36  C13 UNK     1      16.220   6.667  32.207  1.00  0.00     0.009 A 
HETATM   37  C16 UNK     1      14.922   7.128  32.429  1.00  0.00     0.001 A 
HETATM   38  C18 UNK     1      14.574   7.662  33.669  1.00  0.00     0.000 A 
HETATM   39  C17 UNK     1      15.524   7.736  34.689  1.00  0.00     0.001 A 
HETATM   40  C14 UNK     1      16.822   7.275  34.466  1.00  0.00     0.009 A 
ENDBRANCH  34  35
ENDBRANCH  28  34
ENDBRANCH   3  23
TORSDOF 7
ENDMDL
MODEL 2
REMARK VINA RESULT:     -11.4      1.631      2.048
REMARK  7 active torsions:
REMARK  status: ('A' for Active; 'I' for Inactive)
REMARK    1  A    between atoms: C5_13  and  N1_5 
REMARK       I    between atoms: C15_23  and  N2_6 
REMARK    2  A    between atoms: N2_6  and  N3_7 
REMARK    3  A    between atoms: C26_34  and  N3_7 
REMARK    4  A    between atoms: C22_30  and  N4_8 
REMARK    5  A    between atoms: C26_34  and  N4_8 
REMARK    6  A    between atoms: C11_19  and  C5_13 
REMARK    7  A    between atoms: C10_18  and  C15_23 
ROOT
HETATM    1  O1  UNK     1      16.753  -0.431  34.351  1.00  0.00    -0.266 OA
HETATM    2  N2  UNK     1      19.037  -0.645  34.678  1.00  0.00    -0.264 N 
HETATM    3  C15 UNK     1      17.892   0.028  34.301  1.00  0.00     0.270 C 
HETATM    4  H17 UNK     1      19.952  -0.214  34.759  1.00  0.00     0.190 HD
ENDROOT
BRANCH   2   5
HETATM    5  N3  UNK     1      18.924  -1.932  35.154  1.00  0.00    -0.273 N 
HETATM    6  H18 UNK     1      18.665  -2.645  34.481  1.00  0.00     0.189 HD
BRANCH   5   7
HETATM    7  C26 UNK     1      19.156  -2.242  36.490  1.00  0.00     0.191 C 
HETATM    8  S1  UNK     1      18.252  -1.408  37.630  1.00  0.00    -0.039 SA
BRANCH   7   9
HETATM    9  N4  UNK     1      20.124  -3.243  36.691  1.00  0.00    -0.332 N 
HETATM   10  H22 UNK     1      21.076  -2.896  36.594  1.00  0.00     0.168 HD
BRANCH   9  11
HETATM   11  C22 UNK     1      20.074  -4.582  37.079  1.00  0.00     0.037 A 
HETATM   12  C23 UNK     1      21.008  -5.084  37.978  1.00  0.00     0.067 A 
HETATM   13  C20 UNK     1      20.940  -6.427  38.353  1.00  0.00     0.092 A 
HETATM   14  C19 UNK     1      19.961  -7.290  37.857  1.00  0.00     0.004 A 
HETATM   15  O2  UNK     1      21.913  -6.877  39.267  1.00  0.00    -0.275 OA
HETATM   16  C21 UNK     1      19.963  -8.688  38.307  1.00  0.00    -0.043 A 
HETATM   17  C24 UNK     1      19.029  -6.765  36.952  1.00  0.00     0.017 A 
HETATM   18  C27 UNK     1      20.901  -9.089  39.177  1.00  0.00     0.090 A 
HETATM   19  C28 UNK     1      18.925  -9.642  37.792  1.00  0.00     0.049 C 
HETATM   20  C29 UNK     1      21.940  -8.191  39.710  1.00  0.00     0.288 A 
HETATM   21  O3  UNK     1      22.782  -8.593  40.504  1.00  0.00    -0.260 OA
HETATM   22  C25 UNK     1      19.086  -5.421  36.567  1.00  0.00     0.030 A 
ENDBRANCH   9  11
ENDBRANCH   7   9
ENDBRANCH   5   7
ENDBRANCH   2   5
BRANCH   3  23
HETATM   23  C10 UNK     1      18.100   1.407  33.785  1.00  0.00     0.034 A 
HETATM   24  C6  UNK     1      18.250   1.584  32.421  1.00  0.00     0.031 A 
HETATM   25  C2  UNK     1      18.448   2.893  31.939  1.00  0.00    -0.000 A 
HETATM   26  C1  UNK     1      18.482   3.947  32.854  1.00  0.00     0.045 A 
HETATM   27  C4  UNK     1      18.636   3.456  30.647  1.00  0.00    -0.027 A 
HETATM   28  N1  UNK     1      18.685   5.103  32.133  1.00  0.00    -0.345 N 
HETATM   29  C7  UNK     1      18.329   3.757  34.232  1.00  0.00     0.031 A 
HETATM   30  C3  UNK     1      18.779   4.816  30.799  1.00  0.00     0.015 A 
HETATM   31  C8  UNK     1      18.999   5.869  29.784  1.00  0.00     0.069 C 
HETATM   32  C12 UNK     1      18.134   2.448  34.686  1.00  0.00     0.019 A 
HETATM   33  C9  UNK     1      18.672   2.714  29.368  1.00  0.00     0.051 C 
BRANCH  28  34
HETATM   34  C5  UNK     1      18.782   6.430  32.707  1.00  0.00     0.167 C 
BRANCH  34  35
HETATM   35  C11 UNK     1      17.427   7.067  32.848  1.00  0.00    -0.040 A 
HETATM   36  C13 UNK     1      16.870   7.737  31.767  1.00  0.00     0.009 A 
HETATM   37  C16 UNK     1      15.613   8.328  31.897  1.00  0.00     0.001 A 
HETATM   38  C18 UNK     1      14.925   8.244  33.107  1.00  0.00     0.000 A 
HETATM   39  C17 UNK     1      15.493   7.568  34.188  1.00  0.00     0.001 A 
HETATM   40  C14 UNK     1      16.751   6.978  34.056  1.00  0.00     0.009 A 
ENDBRANCH  34  35
ENDBRANCH  28  34
ENDBRANCH   3  23
TORSDOF 7
ENDMDL
MODEL 3
REMARK VINA RESULT:     -11.2      2.335      3.189
REMARK  7 active torsions:
REMARK  status: ('A' for Active; 'I' for Inactive)
REMARK    1  A    between atoms: C5_13  and  N1_5 
REMARK       I    between atoms: C15_23  and  N2_6 
REMARK    2  A    between atoms: N2_6  and  N3_7 
REMARK    3  A    between atoms: C26_34  and  N3_7 
REMARK    4  A    between atoms: C22_30  and  N4_8 
REMARK    5  A    between atoms: C26_34  and  N4_8 
REMARK    6  A    between atoms: C11_19  and  C5_13 
REMARK    7  A    between atoms: C10_18  and  C15_23 
ROOT
HETATM    1  O1  UNK     1      18.563  -0.126  37.266  1.00  0.00    -0.266 OA
HETATM    2  N2  UNK     1      18.068  -1.835  35.783  1.00  0.00    -0.264 N 
HETATM    3  C15 UNK     1      18.319  -0.522  36.130  1.00  0.00     0.270 C 
HETATM    4  H17 UNK     1      18.001  -2.171  34.828  1.00  0.00     0.190 HD
ENDROOT
BRANCH   2   5
HETATM    5  N3  UNK     1      18.088  -2.797  36.769  1.00  0.00    -0.273 N 
HETATM    6  H18 UNK     1      17.360  -2.742  37.473  1.00  0.00     0.189 HD
BRANCH   5   7
HETATM    7  C26 UNK     1      19.054  -3.796  36.796  1.00  0.00     0.191 C 
HETATM    8  S1  UNK     1      20.582  -3.360  37.333  1.00  0.00    -0.039 SA
BRANCH   7   9
HETATM    9  N4  UNK     1      18.593  -5.058  36.376  1.00  0.00    -0.332 N 
HETATM   10  H22 UNK     1      17.660  -5.022  35.972  1.00  0.00     0.168 HD
BRANCH   9  11
HETATM   11  C22 UNK     1      19.162  -6.330  36.310  1.00  0.00     0.037 A 
HETATM   12  C23 UNK     1      18.819  -7.299  37.246  1.00  0.00     0.067 A 
HETATM   13  C20 UNK     1      19.400  -8.565  37.161  1.00  0.00     0.092 A 
HETATM   14  C19 UNK     1      20.317  -8.898  36.163  1.00  0.00     0.004 A 
HETATM   15  O2  UNK     1      19.012  -9.504  38.138  1.00  0.00    -0.275 OA
HETATM   16  C21 UNK     1      20.878 -10.255  36.148  1.00  0.00    -0.043 A 
HETATM   17  C24 UNK     1      20.650  -7.909  35.228  1.00  0.00     0.017 A 
HETATM   18  C27 UNK     1      20.492 -11.128  37.090  1.00  0.00     0.090 A 
HETATM   19  C28 UNK     1      21.868 -10.645  35.089  1.00  0.00     0.049 C 
HETATM   20  C29 UNK     1      19.525 -10.792  38.148  1.00  0.00     0.288 A 
HETATM   21  O3  UNK     1      19.195 -11.617  38.993  1.00  0.00    -0.260 OA
HETATM   22  C25 UNK     1      20.076  -6.634  35.302  1.00  0.00     0.030 A 
ENDBRANCH   9  11
ENDBRANCH   7   9
ENDBRANCH   5   7
ENDBRANCH   2   5
BRANCH   3  23
HETATM   23  C10 UNK     1      18.266   0.456  35.012  1.00  0.00     0.034 A 
HETATM   24  C6  UNK     1      18.665   0.041  33.754  1.00  0.00     0.031 A 
HETATM   25  C2  UNK     1      18.612   0.974  32.698  1.00  0.00    -0.000 A 
HETATM   26  C1  UNK     1      18.163   2.267  32.969  1.00  0.00     0.045 A 
HETATM   27  C4  UNK     1      18.929   0.923  31.313  1.00  0.00    -0.027 A 
HETATM   28  N1  UNK     1      18.209   2.968  31.784  1.00  0.00    -0.345 N 
HETATM   29  C7  UNK     1      17.761   2.677  34.246  1.00  0.00     0.031 A 
HETATM   30  C3  UNK     1      18.670   2.164  30.778  1.00  0.00     0.015 A 
HETATM   31  C8  UNK     1      18.825   2.653  29.392  1.00  0.00     0.069 C 
HETATM   32  C12 UNK     1      17.822   1.734  35.276  1.00  0.00     0.019 A 
HETATM   33  C9  UNK     1      19.444  -0.253  30.578  1.00  0.00     0.051 C 
BRANCH  28  34
HETATM   34  C5  UNK     1      17.822   4.356  31.627  1.00  0.00     0.167 C 
BRANCH  34  35
HETATM   35  C11 UNK     1      18.876   5.283  32.169  1.00  0.00    -0.040 A 
HETATM   36  C13 UNK     1      18.644   5.961  33.358  1.00  0.00     0.009 A 
HETATM   37  C16 UNK     1      19.621   6.822  33.861  1.00  0.00     0.001 A 
HETATM   38  C18 UNK     1      20.820   6.995  33.170  1.00  0.00     0.000 A 
HETATM   39  C17 UNK     1      21.043   6.309  31.976  1.00  0.00     0.001 A 
HETATM   40  C14 UNK     1      20.065   5.449  31.474  1.00  0.00     0.009 A 
ENDBRANCH  34  35
ENDBRANCH  28  34
ENDBRANCH   3  23
TORSDOF 7
ENDMDL
MODEL 4
REMARK VINA RESULT:     -10.9      2.077      2.939
REMARK  7 active torsions:
REMARK  status: ('A' for Active; 'I' for Inactive)
REMARK    1  A    between atoms: C5_13  and  N1_5 
REMARK       I    between atoms: C15_23  and  N2_6 
REMARK    2  A    between atoms: N2_6  and  N3_7 
REMARK    3  A    between atoms: C26_34  and  N3_7 
REMARK    4  A    between atoms: C22_30  and  N4_8 
REMARK    5  A    between atoms: C26_34  and  N4_8 
REMARK    6  A    between atoms: C11_19  and  C5_13 
REMARK    7  A    between atoms: C10_18  and  C15_23 
ROOT
HETATM    1  O1  UNK     1      20.750  -2.681  33.561  1.00  0.00    -0.266 OA
HETATM    2  N2  UNK     1      19.099  -2.362  35.156  1.00  0.00    -0.264 N 
HETATM    3  C15 UNK     1      19.801  -2.043  34.010  1.00  0.00     0.270 C 
HETATM    4  H17 UNK     1      18.239  -1.909  35.443  1.00  0.00     0.190 HD
ENDROOT
BRANCH   2   5
HETATM    5  N3  UNK     1      19.471  -3.478  35.872  1.00  0.00    -0.273 N 
HETATM    6  H18 UNK     1      19.649  -4.322  35.339  1.00  0.00     0.189 HD
BRANCH   5   7
HETATM    7  C26 UNK     1      19.599  -3.450  37.256  1.00  0.00     0.191 C 
HETATM    8  S1  UNK     1      18.803  -2.217  38.067  1.00  0.00    -0.039 SA
BRANCH   7   9
HETATM    9  N4  UNK     1      20.380  -4.494  37.785  1.00  0.00    -0.332 N 
HETATM   10  H22 UNK     1      21.114  -4.161  38.407  1.00  0.00     0.168 HD
BRANCH   9  11
HETATM   11  C22 UNK     1      20.319  -5.886  37.719  1.00  0.00     0.037 A 
HETATM   12  C23 UNK     1      20.875  -6.559  36.636  1.00  0.00     0.067 A 
HETATM   13  C20 UNK     1      20.803  -7.952  36.589  1.00  0.00     0.092 A 
HETATM   14  C19 UNK     1      20.193  -8.700  37.597  1.00  0.00     0.004 A 
HETATM   15  O2  UNK     1      21.384  -8.577  35.467  1.00  0.00    -0.275 OA
HETATM   16  C21 UNK     1      20.163 -10.163  37.466  1.00  0.00    -0.043 A 
HETATM   17  C24 UNK     1      19.639  -8.005  38.680  1.00  0.00     0.017 A 
HETATM   18  C27 UNK     1      20.723 -10.730  36.389  1.00  0.00     0.090 A 
HETATM   19  C28 UNK     1      19.514 -10.997  38.532  1.00  0.00     0.049 C 
HETATM   20  C29 UNK     1      21.372  -9.955  35.318  1.00  0.00     0.288 A 
HETATM   21  O3  UNK     1      21.874 -10.508  34.346  1.00  0.00    -0.260 OA
HETATM   22  C25 UNK     1      19.703  -6.608  38.739  1.00  0.00     0.030 A 
ENDBRANCH   9  11
ENDBRANCH   7   9
ENDBRANCH   5   7
ENDBRANCH   2   5
BRANCH   3  23
HETATM   23  C10 UNK     1      19.348  -0.817  33.303  1.00  0.00     0.034 A 
HETATM   24  C6  UNK     1      19.525  -0.744  31.932  1.00  0.00     0.031 A 
HETATM   25  C2  UNK     1      19.095   0.422  31.267  1.00  0.00    -0.000 A 
HETATM   26  C1  UNK     1      18.512   1.445  32.018  1.00  0.00     0.045 A 
HETATM   27  C4  UNK     1      19.107   0.853  29.912  1.00  0.00    -0.027 A 
HETATM   28  N1  UNK     1      18.185   2.455  31.140  1.00  0.00    -0.345 N 
HETATM   29  C7  UNK     1      18.337   1.361  33.404  1.00  0.00     0.031 A 
HETATM   30  C3  UNK     1      18.541   2.106  29.866  1.00  0.00     0.015 A 
HETATM   31  C8  UNK     1      18.309   3.004  28.714  1.00  0.00     0.069 C 
HETATM   32  C12 UNK     1      18.772   0.195  34.040  1.00  0.00     0.019 A 
HETATM   33  C9  UNK     1      19.632   0.091  28.759  1.00  0.00     0.051 C 
BRANCH  28  34
HETATM   34  C5  UNK     1      17.555   3.706  31.514  1.00  0.00     0.167 C 
BRANCH  34  35
HETATM   35  C11 UNK     1      18.563   4.693  32.037  1.00  0.00    -0.040 A 
HETATM   36  C13 UNK     1      18.550   5.035  33.382  1.00  0.00     0.009 A 
HETATM   37  C16 UNK     1      19.484   5.951  33.868  1.00  0.00     0.001 A 
HETATM   38  C18 UNK     1      20.422   6.515  33.003  1.00  0.00     0.000 A 
HETATM   39  C17 UNK     1      20.426   6.164  31.653  1.00  0.00     0.001 A 
HETATM   40  C14 UNK     1      19.492   5.248  31.168  1.00  0.00     0.009 A 
ENDBRANCH  34  35
ENDBRANCH  28  34
ENDBRANCH   3  23
TORSDOF 7
ENDMDL
MODEL 5
REMARK VINA RESULT:     -10.9      2.545     12.795
REMARK  7 active torsions:
REMARK  status: ('A' for Active; 'I' for Inactive)
REMARK    1  A    between atoms: C5_13  and  N1_5 
REMARK       I    between atoms: C15_23  and  N2_6 
REMARK    2  A    between atoms: N2_6  and  N3_7 
REMARK    3  A    between atoms: C26_34  and  N3_7 
REMARK    4  A    between atoms: C22_30  and  N4_8 
REMARK    5  A    between atoms: C26_34  and  N4_8 
REMARK    6  A    between atoms: C11_19  and  C5_13 
REMARK    7  A    between atoms: C10_18  and  C15_23 
ROOT
HETATM    1  O1  UNK     1      21.368  -1.780  35.616  1.00  0.00    -0.266 OA
HETATM    2  N2  UNK     1      19.056  -1.796  35.769  1.00  0.00    -0.264 N 
HETATM    3  C15 UNK     1      20.317  -2.338  35.921  1.00  0.00     0.270 C 
HETATM    4  H17 UNK     1      18.208  -2.206  36.145  1.00  0.00     0.190 HD
ENDROOT
BRANCH   2   5
HETATM    5  N3  UNK     1      18.938  -0.531  35.236  1.00  0.00    -0.273 N 
HETATM    6  H18 UNK     1      19.638   0.148  35.515  1.00  0.00     0.189 HD
BRANCH   5   7
HETATM    7  C26 UNK     1      17.913  -0.200  34.356  1.00  0.00     0.191 C 
HETATM    8  S1  UNK     1      16.348  -0.544  34.851  1.00  0.00    -0.039 SA
BRANCH   7   9
HETATM    9  N4  UNK     1      18.349   0.402  33.161  1.00  0.00    -0.332 N 
HETATM   10  H22 UNK     1      18.626  -0.277  32.456  1.00  0.00     0.168 HD
BRANCH   9  11
HETATM   11  C22 UNK     1      18.404   1.716  32.697  1.00  0.00     0.037 A 
HETATM   12  C23 UNK     1      18.199   2.776  33.573  1.00  0.00     0.067 A 
HETATM   13  C20 UNK     1      18.258   4.083  33.088  1.00  0.00     0.092 A 
HETATM   14  C19 UNK     1      18.519   4.368  31.746  1.00  0.00     0.004 A 
HETATM   15  O2  UNK     1      18.042   5.115  34.023  1.00  0.00    -0.275 OA
HETATM   16  C21 UNK     1      18.564   5.774  31.322  1.00  0.00    -0.043 A 
HETATM   17  C24 UNK     1      18.724   3.287  30.879  1.00  0.00     0.017 A 
HETATM   18  C27 UNK     1      18.355   6.734  32.234  1.00  0.00     0.090 A 
HETATM   19  C28 UNK     1      18.842   6.114  29.887  1.00  0.00     0.049 C 
HETATM   20  C29 UNK     1      18.079   6.450  33.652  1.00  0.00     0.288 A 
HETATM   21  O3  UNK     1      17.893   7.355  34.458  1.00  0.00    -0.260 OA
HETATM   22  C25 UNK     1      18.666   1.971  31.352  1.00  0.00     0.030 A 
ENDBRANCH   9  11
ENDBRANCH   7   9
ENDBRANCH   5   7
ENDBRANCH   2   5
BRANCH   3  23
HETATM   23  C10 UNK     1      20.358  -3.711  36.489  1.00  0.00     0.034 A 
HETATM   24  C6  UNK     1      19.464  -4.650  36.006  1.00  0.00     0.031 A 
HETATM   25  C2  UNK     1      19.509  -5.950  36.549  1.00  0.00    -0.000 A 
HETATM   26  C1  UNK     1      20.447  -6.229  37.544  1.00  0.00     0.045 A 
HETATM   27  C4  UNK     1      18.776  -7.147  36.318  1.00  0.00    -0.027 A 
HETATM   28  N1  UNK     1      20.281  -7.550  37.897  1.00  0.00    -0.345 N 
HETATM   29  C7  UNK     1      21.347  -5.272  38.026  1.00  0.00     0.031 A 
HETATM   30  C3  UNK     1      19.274  -8.113  37.161  1.00  0.00     0.015 A 
HETATM   31  C8  UNK     1      18.875  -9.526  37.331  1.00  0.00     0.069 C 
HETATM   32  C12 UNK     1      21.283  -3.990  37.471  1.00  0.00     0.019 A 
HETATM   33  C9  UNK     1      17.676  -7.323  35.345  1.00  0.00     0.051 C 
BRANCH  28  34
HETATM   34  C5  UNK     1      21.063  -8.244  38.902  1.00  0.00     0.167 C 
BRANCH  34  35
HETATM   35  C11 UNK     1      22.493  -8.410  38.465  1.00  0.00    -0.040 A 
HETATM   36  C13 UNK     1      22.773  -9.081  37.282  1.00  0.00     0.009 A 
HETATM   37  C16 UNK     1      24.099  -9.237  36.877  1.00  0.00     0.001 A 
HETATM   38  C18 UNK     1      25.132  -8.719  37.658  1.00  0.00     0.000 A 
HETATM   39  C17 UNK     1      24.840  -8.046  38.844  1.00  0.00     0.001 A 
HETATM   40  C14 UNK     1      23.514  -7.892  39.249  1.00  0.00     0.009 A 
ENDBRANCH  34  35
ENDBRANCH  28  34
ENDBRANCH   3  23
TORSDOF 7
ENDMDL
MODEL 6
REMARK VINA RESULT:     -10.8      2.731     12.265
REMARK  7 active torsions:
REMARK  status: ('A' for Active; 'I' for Inactive)
REMARK    1  A    between atoms: C5_13  and  N1_5 
REMARK       I    between atoms: C15_23  and  N2_6 
REMARK    2  A    between atoms: N2_6  and  N3_7 
REMARK    3  A    between atoms: C26_34  and  N3_7 
REMARK    4  A    between atoms: C22_30  and  N4_8 
REMARK    5  A    between atoms: C26_34  and  N4_8 
REMARK    6  A    between atoms: C11_19  and  C5_13 
REMARK    7  A    between atoms: C10_18  and  C15_23 
ROOT
HETATM    1  O1  UNK     1      20.470  -2.049  34.462  1.00  0.00    -0.266 OA
HETATM    2  N2  UNK     1      19.295  -1.203  36.271  1.00  0.00    -0.264 N 
HETATM    3  C15 UNK     1      19.976  -2.184  35.579  1.00  0.00     0.270 C 
HETATM    4  H17 UNK     1      19.010  -1.282  37.241  1.00  0.00     0.190 HD
ENDROOT
BRANCH   2   5
HETATM    5  N3  UNK     1      19.145   0.037  35.689  1.00  0.00    -0.273 N 
HETATM    6  H18 UNK     1      19.920   0.374  35.128  1.00  0.00     0.189 HD
BRANCH   5   7
HETATM    7  C26 UNK     1      17.987   0.789  35.858  1.00  0.00     0.191 C 
HETATM    8  S1  UNK     1      16.678   0.017  36.566  1.00  0.00    -0.039 SA
BRANCH   7   9
HETATM    9  N4  UNK     1      18.094   2.120  35.415  1.00  0.00    -0.332 N 
HETATM   10  H22 UNK     1      18.131   2.789  36.181  1.00  0.00     0.168 HD
BRANCH   9  11
HETATM   11  C22 UNK     1      18.248   2.721  34.166  1.00  0.00     0.037 A 
HETATM   12  C23 UNK     1      18.183   1.954  33.008  1.00  0.00     0.067 A 
HETATM   13  C20 UNK     1      18.339   2.575  31.769  1.00  0.00     0.092 A 
HETATM   14  C19 UNK     1      18.559   3.949  31.646  1.00  0.00     0.004 A 
HETATM   15  O2  UNK     1      18.263   1.746  30.632  1.00  0.00    -0.275 OA
HETATM   16  C21 UNK     1      18.712   4.519  30.301  1.00  0.00    -0.043 A 
HETATM   17  C24 UNK     1      18.621   4.705  32.824  1.00  0.00     0.017 A 
HETATM   18  C27 UNK     1      18.635   3.706  29.239  1.00  0.00     0.090 A 
HETATM   19  C28 UNK     1      18.950   5.992  30.136  1.00  0.00     0.049 C 
HETATM   20  C29 UNK     1      18.403   2.257  29.351  1.00  0.00     0.288 A 
HETATM   21  O3  UNK     1      18.338   1.544  28.356  1.00  0.00    -0.260 OA
HETATM   22  C25 UNK     1      18.467   4.095  34.074  1.00  0.00     0.030 A 
ENDBRANCH   9  11
ENDBRANCH   7   9
ENDBRANCH   5   7
ENDBRANCH   2   5
BRANCH   3  23
HETATM   23  C10 UNK     1      20.082  -3.497  36.268  1.00  0.00     0.034 A 
HETATM   24  C6  UNK     1      19.227  -4.515  35.882  1.00  0.00     0.031 A 
HETATM   25  C2  UNK     1      19.333  -5.757  36.541  1.00  0.00    -0.000 A 
HETATM   26  C1  UNK     1      20.290  -5.903  37.546  1.00  0.00     0.045 A 
HETATM   27  C4  UNK     1      18.652  -6.999  36.427  1.00  0.00    -0.027 A 
HETATM   28  N1  UNK     1      20.186  -7.192  38.019  1.00  0.00    -0.345 N 
HETATM   29  C7  UNK     1      21.151  -4.868  37.928  1.00  0.00     0.031 A 
HETATM   30  C3  UNK     1      19.199  -7.862  37.349  1.00  0.00     0.015 A 
HETATM   31  C8  UNK     1      18.864  -9.271  37.650  1.00  0.00     0.069 C 
HETATM   32  C12 UNK     1      21.026  -3.645  37.260  1.00  0.00     0.019 A 
HETATM   33  C9  UNK     1      17.553  -7.311  35.488  1.00  0.00     0.051 C 
BRANCH  28  34
HETATM   34  C5  UNK     1      21.005  -7.756  39.073  1.00  0.00     0.167 C 
BRANCH  34  35
HETATM   35  C11 UNK     1      22.384  -8.095  38.574  1.00  0.00    -0.040 A 
HETATM   36  C13 UNK     1      22.527  -8.818  37.398  1.00  0.00     0.009 A 
HETATM   37  C16 UNK     1      23.805  -9.133  36.934  1.00  0.00     0.001 A 
HETATM   38  C18 UNK     1      24.927  -8.721  37.652  1.00  0.00     0.000 A 
HETATM   39  C17 UNK     1      24.773  -7.995  38.833  1.00  0.00     0.001 A 
HETATM   40  C14 UNK     1      23.494  -7.681  39.296  1.00  0.00     0.009 A 
ENDBRANCH  34  35
ENDBRANCH  28  34
ENDBRANCH   3  23
TORSDOF 7
ENDMDL
MODEL 7
REMARK VINA RESULT:     -10.2      2.544     13.238
REMARK  7 active torsions:
REMARK  status: ('A' for Active; 'I' for Inactive)
REMARK    1  A    between atoms: C5_13  and  N1_5 
REMARK       I    between atoms: C15_23  and  N2_6 
REMARK    2  A    between atoms: N2_6  and  N3_7 
REMARK    3  A    between atoms: C26_34  and  N3_7 
REMARK    4  A    between atoms: C22_30  and  N4_8 
REMARK    5  A    between atoms: C26_34  and  N4_8 
REMARK    6  A    between atoms: C11_19  and  C5_13 
REMARK    7  A    between atoms: C10_18  and  C15_23 
ROOT
HETATM    1  O1  UNK     1      20.611  -2.132  36.738  1.00  0.00    -0.266 OA
HETATM    2  N2  UNK     1      19.454  -2.470  34.759  1.00  0.00    -0.264 N 
HETATM    3  C15 UNK     1      20.087  -2.880  35.916  1.00  0.00     0.270 C 
HETATM    4  H17 UNK     1      18.911  -3.080  34.158  1.00  0.00     0.190 HD
ENDROOT
BRANCH   2   5
HETATM    5  N3  UNK     1      19.390  -1.122  34.480  1.00  0.00    -0.273 N 
HETATM    6  H18 UNK     1      20.215  -0.573  34.694  1.00  0.00     0.189 HD
BRANCH   5   7
HETATM    7  C26 UNK     1      18.253  -0.543  33.928  1.00  0.00     0.191 C 
HETATM    8  S1  UNK     1      16.820  -0.725  34.779  1.00  0.00    -0.039 SA
BRANCH   7   9
HETATM    9  N4  UNK     1      18.481   0.140  32.720  1.00  0.00    -0.332 N 
HETATM   10  H22 UNK     1      18.596  -0.488  31.927  1.00  0.00     0.168 HD
BRANCH   9  11
HETATM   11  C22 UNK     1      18.497   1.485  32.349  1.00  0.00     0.037 A 
HETATM   12  C23 UNK     1      18.206   2.471  33.285  1.00  0.00     0.067 A 
HETATM   13  C20 UNK     1      18.228   3.811  32.893  1.00  0.00     0.092 A 
HETATM   14  C19 UNK     1      18.536   4.200  31.589  1.00  0.00     0.004 A 
HETATM   15  O2  UNK     1      17.924   4.764  33.886  1.00  0.00    -0.275 OA
HETATM   16  C21 UNK     1      18.537   5.633  31.264  1.00  0.00    -0.043 A 
HETATM   17  C24 UNK     1      18.827   3.192  30.660  1.00  0.00     0.017 A 
HETATM   18  C27 UNK     1      18.244   6.517  32.228  1.00  0.00     0.090 A 
HETATM   19  C28 UNK     1      18.863   6.085  29.871  1.00  0.00     0.049 C 
HETATM   20  C29 UNK     1      17.918   6.122  33.609  1.00  0.00     0.288 A 
HETATM   21  O3  UNK     1      17.656   6.960  34.465  1.00  0.00    -0.260 OA
HETATM   22  C25 UNK     1      18.808   1.845  31.039  1.00  0.00     0.030 A 
ENDBRANCH   9  11
ENDBRANCH   7   9
ENDBRANCH   5   7
ENDBRANCH   2   5
BRANCH   3  23
HETATM   23  C10 UNK     1      20.126  -4.349  36.137  1.00  0.00     0.034 A 
HETATM   24  C6  UNK     1      20.010  -4.823  37.433  1.00  0.00     0.031 A 
HETATM   25  C2  UNK     1      20.049  -6.217  37.636  1.00  0.00    -0.000 A 
HETATM   26  C1  UNK     1      20.202  -7.052  36.528  1.00  0.00     0.045 A 
HETATM   27  C4  UNK     1      19.965  -7.054  38.782  1.00  0.00    -0.027 A 
HETATM   28  N1  UNK     1      20.209  -8.348  36.995  1.00  0.00    -0.345 N 
HETATM   29  C7  UNK     1      20.318  -6.563  35.222  1.00  0.00     0.031 A 
HETATM   30  C3  UNK     1      20.066  -8.359  38.356  1.00  0.00     0.015 A 
HETATM   31  C8  UNK     1      20.040  -9.618  39.131  1.00  0.00     0.069 C 
HETATM   32  C12 UNK     1      20.276  -5.176  35.046  1.00  0.00     0.019 A 
HETATM   33  C9  UNK     1      19.798  -6.605  40.181  1.00  0.00     0.051 C 
BRANCH  28  34
HETATM   34  C5  UNK     1      20.346  -9.527  36.165  1.00  0.00     0.167 C 
BRANCH  34  35
HETATM   35  C11 UNK     1      21.766 -10.023  36.146  1.00  0.00    -0.040 A 
HETATM   36  C13 UNK     1      22.043 -11.288  35.646  1.00  0.00     0.009 A 
HETATM   37  C16 UNK     1      23.361 -11.748  35.629  1.00  0.00     0.001 A 
HETATM   38  C18 UNK     1      24.388 -10.937  36.112  1.00  0.00     0.000 A 
HETATM   39  C17 UNK     1      24.099  -9.668  36.612  1.00  0.00     0.001 A 
HETATM   40  C14 UNK     1      22.781  -9.209  36.629  1.00  0.00     0.009 A 
ENDBRANCH  34  35
ENDBRANCH  28  34
ENDBRANCH   3  23
TORSDOF 7
ENDMDL
MODEL 8
REMARK VINA RESULT:     -10.1      2.801     12.647
REMARK  7 active torsions:
REMARK  status: ('A' for Active; 'I' for Inactive)
REMARK    1  A    between atoms: C5_13  and  N1_5 
REMARK       I    between atoms: C15_23  and  N2_6 
REMARK    2  A    between atoms: N2_6  and  N3_7 
REMARK    3  A    between atoms: C26_34  and  N3_7 
REMARK    4  A    between atoms: C22_30  and  N4_8 
REMARK    5  A    between atoms: C26_34  and  N4_8 
REMARK    6  A    between atoms: C11_19  and  C5_13 
REMARK    7  A    between atoms: C10_18  and  C15_23 
ROOT
HETATM    1  O1  UNK     1      21.520  -1.775  35.443  1.00  0.00    -0.266 OA
HETATM    2  N2  UNK     1      19.327  -1.545  36.156  1.00  0.00    -0.264 N 
HETATM    3  C15 UNK     1      20.515  -2.229  35.985  1.00  0.00     0.270 C 
HETATM    4  H17 UNK     1      18.553  -1.878  36.720  1.00  0.00     0.190 HD
ENDROOT
BRANCH   2   5
HETATM    5  N3  UNK     1      19.235  -0.251  35.694  1.00  0.00    -0.273 N 
HETATM    6  H18 UNK     1      20.108   0.224  35.492  1.00  0.00     0.189 HD
BRANCH   5   7
HETATM    7  C26 UNK     1      18.007   0.375  35.511  1.00  0.00     0.191 C 
HETATM    8  S1  UNK     1      16.638  -0.580  35.670  1.00  0.00    -0.039 SA
BRANCH   7   9
HETATM    9  N4  UNK     1      18.095   1.751  35.230  1.00  0.00    -0.332 N 
HETATM   10  H22 UNK     1      18.132   2.324  36.070  1.00  0.00     0.168 HD
BRANCH   9  11
HETATM   11  C22 UNK     1      18.232   2.498  34.060  1.00  0.00     0.037 A 
HETATM   12  C23 UNK     1      18.140   1.878  32.819  1.00  0.00     0.067 A 
HETATM   13  C20 UNK     1      18.280   2.644  31.661  1.00  0.00     0.092 A 
HETATM   14  C19 UNK     1      18.509   4.021  31.703  1.00  0.00     0.004 A 
HETATM   15  O2  UNK     1      18.176   1.960  30.434  1.00  0.00    -0.275 OA
HETATM   16  C21 UNK     1      18.643   4.750  30.434  1.00  0.00    -0.043 A 
HETATM   17  C24 UNK     1      18.599   4.628  32.962  1.00  0.00     0.017 A 
HETATM   18  C27 UNK     1      18.540   4.073  29.282  1.00  0.00     0.090 A 
HETATM   19  C28 UNK     1      18.890   6.230  30.444  1.00  0.00     0.049 C 
HETATM   20  C29 UNK     1      18.297   2.621  29.222  1.00  0.00     0.288 A 
HETATM   21  O3  UNK     1      18.209   2.035  28.149  1.00  0.00    -0.260 OA
HETATM   22  C25 UNK     1      18.461   3.871  34.132  1.00  0.00     0.030 A 
ENDBRANCH   9  11
ENDBRANCH   7   9
ENDBRANCH   5   7
ENDBRANCH   2   5
BRANCH   3  23
HETATM   23  C10 UNK     1      20.529  -3.624  36.497  1.00  0.00     0.034 A 
HETATM   24  C6  UNK     1      21.472  -3.965  37.452  1.00  0.00     0.031 A 
HETATM   25  C2  UNK     1      21.480  -5.290  37.933  1.00  0.00    -0.000 A 
HETATM   26  C1  UNK     1      20.544  -6.193  37.427  1.00  0.00     0.045 A 
HETATM   27  C4  UNK     1      22.271  -5.994  38.882  1.00  0.00    -0.027 A 
HETATM   28  N1  UNK     1      20.766  -7.400  38.053  1.00  0.00    -0.345 N 
HETATM   29  C7  UNK     1      19.595  -5.838  36.461  1.00  0.00     0.031 A 
HETATM   30  C3  UNK     1      21.807  -7.289  38.934  1.00  0.00     0.015 A 
HETATM   31  C8  UNK     1      22.269  -8.433  39.750  1.00  0.00     0.069 C 
HETATM   32  C12 UNK     1      19.606  -4.518  36.000  1.00  0.00     0.019 A 
HETATM   33  C9  UNK     1      23.389  -5.437  39.673  1.00  0.00     0.051 C 
BRANCH  28  34
HETATM   34  C5  UNK     1      20.005  -8.609  37.814  1.00  0.00     0.167 C 
BRANCH  34  35
HETATM   35  C11 UNK     1      20.718  -9.525  36.856  1.00  0.00    -0.040 A 
HETATM   36  C13 UNK     1      21.045  -9.067  35.587  1.00  0.00     0.009 A 
HETATM   37  C16 UNK     1      21.706  -9.916  34.699  1.00  0.00     0.001 A 
HETATM   38  C18 UNK     1      22.033 -11.214  35.088  1.00  0.00     0.000 A 
HETATM   39  C17 UNK     1      21.700 -11.665  36.366  1.00  0.00     0.001 A 
HETATM   40  C14 UNK     1      21.039 -10.815  37.254  1.00  0.00     0.009 A 
ENDBRANCH  34  35
ENDBRANCH  28  34
ENDBRANCH   3  23
TORSDOF 7
ENDMDL
MODEL 9
REMARK VINA RESULT:     -10.1     13.186     15.734
REMARK  7 active torsions:
REMARK  status: ('A' for Active; 'I' for Inactive)
REMARK    1  A    between atoms: C5_13  and  N1_5 
REMARK       I    between atoms: C15_23  and  N2_6 
REMARK    2  A    between atoms: N2_6  and  N3_7 
REMARK    3  A    between atoms: C26_34  and  N3_7 
REMARK    4  A    between atoms: C22_30  and  N4_8 
REMARK    5  A    between atoms: C26_34  and  N4_8 
REMARK    6  A    between atoms: C11_19  and  C5_13 
REMARK    7  A    between atoms: C10_18  and  C15_23 
ROOT
HETATM    1  O1  UNK     1      29.967 -10.985  31.961  1.00  0.00    -0.266 OA
HETATM    2  N2  UNK     1      28.467  -9.278  31.509  1.00  0.00    -0.264 N 
HETATM    3  C15 UNK     1      29.247 -10.062  32.336  1.00  0.00     0.270 C 
HETATM    4  H17 UNK     1      27.983  -8.438  31.809  1.00  0.00     0.190 HD
ENDROOT
BRANCH   2   5
HETATM    5  N3  UNK     1      28.477  -9.527  30.155  1.00  0.00    -0.273 N 
HETATM    6  H18 UNK     1      27.754 -10.143  29.799  1.00  0.00     0.189 HD
BRANCH   5   7
HETATM    7  C26 UNK     1      29.430  -8.961  29.314  1.00  0.00     0.191 C 
HETATM    8  S1  UNK     1      29.886  -9.857  27.972  1.00  0.00    -0.039 SA
BRANCH   7   9
HETATM    9  N4  UNK     1      29.867  -7.684  29.714  1.00  0.00    -0.332 N 
HETATM   10  H22 UNK     1      29.552  -6.946  29.088  1.00  0.00     0.168 HD
BRANCH   9  11
HETATM   11  C22 UNK     1      30.560  -7.195  30.821  1.00  0.00     0.037 A 
HETATM   12  C23 UNK     1      31.793  -7.735  31.168  1.00  0.00     0.067 A 
HETATM   13  C20 UNK     1      32.469  -7.231  32.280  1.00  0.00     0.092 A 
HETATM   14  C19 UNK     1      31.951  -6.196  33.061  1.00  0.00     0.004 A 
HETATM   15  O2  UNK     1      33.715  -7.818  32.582  1.00  0.00    -0.275 OA
HETATM   16  C21 UNK     1      32.732  -5.726  34.213  1.00  0.00    -0.043 A 
HETATM   17  C24 UNK     1      30.708  -5.664  32.695  1.00  0.00     0.017 A 
HETATM   18  C27 UNK     1      33.913  -6.303  34.476  1.00  0.00     0.090 A 
HETATM   19  C28 UNK     1      32.203  -4.616  35.073  1.00  0.00     0.049 C 
HETATM   20  C29 UNK     1      34.473  -7.394  33.662  1.00  0.00     0.288 A 
HETATM   21  O3  UNK     1      35.558  -7.898  33.933  1.00  0.00    -0.260 OA
HETATM   22  C25 UNK     1      30.018  -6.161  31.583  1.00  0.00     0.030 A 
ENDBRANCH   9  11
ENDBRANCH   7   9
ENDBRANCH   5   7
ENDBRANCH   2   5
BRANCH   3  23
HETATM   23  C10 UNK     1      29.170  -9.740  33.784  1.00  0.00     0.034 A 
HETATM   24  C6  UNK     1      27.987 -10.000  34.454  1.00  0.00     0.031 A 
HETATM   25  C2  UNK     1      27.920  -9.691  35.828  1.00  0.00    -0.000 A 
HETATM   26  C1  UNK     1      29.043  -9.140  36.447  1.00  0.00     0.045 A 
HETATM   27  C4  UNK     1      26.910  -9.810  36.822  1.00  0.00    -0.027 A 
HETATM   28  N1  UNK     1      28.717  -8.936  37.770  1.00  0.00    -0.345 N 
HETATM   29  C7  UNK     1      30.235  -8.882  35.761  1.00  0.00     0.031 A 
HETATM   30  C3  UNK     1      27.431  -9.338  38.005  1.00  0.00     0.015 A 
HETATM   31  C8  UNK     1      26.810  -9.235  39.344  1.00  0.00     0.069 C 
HETATM   32  C12 UNK     1      30.277  -9.196  34.398  1.00  0.00     0.019 A 
HETATM   33  C9  UNK     1      25.546 -10.346  36.623  1.00  0.00     0.051 C 
BRANCH  28  34
HETATM   34  C5  UNK     1      29.609  -8.378  38.766  1.00  0.00     0.167 C 
BRANCH  34  35
HETATM   35  C11 UNK     1      29.703  -6.882  38.641  1.00  0.00    -0.040 A 
HETATM   36  C13 UNK     1      28.554  -6.112  38.761  1.00  0.00     0.009 A 
HETATM   37  C16 UNK     1      28.641  -4.724  38.645  1.00  0.00     0.001 A 
HETATM   38  C18 UNK     1      29.876  -4.120  38.409  1.00  0.00     0.000 A 
HETATM   39  C17 UNK     1      31.025  -4.903  38.289  1.00  0.00     0.001 A 
HETATM   40  C14 UNK     1      30.936  -6.291  38.406  1.00  0.00     0.009 A 
ENDBRANCH  34  35
ENDBRANCH  28  34
ENDBRANCH   3  23
TORSDOF 7
ENDMDL
MODEL 10
REMARK VINA RESULT:     -10.0     13.413     16.174
REMARK  7 active torsions:
REMARK  status: ('A' for Active; 'I' for Inactive)
REMARK    1  A    between atoms: C5_13  and  N1_5 
REMARK       I    between atoms: C15_23  and  N2_6 
REMARK    2  A    between atoms: N2_6  and  N3_7 
REMARK    3  A    between atoms: C26_34  and  N3_7 
REMARK    4  A    between atoms: C22_30  and  N4_8 
REMARK    5  A    between atoms: C26_34  and  N4_8 
REMARK    6  A    between atoms: C11_19  and  C5_13 
REMARK    7  A    between atoms: C10_18  and  C15_23 
ROOT
HETATM    1  O1  UNK     1      28.475  -9.945  33.376  1.00  0.00    -0.266 OA
HETATM    2  N2  UNK     1      28.624  -8.377  31.677  1.00  0.00    -0.264 N 
HETATM    3  C15 UNK     1      28.741  -8.813  32.982  1.00  0.00     0.270 C 
HETATM    4  H17 UNK     1      28.972  -7.486  31.340  1.00  0.00     0.190 HD
ENDROOT
BRANCH   2   5
HETATM    5  N3  UNK     1      28.176  -9.260  30.721  1.00  0.00    -0.273 N 
HETATM    6  H18 UNK     1      27.171  -9.377  30.643  1.00  0.00     0.189 HD
BRANCH   5   7
HETATM    7  C26 UNK     1      29.055  -9.957  29.899  1.00  0.00     0.191 C 
HETATM    8  S1  UNK     1      28.642 -10.083  28.279  1.00  0.00    -0.039 SA
BRANCH   7   9
HETATM    9  N4  UNK     1      30.196 -10.450  30.560  1.00  0.00    -0.332 N 
HETATM   10  H22 UNK     1      30.190 -11.463  30.653  1.00  0.00     0.168 HD
BRANCH   9  11
HETATM   11  C22 UNK     1      31.371  -9.870  31.037  1.00  0.00     0.037 A 
HETATM   12  C23 UNK     1      32.061  -8.947  30.259  1.00  0.00     0.067 A 
HETATM   13  C20 UNK     1      33.235  -8.379  30.755  1.00  0.00     0.092 A 
HETATM   14  C19 UNK     1      33.745  -8.704  32.013  1.00  0.00     0.004 A 
HETATM   15  O2  UNK     1      33.889  -7.450  29.921  1.00  0.00    -0.275 OA
HETATM   16  C21 UNK     1      34.988  -8.056  32.456  1.00  0.00    -0.043 A 
HETATM   17  C24 UNK     1      33.036  -9.635  32.783  1.00  0.00     0.017 A 
HETATM   18  C27 UNK     1      35.588  -7.178  31.642  1.00  0.00     0.090 A 
HETATM   19  C28 UNK     1      35.563  -8.384  33.803  1.00  0.00     0.049 C 
HETATM   20  C29 UNK     1      35.062  -6.824  30.313  1.00  0.00     0.288 A 
HETATM   21  O3  UNK     1      35.639  -6.015  29.595  1.00  0.00    -0.260 OA
HETATM   22  C25 UNK     1      31.858 -10.214  32.297  1.00  0.00     0.030 A 
ENDBRANCH   9  11
ENDBRANCH   7   9
ENDBRANCH   5   7
ENDBRANCH   2   5
BRANCH   3  23
HETATM   23  C10 UNK     1      29.217  -7.796  33.956  1.00  0.00     0.034 A 
HETATM   24  C6  UNK     1      28.582  -7.712  35.183  1.00  0.00     0.031 A 
HETATM   25  C2  UNK     1      29.038  -6.745  36.102  1.00  0.00    -0.000 A 
HETATM   26  C1  UNK     1      30.103  -5.921  35.735  1.00  0.00     0.045 A 
HETATM   27  C4  UNK     1      28.652  -6.368  37.418  1.00  0.00    -0.027 A 
HETATM   28  N1  UNK     1      30.347  -5.078  36.797  1.00  0.00    -0.345 N 
HETATM   29  C7  UNK     1      30.739  -6.014  34.492  1.00  0.00     0.031 A 
HETATM   30  C3  UNK     1      29.475  -5.341  37.818  1.00  0.00     0.015 A 
HETATM   31  C8  UNK     1      29.505  -4.585  39.089  1.00  0.00     0.069 C 
HETATM   32  C12 UNK     1      30.269  -6.981  33.597  1.00  0.00     0.019 A 
HETATM   33  C9  UNK     1      27.562  -6.972  38.214  1.00  0.00     0.051 C 
BRANCH  28  34
HETATM   34  C5  UNK     1      31.380  -4.061  36.827  1.00  0.00     0.167 C 
BRANCH  34  35
HETATM   35  C11 UNK     1      32.749  -4.666  36.676  1.00  0.00    -0.040 A 
HETATM   36  C13 UNK     1      33.196  -5.590  37.611  1.00  0.00     0.009 A 
HETATM   37  C16 UNK     1      34.466  -6.151  37.472  1.00  0.00     0.001 A 
HETATM   38  C18 UNK     1      35.276  -5.782  36.399  1.00  0.00     0.000 A 
HETATM   39  C17 UNK     1      34.818  -4.853  35.464  1.00  0.00     0.001 A 
HETATM   40  C14 UNK     1      33.548  -4.292  35.605  1.00  0.00     0.009 A 
ENDBRANCH  34  35
ENDBRANCH  28  34
ENDBRANCH   3  23
TORSDOF 7
ENDMDL
