MODEL 1
REMARK VINA RESULT:      -8.9      0.000      0.000
REMARK  6 active torsions:
REMARK  status: ('A' for Active; 'I' for Inactive)
REMARK    1  A    between atoms: C5_12  and  O3_4 
REMARK    2  A    between atoms: C8_15  and  O3_4 
REMARK    3  A    between atoms: C9_16  and  O5_6 
REMARK    4  A    between atoms: C1_8  and  C5_12 
REMARK    5  A    between atoms: C10_17  and  C16_23 
REMARK    6  A    between atoms: C17_24  and  C18_25 
ROOT
HETATM    1  N1  UNK     1      16.251  12.178   7.192  1.00  0.00    -0.191 NA
HETATM    2  C16 UNK     1      18.224  10.954   9.764  1.00  0.00     0.035 C 
HETATM    3  C17 UNK     1      18.292  11.861   8.756  1.00  0.00     0.055 C 
HETATM    4  C25 UNK     1      17.165  12.035   7.894  1.00  0.00     0.100 C 
ENDROOT
BRANCH   3   5
HETATM    5  C18 UNK     1      19.488  12.690   8.514  1.00  0.00    -0.015 A 
HETATM    6  C19 UNK     1      19.330  14.006   8.112  1.00  0.00     0.014 A 
HETATM    7  C21 UNK     1      20.462  14.788   7.884  1.00  0.00     0.024 A 
HETATM    8  C24 UNK     1      21.734  14.244   8.061  1.00  0.00     0.034 A 
HETATM    9  C22 UNK     1      21.875  12.918   8.466  1.00  0.00     0.024 A 
HETATM   10 Cl1  UNK     1      23.131  15.211   7.778  1.00  0.00    -0.084 Cl
HETATM   11  C20 UNK     1      20.744  12.134   8.695  1.00  0.00     0.014 A 
ENDBRANCH   3   5
BRANCH   2  12
HETATM   12  C10 UNK     1      17.096  10.096  10.091  1.00  0.00    -0.032 A 
HETATM   13  C14 UNK     1      16.067  10.575  10.902  1.00  0.00     0.051 A 
HETATM   14  C9  UNK     1      14.985   9.752  11.215  1.00  0.00     0.102 A 
HETATM   15  C8  UNK     1      14.960   8.471  10.711  1.00  0.00     0.112 A 
HETATM   16  C13 UNK     1      15.962   7.970   9.907  1.00  0.00     0.041 A 
HETATM   17  C15 UNK     1      17.043   8.793   9.595  1.00  0.00     0.014 A 
BRANCH  14  18
HETATM   18  O5  UNK     1      13.986  10.231  12.008  1.00  0.00    -0.353 OA
HETATM   19  C23 UNK     1      13.057  11.131  11.408  1.00  0.00     0.210 C 
ENDBRANCH  14  18
BRANCH  15  20
HETATM   20  O3  UNK     1      13.881   7.636  11.017  1.00  0.00    -0.274 OA
BRANCH  20  21
HETATM   21  C5  UNK     1      12.993   7.494   9.958  1.00  0.00     0.296 C 
HETATM   22  O4  UNK     1      12.516   8.387   9.270  1.00  0.00    -0.262 OA
BRANCH  21  23
HETATM   23  C1  UNK     1      12.690   6.035   9.776  1.00  0.00     0.253 C 
HETATM   24  O1  UNK     1      11.284   5.873   9.643  1.00  0.00    -0.331 OA
HETATM   25  C3  UNK     1      10.833   5.968   8.354  1.00  0.00     0.103 A 
HETATM   26  C4  UNK     1      11.682   6.018   7.249  1.00  0.00     0.102 A 
HETATM   27  C6  UNK     1       9.449   6.022   8.172  1.00  0.00     0.040 A 
HETATM   28  O2  UNK     1      13.045   5.954   7.359  1.00  0.00    -0.345 OA
HETATM   29  C7  UNK     1      11.155   6.161   5.966  1.00  0.00     0.039 A 
HETATM   30  C2  UNK     1      13.457   5.418   8.618  1.00  0.00     0.218 C 
HETATM   31  C12 UNK     1       9.773   6.224   5.786  1.00  0.00     0.003 A 
HETATM   32  C11 UNK     1       8.921   6.149   6.887  1.00  0.00     0.003 A 
ENDBRANCH  21  23
ENDBRANCH  20  21
ENDBRANCH  15  20
ENDBRANCH   2  12
TORSDOF 6
ENDMDL
MODEL 2
REMARK VINA RESULT:      -8.8     22.462     24.534
REMARK  6 active torsions:
REMARK  status: ('A' for Active; 'I' for Inactive)
REMARK    1  A    between atoms: C5_12  and  O3_4 
REMARK    2  A    between atoms: C8_15  and  O3_4 
REMARK    3  A    between atoms: C9_16  and  O5_6 
REMARK    4  A    between atoms: C1_8  and  C5_12 
REMARK    5  A    between atoms: C10_17  and  C16_23 
REMARK    6  A    between atoms: C17_24  and  C18_25 
ROOT
HETATM    1  N1  UNK     1      13.513   7.052  32.207  1.00  0.00    -0.191 NA
HETATM    2  C16 UNK     1      16.246   8.799  33.424  1.00  0.00     0.035 C 
HETATM    3  C17 UNK     1      14.895   8.917  33.357  1.00  0.00     0.055 C 
HETATM    4  C25 UNK     1      14.134   7.887  32.722  1.00  0.00     0.100 C 
ENDROOT
BRANCH   3   5
HETATM    5  C18 UNK     1      14.170  10.070  33.924  1.00  0.00    -0.015 A 
HETATM    6  C19 UNK     1      13.260  10.752  33.133  1.00  0.00     0.014 A 
HETATM    7  C21 UNK     1      12.575  11.842  33.670  1.00  0.00     0.024 A 
HETATM    8  C24 UNK     1      12.810  12.234  34.988  1.00  0.00     0.034 A 
HETATM    9  C22 UNK     1      13.729  11.536  35.770  1.00  0.00     0.024 A 
HETATM   10 Cl1  UNK     1      11.964  13.580  35.650  1.00  0.00    -0.084 Cl
HETATM   11  C20 UNK     1      14.415  10.446  35.234  1.00  0.00     0.014 A 
ENDBRANCH   3   5
BRANCH   2  12
HETATM   12  C10 UNK     1      17.054   7.706  32.906  1.00  0.00    -0.032 A 
HETATM   13  C14 UNK     1      17.690   6.831  33.786  1.00  0.00     0.051 A 
HETATM   14  C9  UNK     1      18.464   5.783  33.289  1.00  0.00     0.102 A 
HETATM   15  C8  UNK     1      18.583   5.636  31.925  1.00  0.00     0.112 A 
HETATM   16  C13 UNK     1      17.967   6.485  31.032  1.00  0.00     0.041 A 
HETATM   17  C15 UNK     1      17.193   7.533  31.529  1.00  0.00     0.014 A 
BRANCH  14  18
HETATM   18  O5  UNK     1      19.081   4.934  34.159  1.00  0.00    -0.353 OA
HETATM   19  C23 UNK     1      18.346   3.786  34.576  1.00  0.00     0.210 C 
ENDBRANCH  14  18
BRANCH  15  20
HETATM   20  O3  UNK     1      19.357   4.590  31.414  1.00  0.00    -0.274 OA
BRANCH  20  21
HETATM   21  C5  UNK     1      18.806   4.022  30.272  1.00  0.00     0.296 C 
HETATM   22  O4  UNK     1      19.006   4.355  29.111  1.00  0.00    -0.262 OA
BRANCH  21  23
HETATM   23  C1  UNK     1      17.895   2.901  30.682  1.00  0.00     0.253 C 
HETATM   24  O1  UNK     1      17.701   2.039  29.569  1.00  0.00    -0.331 OA
HETATM   25  C3  UNK     1      18.631   1.039  29.472  1.00  0.00     0.103 A 
HETATM   26  C4  UNK     1      19.562   0.762  30.472  1.00  0.00     0.102 A 
HETATM   27  C6  UNK     1      18.623   0.282  28.298  1.00  0.00     0.040 A 
HETATM   28  O2  UNK     1      19.612   1.456  31.651  1.00  0.00    -0.345 OA
HETATM   29  C7  UNK     1      20.512  -0.243  30.287  1.00  0.00     0.039 A 
HETATM   30  C2  UNK     1      18.395   2.159  31.911  1.00  0.00     0.218 C 
HETATM   31  C12 UNK     1      20.509  -0.993  29.111  1.00  0.00     0.003 A 
HETATM   32  C11 UNK     1      19.563  -0.734  28.120  1.00  0.00     0.003 A 
ENDBRANCH  21  23
ENDBRANCH  20  21
ENDBRANCH  15  20
ENDBRANCH   2  12
TORSDOF 6
ENDMDL
MODEL 3
REMARK VINA RESULT:      -8.8     29.210     31.105
REMARK  6 active torsions:
REMARK  status: ('A' for Active; 'I' for Inactive)
REMARK    1  A    between atoms: C5_12  and  O3_4 
REMARK    2  A    between atoms: C8_15  and  O3_4 
REMARK    3  A    between atoms: C9_16  and  O5_6 
REMARK    4  A    between atoms: C1_8  and  C5_12 
REMARK    5  A    between atoms: C10_17  and  C16_23 
REMARK    6  A    between atoms: C17_24  and  C18_25 
ROOT
HETATM    1  N1  UNK     1      16.737  -1.019  35.608  1.00  0.00    -0.191 NA
HETATM    2  C16 UNK     1      19.864  -1.640  34.252  1.00  0.00     0.035 C 
HETATM    3  C17 UNK     1      18.799  -0.823  34.051  1.00  0.00     0.055 C 
HETATM    4  C25 UNK     1      17.662  -0.933  34.911  1.00  0.00     0.100 C 
ENDROOT
BRANCH   3   5
HETATM    5  C18 UNK     1      18.766   0.189  32.979  1.00  0.00    -0.015 A 
HETATM    6  C19 UNK     1      18.293   1.460  33.261  1.00  0.00     0.014 A 
HETATM    7  C21 UNK     1      18.262   2.416  32.246  1.00  0.00     0.024 A 
HETATM    8  C24 UNK     1      18.704   2.088  30.965  1.00  0.00     0.034 A 
HETATM    9  C22 UNK     1      19.177   0.804  30.697  1.00  0.00     0.024 A 
HETATM   10 Cl1  UNK     1      18.665   3.269  29.712  1.00  0.00    -0.084 Cl
HETATM   11  C20 UNK     1      19.208  -0.153  31.712  1.00  0.00     0.014 A 
ENDBRANCH   3   5
BRANCH   2  12
HETATM   12  C10 UNK     1      20.001  -2.661  35.279  1.00  0.00    -0.032 A 
HETATM   13  C14 UNK     1      20.101  -4.005  34.918  1.00  0.00     0.051 A 
HETATM   14  C9  UNK     1      20.232  -4.983  35.903  1.00  0.00     0.102 A 
HETATM   15  C8  UNK     1      20.260  -4.595  37.224  1.00  0.00     0.112 A 
HETATM   16  C13 UNK     1      20.164  -3.275  37.610  1.00  0.00     0.041 A 
HETATM   17  C15 UNK     1      20.032  -2.297  36.625  1.00  0.00     0.014 A 
BRANCH  14  18
HETATM   18  O5  UNK     1      20.329  -6.292  35.538  1.00  0.00    -0.353 OA
HETATM   19  C23 UNK     1      19.109  -6.989  35.292  1.00  0.00     0.210 C 
ENDBRANCH  14  18
BRANCH  15  20
HETATM   20  O3  UNK     1      20.392  -5.566  38.220  1.00  0.00    -0.274 OA
BRANCH  20  21
HETATM   21  C5  UNK     1      21.717  -5.819  38.553  1.00  0.00     0.296 C 
HETATM   22  O4  UNK     1      22.709  -5.239  38.131  1.00  0.00    -0.262 OA
BRANCH  21  23
HETATM   23  C1  UNK     1      21.757  -6.948  39.541  1.00  0.00     0.253 C 
HETATM   24  O1  UNK     1      20.525  -7.655  39.479  1.00  0.00    -0.331 OA
HETATM   25  C3  UNK     1      20.511  -8.667  38.559  1.00  0.00     0.103 A 
HETATM   26  C4  UNK     1      21.652  -9.103  37.885  1.00  0.00     0.102 A 
HETATM   27  C6  UNK     1      19.277  -9.268  38.300  1.00  0.00     0.040 A 
HETATM   28  O2  UNK     1      22.892  -8.567  38.104  1.00  0.00    -0.345 OA
HETATM   29  C7  UNK     1      21.557 -10.111  36.925  1.00  0.00     0.039 A 
HETATM   30  C2  UNK     1      22.958  -7.858  39.344  1.00  0.00     0.218 C 
HETATM   31  C12 UNK     1      20.322 -10.704  36.661  1.00  0.00     0.003 A 
HETATM   32  C11 UNK     1      19.185 -10.287  37.352  1.00  0.00     0.003 A 
ENDBRANCH  21  23
ENDBRANCH  20  21
ENDBRANCH  15  20
ENDBRANCH   2  12
TORSDOF 6
ENDMDL
MODEL 4
REMARK VINA RESULT:      -8.8     23.387     26.199
REMARK  6 active torsions:
REMARK  status: ('A' for Active; 'I' for Inactive)
REMARK    1  A    between atoms: C5_12  and  O3_4 
REMARK    2  A    between atoms: C8_15  and  O3_4 
REMARK    3  A    between atoms: C9_16  and  O5_6 
REMARK    4  A    between atoms: C1_8  and  C5_12 
REMARK    5  A    between atoms: C10_17  and  C16_23 
REMARK    6  A    between atoms: C17_24  and  C18_25 
ROOT
HETATM    1  N1  UNK     1      18.250   3.020  34.551  1.00  0.00    -0.191 NA
HETATM    2  C16 UNK     1      17.844   4.856  31.642  1.00  0.00     0.035 C 
HETATM    3  C17 UNK     1      18.188   3.601  32.027  1.00  0.00     0.055 C 
HETATM    4  C25 UNK     1      18.222   3.282  33.421  1.00  0.00     0.100 C 
ENDROOT
BRANCH   3   5
HETATM    5  C18 UNK     1      18.525   2.538  31.061  1.00  0.00    -0.015 A 
HETATM    6  C19 UNK     1      18.161   2.690  29.734  1.00  0.00     0.014 A 
HETATM    7  C21 UNK     1      18.481   1.684  28.821  1.00  0.00     0.024 A 
HETATM    8  C24 UNK     1      19.158   0.543  29.249  1.00  0.00     0.034 A 
HETATM    9  C22 UNK     1      19.517   0.406  30.589  1.00  0.00     0.024 A 
HETATM   10 Cl1  UNK     1      19.551  -0.698  28.122  1.00  0.00    -0.084 Cl
HETATM   11  C20 UNK     1      19.198   1.411  31.503  1.00  0.00     0.014 A 
ENDBRANCH   3   5
BRANCH   2  12
HETATM   12  C10 UNK     1      17.489   5.969  32.508  1.00  0.00    -0.032 A 
HETATM   13  C14 UNK     1      18.439   6.510  33.374  1.00  0.00     0.051 A 
HETATM   14  C9  UNK     1      18.099   7.578  34.203  1.00  0.00     0.102 A 
HETATM   15  C8  UNK     1      16.817   8.078  34.147  1.00  0.00     0.112 A 
HETATM   16  C13 UNK     1      15.857   7.565  33.302  1.00  0.00     0.041 A 
HETATM   17  C15 UNK     1      16.198   6.497  32.472  1.00  0.00     0.014 A 
BRANCH  14  18
HETATM   18  O5  UNK     1      19.035   8.097  35.046  1.00  0.00    -0.353 OA
HETATM   19  C23 UNK     1      20.075   8.876  34.458  1.00  0.00     0.210 C 
ENDBRANCH  14  18
BRANCH  15  20
HETATM   20  O3  UNK     1      16.463   9.148  34.974  1.00  0.00    -0.274 OA
BRANCH  20  21
HETATM   21  C5  UNK     1      16.408  10.359  34.293  1.00  0.00     0.296 C 
HETATM   22  O4  UNK     1      17.354  11.013  33.873  1.00  0.00    -0.262 OA
BRANCH  21  23
HETATM   23  C1  UNK     1      14.970  10.762  34.144  1.00  0.00     0.253 C 
HETATM   24  O1  UNK     1      14.277  10.434  35.341  1.00  0.00    -0.331 OA
HETATM   25  C3  UNK     1      14.295  11.427  36.283  1.00  0.00     0.103 A 
HETATM   26  C4  UNK     1      14.770  12.713  36.029  1.00  0.00     0.102 A 
HETATM   27  C6  UNK     1      13.811  11.101  37.552  1.00  0.00     0.040 A 
HETATM   28  O2  UNK     1      15.242  13.100  34.804  1.00  0.00    -0.345 OA
HETATM   29  C7  UNK     1      14.802  13.663  37.050  1.00  0.00     0.039 A 
HETATM   30  C2  UNK     1      14.808  12.224  33.761  1.00  0.00     0.218 C 
HETATM   31  C12 UNK     1      14.327  13.334  38.319  1.00  0.00     0.003 A 
HETATM   32  C11 UNK     1      13.828  12.056  38.569  1.00  0.00     0.003 A 
ENDBRANCH  21  23
ENDBRANCH  20  21
ENDBRANCH  15  20
ENDBRANCH   2  12
TORSDOF 6
ENDMDL
MODEL 5
REMARK VINA RESULT:      -8.7      0.687      1.725
REMARK  6 active torsions:
REMARK  status: ('A' for Active; 'I' for Inactive)
REMARK    1  A    between atoms: C5_12  and  O3_4 
REMARK    2  A    between atoms: C8_15  and  O3_4 
REMARK    3  A    between atoms: C9_16  and  O5_6 
REMARK    4  A    between atoms: C1_8  and  C5_12 
REMARK    5  A    between atoms: C10_17  and  C16_23 
REMARK    6  A    between atoms: C17_24  and  C18_25 
ROOT
HETATM    1  N1  UNK     1      16.313  12.133   7.163  1.00  0.00    -0.191 NA
HETATM    2  C16 UNK     1      18.184  10.966   9.834  1.00  0.00     0.035 C 
HETATM    3  C17 UNK     1      18.288  11.858   8.816  1.00  0.00     0.055 C 
HETATM    4  C25 UNK     1      17.197  12.008   7.905  1.00  0.00     0.100 C 
ENDROOT
BRANCH   3   5
HETATM    5  C18 UNK     1      19.487  12.693   8.612  1.00  0.00    -0.015 A 
HETATM    6  C19 UNK     1      19.357  14.072   8.606  1.00  0.00     0.014 A 
HETATM    7  C21 UNK     1      20.491  14.861   8.412  1.00  0.00     0.024 A 
HETATM    8  C24 UNK     1      21.737  14.260   8.228  1.00  0.00     0.034 A 
HETATM    9  C22 UNK     1      21.849  12.871   8.237  1.00  0.00     0.024 A 
HETATM   10 Cl1  UNK     1      23.136  15.235   7.989  1.00  0.00    -0.084 Cl
HETATM   11  C20 UNK     1      20.715  12.081   8.431  1.00  0.00     0.014 A 
ENDBRANCH   3   5
BRANCH   2  12
HETATM   12  C10 UNK     1      17.051  10.103  10.128  1.00  0.00    -0.032 A 
HETATM   13  C14 UNK     1      17.118   8.740   9.838  1.00  0.00     0.051 A 
HETATM   14  C9  UNK     1      16.031   7.913  10.120  1.00  0.00     0.102 A 
HETATM   15  C8  UNK     1      14.904   8.469  10.684  1.00  0.00     0.112 A 
HETATM   16  C13 UNK     1      14.809   9.812  10.981  1.00  0.00     0.041 A 
HETATM   17  C15 UNK     1      15.896  10.638  10.699  1.00  0.00     0.014 A 
BRANCH  14  18
HETATM   18  O5  UNK     1      16.108   6.584   9.832  1.00  0.00    -0.353 OA
HETATM   19  C23 UNK     1      17.372   6.086   9.399  1.00  0.00     0.210 C 
ENDBRANCH  14  18
BRANCH  15  20
HETATM   20  O3  UNK     1      13.808   7.651  10.971  1.00  0.00    -0.274 OA
BRANCH  20  21
HETATM   21  C5  UNK     1      12.949   7.502   9.889  1.00  0.00     0.296 C 
HETATM   22  O4  UNK     1      12.504   8.389   9.172  1.00  0.00    -0.262 OA
BRANCH  21  23
HETATM   23  C1  UNK     1      12.635   6.044   9.720  1.00  0.00     0.253 C 
HETATM   24  O1  UNK     1      11.222   5.881   9.699  1.00  0.00    -0.331 OA
HETATM   25  C3  UNK     1      10.670   5.984   8.450  1.00  0.00     0.103 A 
HETATM   26  C4  UNK     1      11.429   6.043   7.282  1.00  0.00     0.102 A 
HETATM   27  C6  UNK     1       9.276   6.037   8.379  1.00  0.00     0.040 A 
HETATM   28  O2  UNK     1      12.796   5.981   7.282  1.00  0.00    -0.345 OA
HETATM   29  C7  UNK     1      10.801   6.194   6.045  1.00  0.00     0.039 A 
HETATM   30  C2  UNK     1      13.308   5.436   8.501  1.00  0.00     0.218 C 
HETATM   31  C12 UNK     1       9.409   6.256   5.976  1.00  0.00     0.003 A 
HETATM   32  C11 UNK     1       8.648   6.173   7.141  1.00  0.00     0.003 A 
ENDBRANCH  21  23
ENDBRANCH  20  21
ENDBRANCH  15  20
ENDBRANCH   2  12
TORSDOF 6
ENDMDL
MODEL 6
REMARK VINA RESULT:      -8.7     23.148     25.996
REMARK  6 active torsions:
REMARK  status: ('A' for Active; 'I' for Inactive)
REMARK    1  A    between atoms: C5_12  and  O3_4 
REMARK    2  A    between atoms: C8_15  and  O3_4 
REMARK    3  A    between atoms: C9_16  and  O5_6 
REMARK    4  A    between atoms: C1_8  and  C5_12 
REMARK    5  A    between atoms: C10_17  and  C16_23 
REMARK    6  A    between atoms: C17_24  and  C18_25 
ROOT
HETATM    1  N1  UNK     1      18.233   3.190  34.478  1.00  0.00    -0.191 NA
HETATM    2  C16 UNK     1      17.912   4.967  31.522  1.00  0.00     0.035 C 
HETATM    3  C17 UNK     1      18.223   3.714  31.941  1.00  0.00     0.055 C 
HETATM    4  C25 UNK     1      18.228   3.427  33.342  1.00  0.00     0.100 C 
ENDROOT
BRANCH   3   5
HETATM    5  C18 UNK     1      18.552   2.622  31.005  1.00  0.00    -0.015 A 
HETATM    6  C19 UNK     1      19.224   1.507  31.475  1.00  0.00     0.014 A 
HETATM    7  C21 UNK     1      19.534   0.475  30.589  1.00  0.00     0.024 A 
HETATM    8  C24 UNK     1      19.168   0.574  29.247  1.00  0.00     0.034 A 
HETATM    9  C22 UNK     1      18.491   1.704  28.790  1.00  0.00     0.024 A 
HETATM   10 Cl1  UNK     1      19.552  -0.699  28.154  1.00  0.00    -0.084 Cl
HETATM   11  C20 UNK     1      18.180   2.737  29.676  1.00  0.00     0.014 A 
ENDBRANCH   3   5
BRANCH   2  12
HETATM   12  C10 UNK     1      17.568   6.108  32.356  1.00  0.00    -0.032 A 
HETATM   13  C14 UNK     1      16.235   6.491  32.500  1.00  0.00     0.051 A 
HETATM   14  C9  UNK     1      15.906   7.584  33.301  1.00  0.00     0.102 A 
HETATM   15  C8  UNK     1      16.918   8.267  33.938  1.00  0.00     0.112 A 
HETATM   16  C13 UNK     1      18.244   7.912  33.815  1.00  0.00     0.041 A 
HETATM   17  C15 UNK     1      18.573   6.819  33.014  1.00  0.00     0.014 A 
BRANCH  14  18
HETATM   18  O5  UNK     1      14.600   7.949  33.433  1.00  0.00    -0.353 OA
HETATM   19  C23 UNK     1      13.664   7.343  32.545  1.00  0.00     0.210 C 
ENDBRANCH  14  18
BRANCH  15  20
HETATM   20  O3  UNK     1      16.601   9.365  34.744  1.00  0.00    -0.274 OA
BRANCH  20  21
HETATM   21  C5  UNK     1      16.857  10.580  34.121  1.00  0.00     0.296 C 
HETATM   22  O4  UNK     1      17.952  11.043  33.827  1.00  0.00    -0.262 OA
BRANCH  21  23
HETATM   23  C1  UNK     1      15.551  11.269  33.854  1.00  0.00     0.253 C 
HETATM   24  O1  UNK     1      14.617  10.881  34.854  1.00  0.00    -0.331 OA
HETATM   25  C3  UNK     1      14.631  11.678  35.966  1.00  0.00     0.103 A 
HETATM   26  C4  UNK     1      15.344  12.875  36.040  1.00  0.00     0.102 A 
HETATM   27  C6  UNK     1      13.889  11.240  37.066  1.00  0.00     0.040 A 
HETATM   28  O2  UNK     1      16.076  13.366  34.994  1.00  0.00    -0.345 OA
HETATM   29  C7  UNK     1      15.350  13.615  37.222  1.00  0.00     0.039 A 
HETATM   30  C2  UNK     1      15.694  12.779  33.748  1.00  0.00     0.218 C 
HETATM   31  C12 UNK     1      14.617  13.172  38.323  1.00  0.00     0.003 A 
HETATM   32  C11 UNK     1      13.883  11.989  38.243  1.00  0.00     0.003 A 
ENDBRANCH  21  23
ENDBRANCH  20  21
ENDBRANCH  15  20
ENDBRANCH   2  12
TORSDOF 6
ENDMDL
MODEL 7
REMARK VINA RESULT:      -8.7     22.931     25.427
REMARK  6 active torsions:
REMARK  status: ('A' for Active; 'I' for Inactive)
REMARK    1  A    between atoms: C5_12  and  O3_4 
REMARK    2  A    between atoms: C8_15  and  O3_4 
REMARK    3  A    between atoms: C9_16  and  O5_6 
REMARK    4  A    between atoms: C1_8  and  C5_12 
REMARK    5  A    between atoms: C10_17  and  C16_23 
REMARK    6  A    between atoms: C17_24  and  C18_25 
ROOT
HETATM    1  N1  UNK     1      18.319   2.889  34.568  1.00  0.00    -0.191 NA
HETATM    2  C16 UNK     1      17.837   4.790  31.712  1.00  0.00     0.035 C 
HETATM    3  C17 UNK     1      18.195   3.527  32.061  1.00  0.00     0.055 C 
HETATM    4  C25 UNK     1      18.263   3.176  33.445  1.00  0.00     0.100 C 
ENDROOT
BRANCH   3   5
HETATM    5  C18 UNK     1      18.513   2.488  31.062  1.00  0.00    -0.015 A 
HETATM    6  C19 UNK     1      19.205   1.357  31.460  1.00  0.00     0.014 A 
HETATM    7  C21 UNK     1      19.505   0.375  30.515  1.00  0.00     0.024 A 
HETATM    8  C24 UNK     1      19.108   0.540  29.188  1.00  0.00     0.034 A 
HETATM    9  C22 UNK     1      18.411   1.684  28.805  1.00  0.00     0.024 A 
HETATM   10 Cl1  UNK     1      19.479  -0.672  28.023  1.00  0.00    -0.084 Cl
HETATM   11  C20 UNK     1      18.111   2.667  29.749  1.00  0.00     0.014 A 
ENDBRANCH   3   5
BRANCH   2  12
HETATM   12  C10 UNK     1      17.499   5.881  32.612  1.00  0.00    -0.032 A 
HETATM   13  C14 UNK     1      18.476   6.427  33.445  1.00  0.00     0.051 A 
HETATM   14  C9  UNK     1      18.151   7.474  34.306  1.00  0.00     0.102 A 
HETATM   15  C8  UNK     1      16.859   7.950  34.315  1.00  0.00     0.112 A 
HETATM   16  C13 UNK     1      15.873   7.430  33.503  1.00  0.00     0.041 A 
HETATM   17  C15 UNK     1      16.198   6.383  32.642  1.00  0.00     0.014 A 
BRANCH  14  18
HETATM   18  O5  UNK     1      19.114   7.999  35.115  1.00  0.00    -0.353 OA
HETATM   19  C23 UNK     1      20.062   8.877  34.511  1.00  0.00     0.210 C 
ENDBRANCH  14  18
BRANCH  15  20
HETATM   20  O3  UNK     1      16.521   8.999  35.174  1.00  0.00    -0.274 OA
BRANCH  20  21
HETATM   21  C5  UNK     1      16.423  10.220  34.519  1.00  0.00     0.296 C 
HETATM   22  O4  UNK     1      16.921  10.523  33.443  1.00  0.00    -0.262 OA
BRANCH  21  23
HETATM   23  C1  UNK     1      15.590  11.149  35.354  1.00  0.00     0.253 C 
HETATM   24  O1  UNK     1      15.836  12.485  34.935  1.00  0.00    -0.331 OA
HETATM   25  C3  UNK     1      15.017  12.910  33.924  1.00  0.00     0.103 A 
HETATM   26  C4  UNK     1      13.913  12.183  33.479  1.00  0.00     0.102 A 
HETATM   27  C6  UNK     1      15.333  14.133  33.328  1.00  0.00     0.040 A 
HETATM   28  O2  UNK     1      13.541  10.988  34.031  1.00  0.00    -0.345 OA
HETATM   29  C7  UNK     1      13.148  12.655  32.412  1.00  0.00     0.039 A 
HETATM   30  C2  UNK     1      14.112  10.795  35.327  1.00  0.00     0.218 C 
HETATM   31  C12 UNK     1      13.470  13.872  31.811  1.00  0.00     0.003 A 
HETATM   32  C11 UNK     1      14.558  14.612  32.272  1.00  0.00     0.003 A 
ENDBRANCH  21  23
ENDBRANCH  20  21
ENDBRANCH  15  20
ENDBRANCH   2  12
TORSDOF 6
ENDMDL
MODEL 8
REMARK VINA RESULT:      -8.6      4.307      7.044
REMARK  6 active torsions:
REMARK  status: ('A' for Active; 'I' for Inactive)
REMARK    1  A    between atoms: C5_12  and  O3_4 
REMARK    2  A    between atoms: C8_15  and  O3_4 
REMARK    3  A    between atoms: C9_16  and  O5_6 
REMARK    4  A    between atoms: C1_8  and  C5_12 
REMARK    5  A    between atoms: C10_17  and  C16_23 
REMARK    6  A    between atoms: C17_24  and  C18_25 
ROOT
HETATM    1  N1  UNK     1      13.639   6.142  10.253  1.00  0.00    -0.191 NA
HETATM    2  C16 UNK     1      12.492   9.074   8.807  1.00  0.00     0.035 C 
HETATM    3  C17 UNK     1      13.654   8.530   9.250  1.00  0.00     0.055 C 
HETATM    4  C25 UNK     1      13.644   7.212   9.803  1.00  0.00     0.100 C 
ENDROOT
BRANCH   3   5
HETATM    5  C18 UNK     1      14.943   9.245   9.177  1.00  0.00    -0.015 A 
HETATM    6  C19 UNK     1      15.054  10.359   8.362  1.00  0.00     0.014 A 
HETATM    7  C21 UNK     1      16.273  11.034   8.294  1.00  0.00     0.024 A 
HETATM    8  C24 UNK     1      17.362  10.585   9.042  1.00  0.00     0.034 A 
HETATM    9  C22 UNK     1      17.233   9.462   9.857  1.00  0.00     0.024 A 
HETATM   10 Cl1  UNK     1      18.866  11.419   8.957  1.00  0.00    -0.084 Cl
HETATM   11  C20 UNK     1      16.014   8.786   9.926  1.00  0.00     0.014 A 
ENDBRANCH   3   5
BRANCH   2  12
HETATM   12  C10 UNK     1      11.176   8.456   8.826  1.00  0.00    -0.032 A 
HETATM   13  C14 UNK     1      10.897   7.381   7.981  1.00  0.00     0.051 A 
HETATM   14  C9  UNK     1       9.635   6.788   8.001  1.00  0.00     0.102 A 
HETATM   15  C8  UNK     1       8.683   7.284   8.863  1.00  0.00     0.112 A 
HETATM   16  C13 UNK     1       8.929   8.344   9.709  1.00  0.00     0.041 A 
HETATM   17  C15 UNK     1      10.191   8.937   9.689  1.00  0.00     0.014 A 
BRANCH  14  18
HETATM   18  O5  UNK     1       9.374   5.739   7.171  1.00  0.00    -0.353 OA
HETATM   19  C23 UNK     1       9.677   5.915   5.788  1.00  0.00     0.210 C 
ENDBRANCH  14  18
BRANCH  15  20
HETATM   20  O3  UNK     1       7.414   6.699   8.892  1.00  0.00    -0.274 OA
BRANCH  20  21
HETATM   21  C5  UNK     1       7.190   5.955  10.044  1.00  0.00     0.296 C 
HETATM   22  O4  UNK     1       8.018   5.319  10.684  1.00  0.00    -0.262 OA
BRANCH  21  23
HETATM   23  C1  UNK     1       5.736   6.046  10.402  1.00  0.00     0.253 C 
HETATM   24  O1  UNK     1       5.223   4.731  10.573  1.00  0.00    -0.331 OA
HETATM   25  C3  UNK     1       5.346   4.249  11.849  1.00  0.00     0.103 A 
HETATM   26  C4  UNK     1       5.749   5.036  12.927  1.00  0.00     0.102 A 
HETATM   27  C6  UNK     1       5.052   2.898  12.044  1.00  0.00     0.040 A 
HETATM   28  O2  UNK     1       6.036   6.369  12.806  1.00  0.00    -0.345 OA
HETATM   29  C7  UNK     1       5.897   4.468  14.193  1.00  0.00     0.039 A 
HETATM   30  C2  UNK     1       5.484   6.930  11.613  1.00  0.00     0.218 C 
HETATM   31  C12 UNK     1       5.612   3.116  14.385  1.00  0.00     0.003 A 
HETATM   32  C11 UNK     1       5.185   2.334  13.313  1.00  0.00     0.003 A 
ENDBRANCH  21  23
ENDBRANCH  20  21
ENDBRANCH  15  20
ENDBRANCH   2  12
TORSDOF 6
ENDMDL
MODEL 9
REMARK VINA RESULT:      -8.5      0.866      1.832
REMARK  6 active torsions:
REMARK  status: ('A' for Active; 'I' for Inactive)
REMARK    1  A    between atoms: C5_12  and  O3_4 
REMARK    2  A    between atoms: C8_15  and  O3_4 
REMARK    3  A    between atoms: C9_16  and  O5_6 
REMARK    4  A    between atoms: C1_8  and  C5_12 
REMARK    5  A    between atoms: C10_17  and  C16_23 
REMARK    6  A    between atoms: C17_24  and  C18_25 
ROOT
HETATM    1  N1  UNK     1      16.034  12.498   7.591  1.00  0.00    -0.191 NA
HETATM    2  C16 UNK     1      18.149  10.879   9.806  1.00  0.00     0.035 C 
HETATM    3  C17 UNK     1      18.181  11.900   8.911  1.00  0.00     0.055 C 
HETATM    4  C25 UNK     1      16.995  12.229   8.184  1.00  0.00     0.100 C 
ENDROOT
BRANCH   3   5
HETATM    5  C18 UNK     1      19.396  12.699   8.661  1.00  0.00    -0.015 A 
HETATM    6  C19 UNK     1      20.623  12.061   8.594  1.00  0.00     0.014 A 
HETATM    7  C21 UNK     1      21.771  12.817   8.357  1.00  0.00     0.024 A 
HETATM    8  C24 UNK     1      21.675  14.198   8.191  1.00  0.00     0.034 A 
HETATM    9  C22 UNK     1      20.431  14.825   8.262  1.00  0.00     0.024 A 
HETATM   10 Cl1  UNK     1      23.092  15.131   7.899  1.00  0.00    -0.084 Cl
HETATM   11  C20 UNK     1      19.282  14.069   8.498  1.00  0.00     0.014 A 
ENDBRANCH   3   5
BRANCH   2  12
HETATM   12  C10 UNK     1      17.008  10.038  10.131  1.00  0.00    -0.032 A 
HETATM   13  C14 UNK     1      15.945  10.558  10.870  1.00  0.00     0.051 A 
HETATM   14  C9  UNK     1      14.852   9.751  11.181  1.00  0.00     0.102 A 
HETATM   15  C8  UNK     1      14.847   8.445  10.747  1.00  0.00     0.112 A 
HETATM   16  C13 UNK     1      15.882   7.903  10.015  1.00  0.00     0.041 A 
HETATM   17  C15 UNK     1      16.976   8.710   9.704  1.00  0.00     0.014 A 
BRANCH  14  18
HETATM   18  O5  UNK     1      13.820  10.271  11.904  1.00  0.00    -0.353 OA
HETATM   19  C23 UNK     1      13.270  11.507  11.453  1.00  0.00     0.210 C 
ENDBRANCH  14  18
BRANCH  15  20
HETATM   20  O3  UNK     1      13.756   7.625  11.052  1.00  0.00    -0.274 OA
BRANCH  20  21
HETATM   21  C5  UNK     1      13.121   7.131   9.919  1.00  0.00     0.296 C 
HETATM   22  O4  UNK     1      12.984   5.956   9.603  1.00  0.00    -0.262 OA
BRANCH  21  23
HETATM   23  C1  UNK     1      12.612   8.287   9.109  1.00  0.00     0.253 C 
HETATM   24  O1  UNK     1      12.493   7.877   7.753  1.00  0.00    -0.331 OA
HETATM   25  C3  UNK     1      11.279   7.327   7.443  1.00  0.00     0.103 A 
HETATM   26  C4  UNK     1      10.188   7.344   8.311  1.00  0.00     0.102 A 
HETATM   27  C6  UNK     1      11.162   6.721   6.190  1.00  0.00     0.040 A 
HETATM   28  O2  UNK     1      10.233   7.935   9.545  1.00  0.00    -0.345 OA
HETATM   29  C7  UNK     1       8.993   6.723   7.948  1.00  0.00     0.039 A 
HETATM   30  C2  UNK     1      11.315   8.861   9.657  1.00  0.00     0.218 C 
HETATM   31  C12 UNK     1       8.880   6.110   6.700  1.00  0.00     0.003 A 
HETATM   32  C11 UNK     1       9.962   6.113   5.820  1.00  0.00     0.003 A 
ENDBRANCH  21  23
ENDBRANCH  20  21
ENDBRANCH  15  20
ENDBRANCH   2  12
TORSDOF 6
ENDMDL
MODEL 10
REMARK VINA RESULT:      -8.5      2.089      2.665
REMARK  6 active torsions:
REMARK  status: ('A' for Active; 'I' for Inactive)
REMARK    1  A    between atoms: C5_12  and  O3_4 
REMARK    2  A    between atoms: C8_15  and  O3_4 
REMARK    3  A    between atoms: C9_16  and  O5_6 
REMARK    4  A    between atoms: C1_8  and  C5_12 
REMARK    5  A    between atoms: C10_17  and  C16_23 
REMARK    6  A    between atoms: C17_24  and  C18_25 
ROOT
HETATM    1  N1  UNK     1      19.073  11.041   7.895  1.00  0.00    -0.191 NA
HETATM    2  C16 UNK     1      17.240  11.424  10.809  1.00  0.00     0.035 C 
HETATM    3  C17 UNK     1      18.335  11.952  10.205  1.00  0.00     0.055 C 
HETATM    4  C25 UNK     1      18.741  11.448   8.930  1.00  0.00     0.100 C 
ENDROOT
BRANCH   3   5
HETATM    5  C18 UNK     1      19.128  13.039  10.808  1.00  0.00    -0.015 A 
HETATM    6  C19 UNK     1      19.093  13.221  12.181  1.00  0.00     0.014 A 
HETATM    7  C21 UNK     1      19.844  14.250  12.751  1.00  0.00     0.024 A 
HETATM    8  C24 UNK     1      20.617  15.081  11.940  1.00  0.00     0.034 A 
HETATM    9  C22 UNK     1      20.640  14.884  10.560  1.00  0.00     0.024 A 
HETATM   10 Cl1  UNK     1      21.542  16.351  12.644  1.00  0.00    -0.084 Cl
HETATM   11  C20 UNK     1      19.890  13.855   9.989  1.00  0.00     0.014 A 
ENDBRANCH   3   5
BRANCH   2  12
HETATM   12  C10 UNK     1      16.389  10.360  10.300  1.00  0.00    -0.032 A 
HETATM   13  C14 UNK     1      16.666   9.031  10.620  1.00  0.00     0.051 A 
HETATM   14  C9  UNK     1      15.849   8.012  10.131  1.00  0.00     0.102 A 
HETATM   15  C8  UNK     1      14.776   8.346   9.336  1.00  0.00     0.112 A 
HETATM   16  C13 UNK     1      14.477   9.650   9.003  1.00  0.00     0.041 A 
HETATM   17  C15 UNK     1      15.294  10.669   9.491  1.00  0.00     0.014 A 
BRANCH  14  18
HETATM   18  O5  UNK     1      16.130   6.717  10.450  1.00  0.00    -0.353 OA
HETATM   19  C23 UNK     1      16.940   5.984   9.533  1.00  0.00     0.210 C 
ENDBRANCH  14  18
BRANCH  15  20
HETATM   20  O3  UNK     1      13.949   7.333   8.840  1.00  0.00    -0.274 OA
BRANCH  20  21
HETATM   21  C5  UNK     1      12.939   6.981   9.727  1.00  0.00     0.296 C 
HETATM   22  O4  UNK     1      12.455   7.678  10.610  1.00  0.00    -0.262 OA
BRANCH  21  23
HETATM   23  C1  UNK     1      12.512   5.573   9.435  1.00  0.00     0.253 C 
HETATM   24  O1  UNK     1      11.111   5.464   9.658  1.00  0.00    -0.331 OA
HETATM   25  C3  UNK     1      10.350   5.757   8.558  1.00  0.00     0.103 A 
HETATM   26  C4  UNK     1      10.888   5.948   7.286  1.00  0.00     0.102 A 
HETATM   27  C6  UNK     1       8.972   5.868   8.757  1.00  0.00     0.040 A 
HETATM   28  O2  UNK     1      12.226   5.837   7.022  1.00  0.00    -0.345 OA
HETATM   29  C7  UNK     1      10.057   6.289   6.218  1.00  0.00     0.039 A 
HETATM   30  C2  UNK     1      12.915   5.113   8.044  1.00  0.00     0.218 C 
HETATM   31  C12 UNK     1       8.682   6.409   6.419  1.00  0.00     0.003 A 
HETATM   32  C11 UNK     1       8.140   6.194   7.686  1.00  0.00     0.003 A 
ENDBRANCH  21  23
ENDBRANCH  20  21
ENDBRANCH  15  20
ENDBRANCH   2  12
TORSDOF 6
ENDMDL
