MODEL 1
REMARK VINA RESULT:      -8.4      0.000      0.000
REMARK  1 active torsions:
REMARK  status: ('A' for Active; 'I' for Inactive)
REMARK    1  A    between atoms: C3_5  and  C4_6 
ROOT
HETATM    1  O1  UNK     1      19.105   2.963  30.416  1.00  0.00    -0.309 OA
HETATM    2  O2  UNK     1      17.714   3.048  34.244  1.00  0.00    -0.287 OA
HETATM    3  C1  UNK     1      18.241   4.256  32.282  1.00  0.00     0.048 A 
HETATM    4  C2  UNK     1      18.724   4.154  30.978  1.00  0.00     0.090 A 
HETATM    5  C3  UNK     1      19.013   1.810  31.182  1.00  0.00     0.090 A 
HETATM    6  C5  UNK     1      17.868   5.496  32.804  1.00  0.00     0.025 A 
HETATM    7  C6  UNK     1      18.133   3.034  33.094  1.00  0.00     0.187 A 
HETATM    8  C7  UNK     1      17.981   6.637  32.009  1.00  0.00    -0.061 A 
HETATM    9  C8  UNK     1      18.558   1.778  32.445  1.00  0.00     0.093 A 
HETATM   10  C9  UNK     1      18.836   5.298  30.187  1.00  0.00     0.039 A 
HETATM   11  C11 UNK     1      18.464   6.539  30.703  1.00  0.00     0.009 A 
HETATM   12  C15 UNK     1      17.585   7.968  32.556  1.00  0.00     0.048 C 
ENDROOT
BRANCH   5  13
HETATM   13  C4  UNK     1      19.442   0.586  30.478  1.00  0.00    -0.002 A 
HETATM   14  C10 UNK     1      19.874  -0.527  31.205  1.00  0.00     0.021 A 
HETATM   15  C12 UNK     1      20.278  -1.685  30.540  1.00  0.00    -0.061 A 
HETATM   16  C14 UNK     1      20.252  -1.733  29.146  1.00  0.00     0.007 A 
HETATM   17  C17 UNK     1      20.737  -2.871  31.319  1.00  0.00     0.048 C 
HETATM   18  C16 UNK     1      19.822  -0.624  28.418  1.00  0.00     0.001 A 
HETATM   19  C13 UNK     1      19.418   0.534  29.082  1.00  0.00     0.014 A 
ENDBRANCH   5  13
TORSDOF 1
ENDMDL
MODEL 2
REMARK VINA RESULT:      -8.0      5.026      6.775
REMARK  1 active torsions:
REMARK  status: ('A' for Active; 'I' for Inactive)
REMARK    1  A    between atoms: C3_5  and  C4_6 
ROOT
HETATM    1  O1  UNK     1      17.625   8.977  33.127  1.00  0.00    -0.309 OA
HETATM    2  O2  UNK     1      14.045   7.266  34.054  1.00  0.00    -0.287 OA
HETATM    3  C1  UNK     1      15.445   9.166  34.182  1.00  0.00     0.048 A 
HETATM    4  C2  UNK     1      16.688   9.690  33.831  1.00  0.00     0.090 A 
HETATM    5  C3  UNK     1      17.323   7.675  32.757  1.00  0.00     0.090 A 
HETATM    6  C5  UNK     1      14.529   9.939  34.899  1.00  0.00     0.025 A 
HETATM    7  C6  UNK     1      15.118   7.789  33.783  1.00  0.00     0.187 A 
HETATM    8  C7  UNK     1      14.867  11.242  35.264  1.00  0.00    -0.061 A 
HETATM    9  C8  UNK     1      16.161   7.062  33.030  1.00  0.00     0.093 A 
HETATM   10  C9  UNK     1      17.022  10.994  34.196  1.00  0.00     0.039 A 
HETATM   11  C11 UNK     1      16.110  11.770  34.913  1.00  0.00     0.009 A 
HETATM   12  C15 UNK     1      13.896  12.077  36.030  1.00  0.00     0.048 C 
ENDROOT
BRANCH   5  13
HETATM   13  C4  UNK     1      18.398   7.002  32.000  1.00  0.00    -0.002 A 
HETATM   14  C10 UNK     1      19.653   6.809  32.584  1.00  0.00     0.021 A 
HETATM   15  C12 UNK     1      20.667   6.172  31.869  1.00  0.00    -0.061 A 
HETATM   16  C14 UNK     1      20.430   5.725  30.569  1.00  0.00     0.007 A 
HETATM   17  C17 UNK     1      22.005   5.966  32.495  1.00  0.00     0.048 C 
HETATM   18  C16 UNK     1      19.178   5.917  29.984  1.00  0.00     0.001 A 
HETATM   19  C13 UNK     1      18.163   6.554  30.698  1.00  0.00     0.014 A 
ENDBRANCH   5  13
TORSDOF 1
ENDMDL
MODEL 3
REMARK VINA RESULT:      -7.9      2.399      7.601
REMARK  1 active torsions:
REMARK  status: ('A' for Active; 'I' for Inactive)
REMARK    1  A    between atoms: C3_5  and  C4_6 
ROOT
HETATM    1  O1  UNK     1      18.944   6.430  31.681  1.00  0.00    -0.309 OA
HETATM    2  O2  UNK     1      17.898   3.263  34.021  1.00  0.00    -0.287 OA
HETATM    3  C1  UNK     1      18.413   4.066  31.859  1.00  0.00     0.048 A 
HETATM    4  C2  UNK     1      18.771   5.191  31.119  1.00  0.00     0.090 A 
HETATM    5  C3  UNK     1      18.744   6.569  33.047  1.00  0.00     0.090 A 
HETATM    6  C5  UNK     1      18.251   2.829  31.232  1.00  0.00     0.025 A 
HETATM    7  C6  UNK     1      18.209   4.207  33.309  1.00  0.00     0.187 A 
HETATM    8  C7  UNK     1      18.452   2.725  29.855  1.00  0.00    -0.061 A 
HETATM    9  C8  UNK     1      18.404   5.561  33.867  1.00  0.00     0.093 A 
HETATM   10  C9  UNK     1      18.971   5.084  29.742  1.00  0.00     0.039 A 
HETATM   11  C11 UNK     1      18.811   3.850  29.111  1.00  0.00     0.009 A 
HETATM   12  C15 UNK     1      18.282   1.408  29.175  1.00  0.00     0.048 C 
ENDROOT
BRANCH   5  13
HETATM   13  C4  UNK     1      18.960   7.940  33.550  1.00  0.00    -0.002 A 
HETATM   14  C10 UNK     1      17.903   8.854  33.575  1.00  0.00     0.021 A 
HETATM   15  C12 UNK     1      18.108  10.149  34.051  1.00  0.00    -0.061 A 
HETATM   16  C14 UNK     1      19.370  10.534  34.503  1.00  0.00     0.007 A 
HETATM   17  C17 UNK     1      16.978  11.121  34.077  1.00  0.00     0.048 C 
HETATM   18  C16 UNK     1      20.428   9.625  34.478  1.00  0.00     0.001 A 
HETATM   19  C13 UNK     1      20.223   8.330  34.003  1.00  0.00     0.014 A 
ENDBRANCH   5  13
TORSDOF 1
ENDMDL
MODEL 4
REMARK VINA RESULT:      -7.9      2.680      6.525
REMARK  1 active torsions:
REMARK  status: ('A' for Active; 'I' for Inactive)
REMARK    1  A    between atoms: C3_5  and  C4_6 
ROOT
HETATM    1  O1  UNK     1      18.188   3.005  34.123  1.00  0.00    -0.309 OA
HETATM    2  O2  UNK     1      18.538  -0.705  32.478  1.00  0.00    -0.287 OA
HETATM    3  C1  UNK     1      18.256   0.597  34.430  1.00  0.00     0.048 A 
HETATM    4  C2  UNK     1      18.142   1.895  34.926  1.00  0.00     0.090 A 
HETATM    5  C3  UNK     1      18.366   2.828  32.759  1.00  0.00     0.090 A 
HETATM    6  C5  UNK     1      18.201  -0.498  35.295  1.00  0.00     0.025 A 
HETATM    7  C6  UNK     1      18.434   0.404  32.983  1.00  0.00     0.187 A 
HETATM    8  C7  UNK     1      18.030  -0.285  36.663  1.00  0.00    -0.061 A 
HETATM    9  C8  UNK     1      18.482   1.632  32.162  1.00  0.00     0.093 A 
HETATM   10  C9  UNK     1      17.971   2.104  36.294  1.00  0.00     0.039 A 
HETATM   11  C11 UNK     1      17.916   1.014  37.162  1.00  0.00     0.009 A 
HETATM   12  C15 UNK     1      17.970  -1.447  37.596  1.00  0.00     0.048 C 
ENDROOT
BRANCH   5  13
HETATM   13  C4  UNK     1      18.396   4.087  31.988  1.00  0.00    -0.002 A 
HETATM   14  C10 UNK     1      17.815   5.245  32.512  1.00  0.00     0.021 A 
HETATM   15  C12 UNK     1      17.845   6.435  31.785  1.00  0.00    -0.061 A 
HETATM   16  C14 UNK     1      18.456   6.471  30.531  1.00  0.00     0.007 A 
HETATM   17  C17 UNK     1      17.226   7.669  32.348  1.00  0.00     0.048 C 
HETATM   18  C16 UNK     1      19.036   5.317  30.005  1.00  0.00     0.001 A 
HETATM   19  C13 UNK     1      19.007   4.127  30.732  1.00  0.00     0.014 A 
ENDBRANCH   5  13
TORSDOF 1
ENDMDL
MODEL 5
REMARK VINA RESULT:      -7.8     22.724     24.335
REMARK  1 active torsions:
REMARK  status: ('A' for Active; 'I' for Inactive)
REMARK    1  A    between atoms: C3_5  and  C4_6 
ROOT
HETATM    1  O1  UNK     1      13.311   8.651   8.010  1.00  0.00    -0.309 OA
HETATM    2  O2  UNK     1      15.081   6.598  11.051  1.00  0.00    -0.287 OA
HETATM    3  C1  UNK     1      15.129   8.471   9.611  1.00  0.00     0.048 A 
HETATM    4  C2  UNK     1      14.470   9.123   8.570  1.00  0.00     0.090 A 
HETATM    5  C3  UNK     1      12.776   7.467   8.497  1.00  0.00     0.090 A 
HETATM    6  C5  UNK     1      16.307   8.998  10.143  1.00  0.00     0.025 A 
HETATM    7  C6  UNK     1      14.559   7.221  10.137  1.00  0.00     0.187 A 
HETATM    8  C7  UNK     1      16.823  10.187   9.624  1.00  0.00    -0.061 A 
HETATM    9  C8  UNK     1      13.312   6.752   9.498  1.00  0.00     0.093 A 
HETATM   10  C9  UNK     1      14.989  10.311   8.054  1.00  0.00     0.039 A 
HETATM   11  C11 UNK     1      16.166  10.842   8.582  1.00  0.00     0.009 A 
HETATM   12  C15 UNK     1      18.081  10.759  10.185  1.00  0.00     0.048 C 
ENDROOT
BRANCH   5  13
HETATM   13  C4  UNK     1      11.526   7.053   7.828  1.00  0.00    -0.002 A 
HETATM   14  C10 UNK     1      10.299   7.199   8.481  1.00  0.00     0.021 A 
HETATM   15  C12 UNK     1       9.118   6.809   7.848  1.00  0.00    -0.061 A 
HETATM   16  C14 UNK     1       9.162   6.271   6.562  1.00  0.00     0.007 A 
HETATM   17  C17 UNK     1       7.811   6.968   8.546  1.00  0.00     0.048 C 
HETATM   18  C16 UNK     1      10.385   6.123   5.909  1.00  0.00     0.001 A 
HETATM   19  C13 UNK     1      11.566   6.513   6.540  1.00  0.00     0.014 A 
ENDBRANCH   5  13
TORSDOF 1
ENDMDL
MODEL 6
REMARK VINA RESULT:      -7.7      1.175      6.610
REMARK  1 active torsions:
REMARK  status: ('A' for Active; 'I' for Inactive)
REMARK    1  A    between atoms: C3_5  and  C4_6 
ROOT
HETATM    1  O1  UNK     1      18.645   3.183  30.959  1.00  0.00    -0.309 OA
HETATM    2  O2  UNK     1      18.589   0.559  34.075  1.00  0.00    -0.287 OA
HETATM    3  C1  UNK     1      19.010   0.926  31.779  1.00  0.00     0.048 A 
HETATM    4  C2  UNK     1      19.008   1.876  30.759  1.00  0.00     0.090 A 
HETATM    5  C3  UNK     1      18.254   3.573  32.232  1.00  0.00     0.090 A 
HETATM    6  C5  UNK     1      19.390  -0.392  31.517  1.00  0.00     0.025 A 
HETATM    7  C6  UNK     1      18.607   1.338  33.132  1.00  0.00     0.187 A 
HETATM    8  C7  UNK     1      19.769  -0.754  30.224  1.00  0.00    -0.061 A 
HETATM    9  C8  UNK     1      18.221   2.755  33.295  1.00  0.00     0.093 A 
HETATM   10  C9  UNK     1      19.388   1.510  29.467  1.00  0.00     0.039 A 
HETATM   11  C11 UNK     1      19.768   0.195  29.201  1.00  0.00     0.009 A 
HETATM   12  C15 UNK     1      20.177  -2.159  29.933  1.00  0.00     0.048 C 
ENDROOT
BRANCH   5  13
HETATM   13  C4  UNK     1      17.890   5.000  32.337  1.00  0.00    -0.002 A 
HETATM   14  C10 UNK     1      17.541   5.546  33.575  1.00  0.00     0.021 A 
HETATM   15  C12 UNK     1      17.198   6.895  33.674  1.00  0.00    -0.061 A 
HETATM   16  C14 UNK     1      17.202   7.701  32.536  1.00  0.00     0.007 A 
HETATM   17  C17 UNK     1      16.827   7.474  34.997  1.00  0.00     0.048 C 
HETATM   18  C16 UNK     1      17.549   7.159  31.298  1.00  0.00     0.001 A 
HETATM   19  C13 UNK     1      17.893   5.810  31.199  1.00  0.00     0.014 A 
ENDBRANCH   5  13
TORSDOF 1
ENDMDL
MODEL 7
REMARK VINA RESULT:      -7.7      3.131      4.957
REMARK  1 active torsions:
REMARK  status: ('A' for Active; 'I' for Inactive)
REMARK    1  A    between atoms: C3_5  and  C4_6 
ROOT
HETATM    1  O1  UNK     1      18.238   2.990  34.459  1.00  0.00    -0.309 OA
HETATM    2  O2  UNK     1      18.606   1.191  30.822  1.00  0.00    -0.287 OA
HETATM    3  C1  UNK     1      18.477   3.205  32.052  1.00  0.00     0.048 A 
HETATM    4  C2  UNK     1      18.350   3.755  33.327  1.00  0.00     0.090 A 
HETATM    5  C3  UNK     1      18.244   1.609  34.328  1.00  0.00     0.090 A 
HETATM    6  C5  UNK     1      18.587   4.034  30.933  1.00  0.00     0.025 A 
HETATM    7  C6  UNK     1      18.494   1.742  31.909  1.00  0.00     0.187 A 
HETATM    8  C7  UNK     1      18.569   5.419  31.099  1.00  0.00    -0.061 A 
HETATM    9  C8  UNK     1      18.367   0.962  33.158  1.00  0.00     0.093 A 
HETATM   10  C9  UNK     1      18.332   5.140  33.489  1.00  0.00     0.039 A 
HETATM   11  C11 UNK     1      18.442   5.972  32.374  1.00  0.00     0.009 A 
HETATM   12  C15 UNK     1      18.686   6.313  29.911  1.00  0.00     0.048 C 
ENDROOT
BRANCH   5  13
HETATM   13  C4  UNK     1      18.124   0.883  35.608  1.00  0.00    -0.002 A 
HETATM   14  C10 UNK     1      18.506  -0.459  35.693  1.00  0.00     0.021 A 
HETATM   15  C12 UNK     1      18.394  -1.144  36.903  1.00  0.00    -0.061 A 
HETATM   16  C14 UNK     1      17.899  -0.489  38.032  1.00  0.00     0.007 A 
HETATM   17  C17 UNK     1      18.804  -2.575  36.991  1.00  0.00     0.048 C 
HETATM   18  C16 UNK     1      17.516   0.849  37.950  1.00  0.00     0.001 A 
HETATM   19  C13 UNK     1      17.629   1.535  36.740  1.00  0.00     0.014 A 
ENDBRANCH   5  13
TORSDOF 1
ENDMDL
MODEL 8
REMARK VINA RESULT:      -7.7      2.786      7.348
REMARK  1 active torsions:
REMARK  status: ('A' for Active; 'I' for Inactive)
REMARK    1  A    between atoms: C3_5  and  C4_6 
ROOT
HETATM    1  O1  UNK     1      18.359   4.134  34.492  1.00  0.00    -0.309 OA
HETATM    2  O2  UNK     1      18.115   1.974  31.046  1.00  0.00    -0.287 OA
HETATM    3  C1  UNK     1      18.354   1.966  33.397  1.00  0.00     0.048 A 
HETATM    4  C2  UNK     1      18.429   2.766  34.536  1.00  0.00     0.090 A 
HETATM    5  C3  UNK     1      18.215   4.749  33.256  1.00  0.00     0.090 A 
HETATM    6  C5  UNK     1      18.431   0.576  33.503  1.00  0.00     0.025 A 
HETATM    7  C6  UNK     1      18.192   2.613  32.086  1.00  0.00     0.187 A 
HETATM    8  C7  UNK     1      18.584  -0.010  34.760  1.00  0.00    -0.061 A 
HETATM    9  C8  UNK     1      18.125   4.089  32.091  1.00  0.00     0.093 A 
HETATM   10  C9  UNK     1      18.582   2.176  35.791  1.00  0.00     0.039 A 
HETATM   11  C11 UNK     1      18.659   0.788  35.902  1.00  0.00     0.009 A 
HETATM   12  C15 UNK     1      18.668  -1.495  34.884  1.00  0.00     0.048 C 
ENDROOT
BRANCH   5  13
HETATM   13  C4  UNK     1      18.145   6.222  33.322  1.00  0.00    -0.002 A 
HETATM   14  C10 UNK     1      19.198   6.951  33.881  1.00  0.00     0.021 A 
HETATM   15  C12 UNK     1      19.132   8.343  33.943  1.00  0.00    -0.061 A 
HETATM   16  C14 UNK     1      18.012   9.010  33.446  1.00  0.00     0.007 A 
HETATM   17  C17 UNK     1      20.258   9.118  34.538  1.00  0.00     0.048 C 
HETATM   18  C16 UNK     1      16.959   8.286  32.888  1.00  0.00     0.001 A 
HETATM   19  C13 UNK     1      17.025   6.894  32.826  1.00  0.00     0.014 A 
ENDBRANCH   5  13
TORSDOF 1
ENDMDL
MODEL 9
REMARK VINA RESULT:      -7.7     24.136     25.073
REMARK  1 active torsions:
REMARK  status: ('A' for Active; 'I' for Inactive)
REMARK    1  A    between atoms: C3_5  and  C4_6 
ROOT
HETATM    1  O1  UNK     1       7.749   4.518   9.046  1.00  0.00    -0.309 OA
HETATM    2  O2  UNK     1       6.465   7.520  11.483  1.00  0.00    -0.287 OA
HETATM    3  C1  UNK     1       6.270   5.259  10.825  1.00  0.00     0.048 A 
HETATM    4  C2  UNK     1       6.758   4.278   9.962  1.00  0.00     0.090 A 
HETATM    5  C3  UNK     1       8.284   5.796   8.971  1.00  0.00     0.090 A 
HETATM    6  C5  UNK     1       5.258   4.957  11.739  1.00  0.00     0.025 A 
HETATM    7  C6  UNK     1       6.842   6.612  10.755  1.00  0.00     0.187 A 
HETATM    8  C7  UNK     1       4.736   3.664  11.783  1.00  0.00    -0.061 A 
HETATM    9  C8  UNK     1       7.904   6.821   9.750  1.00  0.00     0.093 A 
HETATM   10  C9  UNK     1       6.233   2.986  10.010  1.00  0.00     0.039 A 
HETATM   11  C11 UNK     1       5.222   2.680  10.920  1.00  0.00     0.009 A 
HETATM   12  C15 UNK     1       3.654   3.331  12.755  1.00  0.00     0.048 C 
ENDROOT
BRANCH   5  13
HETATM   13  C4  UNK     1       9.347   5.943   7.957  1.00  0.00    -0.002 A 
HETATM   14  C10 UNK     1      10.691   5.831   8.326  1.00  0.00     0.021 A 
HETATM   15  C12 UNK     1      11.695   5.969   7.367  1.00  0.00    -0.061 A 
HETATM   16  C14 UNK     1      11.359   6.219   6.037  1.00  0.00     0.007 A 
HETATM   17  C17 UNK     1      13.127   5.847   7.765  1.00  0.00     0.048 C 
HETATM   18  C16 UNK     1      10.019   6.332   5.665  1.00  0.00     0.001 A 
HETATM   19  C13 UNK     1       9.015   6.194   6.623  1.00  0.00     0.014 A 
ENDBRANCH   5  13
TORSDOF 1
ENDMDL
MODEL 10
REMARK VINA RESULT:      -7.7      6.543     10.867
REMARK  1 active torsions:
REMARK  status: ('A' for Active; 'I' for Inactive)
REMARK    1  A    between atoms: C3_5  and  C4_6 
ROOT
HETATM    1  O1  UNK     1      18.599  -4.473  36.472  1.00  0.00    -0.309 OA
HETATM    2  O2  UNK     1      22.347  -5.196  37.894  1.00  0.00    -0.287 OA
HETATM    3  C1  UNK     1      20.330  -6.080  37.038  1.00  0.00     0.048 A 
HETATM    4  C2  UNK     1      19.060  -5.761  36.560  1.00  0.00     0.090 A 
HETATM    5  C3  UNK     1      19.431  -3.443  36.885  1.00  0.00     0.090 A 
HETATM    6  C5  UNK     1      20.747  -7.411  37.105  1.00  0.00     0.025 A 
HETATM    7  C6  UNK     1      21.219  -4.990  37.468  1.00  0.00     0.187 A 
HETATM    8  C7  UNK     1      19.881  -8.423  36.689  1.00  0.00    -0.061 A 
HETATM    9  C8  UNK     1      20.675  -3.621  37.357  1.00  0.00     0.093 A 
HETATM   10  C9  UNK     1      18.197  -6.776  36.145  1.00  0.00     0.039 A 
HETATM   11  C11 UNK     1      18.609  -8.107  36.210  1.00  0.00     0.009 A 
HETATM   12  C15 UNK     1      20.316  -9.849  36.757  1.00  0.00     0.048 C 
ENDROOT
BRANCH   5  13
HETATM   13  C4  UNK     1      18.839  -2.098  36.743  1.00  0.00    -0.002 A 
HETATM   14  C10 UNK     1      18.850  -1.453  35.503  1.00  0.00     0.021 A 
HETATM   15  C12 UNK     1      18.289  -0.183  35.369  1.00  0.00    -0.061 A 
HETATM   16  C14 UNK     1      17.716   0.446  36.474  1.00  0.00     0.007 A 
HETATM   17  C17 UNK     1      18.301   0.501  34.044  1.00  0.00     0.048 C 
HETATM   18  C16 UNK     1      17.704  -0.194  37.713  1.00  0.00     0.001 A 
HETATM   19  C13 UNK     1      18.265  -1.464  37.848  1.00  0.00     0.014 A 
ENDBRANCH   5  13
TORSDOF 1
ENDMDL
