MODEL 1
REMARK VINA RESULT:      -8.6      0.000      0.000
REMARK  4 active torsions:
REMARK  status: ('A' for Active; 'I' for Inactive)
REMARK    1  A    between atoms: C10_16  and  O2_3 
REMARK    2  A    between atoms: C8_14  and  O2_3 
REMARK    3  A    between atoms: C10_16  and  C4_10 
REMARK    4  A    between atoms: C12_18  and  C17_23 
ROOT
HETATM    1 Br1  UNK     1      19.448  -2.478  36.280  1.00  0.00    -0.051 Br
HETATM    2  O1  UNK     1      20.474  -1.321  30.414  1.00  0.00    -0.274 OA
HETATM    3  O3  UNK     1      20.207   0.014  28.578  1.00  0.00    -0.259 OA
HETATM    4  C1  UNK     1      19.460  -0.672  32.525  1.00  0.00     0.000 A 
HETATM    5  C2  UNK     1      20.221  -1.565  31.777  1.00  0.00     0.089 A 
HETATM    6  C3  UNK     1      18.931   0.517  31.877  1.00  0.00     0.038 A 
HETATM    7  C4  UNK     1      19.174   0.744  30.582  1.00  0.00     0.116 A 
HETATM    8  C5  UNK     1      19.230  -0.950  33.875  1.00  0.00     0.033 A 
HETATM    9  C6  UNK     1      20.756  -2.722  32.338  1.00  0.00     0.039 A 
HETATM   10  C7  UNK     1      19.981  -0.191  29.765  1.00  0.00     0.304 A 
HETATM   11  C9  UNK     1      19.762  -2.107  34.452  1.00  0.00     0.011 A 
HETATM   12  C11 UNK     1      20.524  -2.991  33.685  1.00  0.00     0.022 A 
ENDROOT
BRANCH   7  13
HETATM   13  C10 UNK     1      18.598   1.971  30.018  1.00  0.00     0.304 C 
HETATM   14  O4  UNK     1      17.503   2.017  29.482  1.00  0.00    -0.259 OA
BRANCH  13  15
HETATM   15  O2  UNK     1      19.504   2.996  30.212  1.00  0.00    -0.275 OA
BRANCH  15  16
HETATM   16  C8  UNK     1      18.888   4.183  30.616  1.00  0.00     0.079 A 
HETATM   17  C13 UNK     1      19.013   5.297  29.816  1.00  0.00     0.038 A 
HETATM   18  C15 UNK     1      18.396   6.482  30.218  1.00  0.00     0.018 A 
HETATM   19  C12 UNK     1      17.672   6.522  31.409  1.00  0.00     0.009 A 
HETATM   20  C16 UNK     1      17.564   5.377  32.198  1.00  0.00     0.018 A 
HETATM   21  C14 UNK     1      18.180   4.192  31.796  1.00  0.00     0.038 A 
BRANCH  19  22
HETATM   22  C17 UNK     1      17.031   7.758  31.828  1.00  0.00     0.155 C 
HETATM   23  C18 UNK     1      17.265   8.309  33.231  1.00  0.00     0.096 C 
HETATM   24  O5  UNK     1      16.280   8.395  31.063  1.00  0.00    -0.293 OA
ENDBRANCH  19  22
ENDBRANCH  15  16
ENDBRANCH  13  15
ENDBRANCH   7  13
TORSDOF 4
ENDMDL
MODEL 2
REMARK VINA RESULT:      -8.5      2.128      3.093
REMARK  4 active torsions:
REMARK  status: ('A' for Active; 'I' for Inactive)
REMARK    1  A    between atoms: C10_16  and  O2_3 
REMARK    2  A    between atoms: C8_14  and  O2_3 
REMARK    3  A    between atoms: C10_16  and  C4_10 
REMARK    4  A    between atoms: C12_18  and  C17_23 
ROOT
HETATM    1 Br1  UNK     1      21.161  -3.531  31.679  1.00  0.00    -0.051 Br
HETATM    2  O1  UNK     1      19.037   1.287  28.665  1.00  0.00    -0.274 OA
HETATM    3  O3  UNK     1      18.207   3.416  28.659  1.00  0.00    -0.259 OA
HETATM    4  C1  UNK     1      19.620   0.233  30.777  1.00  0.00     0.000 A 
HETATM    5  C2  UNK     1      19.527   0.183  29.390  1.00  0.00     0.089 A 
HETATM    6  C3  UNK     1      19.205   1.444  31.467  1.00  0.00     0.038 A 
HETATM    7  C4  UNK     1      18.740   2.490  30.774  1.00  0.00     0.116 A 
HETATM    8  C5  UNK     1      20.110  -0.883  31.460  1.00  0.00     0.033 A 
HETATM    9  C6  UNK     1      19.908  -0.947  28.669  1.00  0.00     0.039 A 
HETATM   10  C7  UNK     1      18.631   2.459  29.298  1.00  0.00     0.304 A 
HETATM   11  C9  UNK     1      20.498  -2.024  30.750  1.00  0.00     0.011 A 
HETATM   12  C11 UNK     1      20.397  -2.055  29.357  1.00  0.00     0.022 A 
ENDROOT
BRANCH   7  13
HETATM   13  C10 UNK     1      18.347   3.666  31.559  1.00  0.00     0.304 C 
HETATM   14  O4  UNK     1      17.576   3.618  32.504  1.00  0.00    -0.259 OA
BRANCH  13  15
HETATM   15  O2  UNK     1      18.995   4.766  31.033  1.00  0.00    -0.275 OA
BRANCH  15  16
HETATM   16  C8  UNK     1      18.671   5.948  31.705  1.00  0.00     0.079 A 
HETATM   17  C13 UNK     1      19.516   6.397  32.695  1.00  0.00     0.038 A 
HETATM   18  C15 UNK     1      19.193   7.577  33.365  1.00  0.00     0.018 A 
HETATM   19  C12 UNK     1      18.034   8.276  33.028  1.00  0.00     0.009 A 
HETATM   20  C16 UNK     1      17.198   7.796  32.021  1.00  0.00     0.018 A 
HETATM   21  C14 UNK     1      17.521   6.616  31.351  1.00  0.00     0.038 A 
BRANCH  19  22
HETATM   22  C17 UNK     1      17.697   9.506  33.728  1.00  0.00     0.155 C 
HETATM   23  C18 UNK     1      16.412   9.599  34.544  1.00  0.00     0.096 C 
HETATM   24  O5  UNK     1      18.440  10.506  33.682  1.00  0.00    -0.293 OA
ENDBRANCH  19  22
ENDBRANCH  15  16
ENDBRANCH  13  15
ENDBRANCH   7  13
TORSDOF 4
ENDMDL
MODEL 3
REMARK VINA RESULT:      -8.5      5.209     11.063
REMARK  4 active torsions:
REMARK  status: ('A' for Active; 'I' for Inactive)
REMARK    1  A    between atoms: C10_16  and  O2_3 
REMARK    2  A    between atoms: C8_14  and  O2_3 
REMARK    3  A    between atoms: C10_16  and  C4_10 
REMARK    4  A    between atoms: C12_18  and  C17_23 
ROOT
HETATM    1 Br1  UNK     1      20.552  -1.043  29.419  1.00  0.00    -0.051 Br
HETATM    2  O1  UNK     1      18.597  -0.911  35.160  1.00  0.00    -0.274 OA
HETATM    3  O3  UNK     1      18.537  -1.815  37.257  1.00  0.00    -0.259 OA
HETATM    4  C1  UNK     1      19.905  -1.995  33.422  1.00  0.00     0.000 A 
HETATM    5  C2  UNK     1      19.066  -0.965  33.833  1.00  0.00     0.089 A 
HETATM    6  C3  UNK     1      20.293  -3.014  34.385  1.00  0.00     0.038 A 
HETATM    7  C4  UNK     1      19.845  -2.957  35.644  1.00  0.00     0.116 A 
HETATM    8  C5  UNK     1      20.348  -2.015  32.097  1.00  0.00     0.033 A 
HETATM    9  C6  UNK     1      18.657   0.041  32.960  1.00  0.00     0.039 A 
HETATM   10  C7  UNK     1      18.950  -1.871  36.104  1.00  0.00     0.304 A 
HETATM   11  C9  UNK     1      19.949  -1.012  31.210  1.00  0.00     0.011 A 
HETATM   12  C11 UNK     1      19.105   0.015  31.641  1.00  0.00     0.022 A 
ENDROOT
BRANCH   7  13
HETATM   13  C10 UNK     1      20.291  -4.030  36.541  1.00  0.00     0.304 C 
HETATM   14  O4  UNK     1      21.325  -3.982  37.188  1.00  0.00    -0.259 OA
BRANCH  13  15
HETATM   15  O2  UNK     1      19.350  -5.041  36.499  1.00  0.00    -0.275 OA
BRANCH  15  16
HETATM   16  C8  UNK     1      19.913  -6.280  36.183  1.00  0.00     0.079 A 
HETATM   17  C13 UNK     1      20.192  -6.561  34.864  1.00  0.00     0.038 A 
HETATM   18  C15 UNK     1      20.755  -7.798  34.549  1.00  0.00     0.018 A 
HETATM   19  C12 UNK     1      21.024  -8.720  35.559  1.00  0.00     0.009 A 
HETATM   20  C16 UNK     1      20.730  -8.407  36.886  1.00  0.00     0.018 A 
HETATM   21  C14 UNK     1      20.167  -7.170  37.201  1.00  0.00     0.038 A 
BRANCH  19  22
HETATM   22  C17 UNK     1      21.610 -10.010  35.229  1.00  0.00     0.155 C 
HETATM   23  C18 UNK     1      22.084 -10.945  36.337  1.00  0.00     0.096 C 
HETATM   24  O5  UNK     1      21.741 -10.383  34.047  1.00  0.00    -0.293 OA
ENDBRANCH  19  22
ENDBRANCH  15  16
ENDBRANCH  13  15
ENDBRANCH   7  13
TORSDOF 4
ENDMDL
MODEL 4
REMARK VINA RESULT:      -8.4      2.071      2.896
REMARK  4 active torsions:
REMARK  status: ('A' for Active; 'I' for Inactive)
REMARK    1  A    between atoms: C10_16  and  O2_3 
REMARK    2  A    between atoms: C8_14  and  O2_3 
REMARK    3  A    between atoms: C10_16  and  C4_10 
REMARK    4  A    between atoms: C12_18  and  C17_23 
ROOT
HETATM    1 Br1  UNK     1      17.697  -0.590  37.547  1.00  0.00    -0.051 Br
HETATM    2  O1  UNK     1      18.950   0.263  31.673  1.00  0.00    -0.274 OA
HETATM    3  O3  UNK     1      19.116   1.643  29.859  1.00  0.00    -0.259 OA
HETATM    4  C1  UNK     1      18.250   1.176  33.815  1.00  0.00     0.000 A 
HETATM    5  C2  UNK     1      18.654   0.093  33.039  1.00  0.00     0.089 A 
HETATM    6  C3  UNK     1      18.141   2.486  33.193  1.00  0.00     0.038 A 
HETATM    7  C4  UNK     1      18.424   2.642  31.894  1.00  0.00     0.116 A 
HETATM    8  C5  UNK     1      17.964   0.966  35.166  1.00  0.00     0.033 A 
HETATM    9  C6  UNK     1      18.778  -1.187  33.574  1.00  0.00     0.039 A 
HETATM   10  C7  UNK     1      18.855   1.505  31.049  1.00  0.00     0.304 A 
HETATM   11  C9  UNK     1      18.085  -0.313  35.718  1.00  0.00     0.011 A 
HETATM   12  C11 UNK     1      18.492  -1.387  34.923  1.00  0.00     0.022 A 
ENDROOT
BRANCH   7  13
HETATM   13  C10 UNK     1      18.285   4.001  31.358  1.00  0.00     0.304 C 
HETATM   14  O4  UNK     1      18.973   4.442  30.451  1.00  0.00    -0.259 OA
BRANCH  13  15
HETATM   15  O2  UNK     1      17.274   4.633  32.056  1.00  0.00    -0.275 OA
BRANCH  15  16
HETATM   16  C8  UNK     1      17.652   5.899  32.511  1.00  0.00     0.079 A 
HETATM   17  C13 UNK     1      16.867   6.981  32.180  1.00  0.00     0.038 A 
HETATM   18  C15 UNK     1      17.243   8.245  32.636  1.00  0.00     0.018 A 
HETATM   19  C12 UNK     1      18.393   8.393  33.410  1.00  0.00     0.009 A 
HETATM   20  C16 UNK     1      19.168   7.278  33.729  1.00  0.00     0.018 A 
HETATM   21  C14 UNK     1      18.792   6.015  33.274  1.00  0.00     0.038 A 
BRANCH  19  22
HETATM   22  C17 UNK     1      18.786   9.711  33.884  1.00  0.00     0.155 C 
HETATM   23  C18 UNK     1      20.156   9.924  34.519  1.00  0.00     0.096 C 
HETATM   24  O5  UNK     1      18.023  10.693  33.786  1.00  0.00    -0.293 OA
ENDBRANCH  19  22
ENDBRANCH  15  16
ENDBRANCH  13  15
ENDBRANCH   7  13
TORSDOF 4
ENDMDL
MODEL 5
REMARK VINA RESULT:      -8.2     22.565     24.574
REMARK  4 active torsions:
REMARK  status: ('A' for Active; 'I' for Inactive)
REMARK    1  A    between atoms: C10_16  and  O2_3 
REMARK    2  A    between atoms: C8_14  and  O2_3 
REMARK    3  A    between atoms: C10_16  and  C4_10 
REMARK    4  A    between atoms: C12_18  and  C17_23 
ROOT
HETATM    1 Br1  UNK     1      19.392  12.192   9.747  1.00  0.00    -0.051 Br
HETATM    2  O1  UNK     1      14.128   9.406  10.903  1.00  0.00    -0.274 OA
HETATM    3  O3  UNK     1      12.844   7.516  10.916  1.00  0.00    -0.259 OA
HETATM    4  C1  UNK     1      16.421   9.293  10.103  1.00  0.00     0.000 A 
HETATM    5  C2  UNK     1      15.361  10.028  10.626  1.00  0.00     0.089 A 
HETATM    6  C3  UNK     1      16.236   7.873   9.850  1.00  0.00     0.038 A 
HETATM    7  C4  UNK     1      15.062   7.288  10.115  1.00  0.00     0.116 A 
HETATM    8  C5  UNK     1      17.628   9.946   9.841  1.00  0.00     0.033 A 
HETATM    9  C6  UNK     1      15.473  11.391  10.891  1.00  0.00     0.039 A 
HETATM   10  C7  UNK     1      13.920   8.049  10.671  1.00  0.00     0.304 A 
HETATM   11  C9  UNK     1      17.756  11.313  10.103  1.00  0.00     0.011 A 
HETATM   12  C11 UNK     1      16.680  12.034  10.628  1.00  0.00     0.022 A 
ENDROOT
BRANCH   7  13
HETATM   13  C10 UNK     1      14.973   5.852   9.826  1.00  0.00     0.304 C 
HETATM   14  O4  UNK     1      14.996   4.988  10.688  1.00  0.00    -0.259 OA
BRANCH  13  15
HETATM   15  O2  UNK     1      14.866   5.698   8.457  1.00  0.00    -0.275 OA
BRANCH  15  16
HETATM   16  C8  UNK     1      13.549   5.830   8.008  1.00  0.00     0.079 A 
HETATM   17  C13 UNK     1      13.260   6.817   7.092  1.00  0.00     0.038 A 
HETATM   18  C15 UNK     1      11.946   6.949   6.643  1.00  0.00     0.018 A 
HETATM   19  C12 UNK     1      10.956   6.091   7.121  1.00  0.00     0.009 A 
HETATM   20  C16 UNK     1      11.279   5.101   8.048  1.00  0.00     0.018 A 
HETATM   21  C14 UNK     1      12.594   4.969   8.497  1.00  0.00     0.038 A 
BRANCH  19  22
HETATM   22  C17 UNK     1       9.586   6.229   6.653  1.00  0.00     0.155 C 
HETATM   23  C18 UNK     1       8.420   6.037   7.617  1.00  0.00     0.096 C 
HETATM   24  O5  UNK     1       9.328   6.505   5.464  1.00  0.00    -0.293 OA
ENDBRANCH  19  22
ENDBRANCH  15  16
ENDBRANCH  13  15
ENDBRANCH   7  13
TORSDOF 4
ENDMDL
MODEL 6
REMARK VINA RESULT:      -8.2      2.471      3.869
REMARK  4 active torsions:
REMARK  status: ('A' for Active; 'I' for Inactive)
REMARK    1  A    between atoms: C10_16  and  O2_3 
REMARK    2  A    between atoms: C8_14  and  O2_3 
REMARK    3  A    between atoms: C10_16  and  C4_10 
REMARK    4  A    between atoms: C12_18  and  C17_23 
ROOT
HETATM    1 Br1  UNK     1      17.934  -0.382  37.861  1.00  0.00    -0.051 Br
HETATM    2  O1  UNK     1      18.491   1.263  32.049  1.00  0.00    -0.274 OA
HETATM    3  O3  UNK     1      18.575   2.890  30.446  1.00  0.00    -0.259 OA
HETATM    4  C1  UNK     1      18.191   1.889  34.379  1.00  0.00     0.000 A 
HETATM    5  C2  UNK     1      18.359   0.909  33.406  1.00  0.00     0.089 A 
HETATM    6  C3  UNK     1      18.154   3.285  33.973  1.00  0.00     0.038 A 
HETATM    7  C4  UNK     1      18.279   3.616  32.683  1.00  0.00     0.116 A 
HETATM    8  C5  UNK     1      18.063   1.497  35.714  1.00  0.00     0.033 A 
HETATM    9  C6  UNK     1      18.403  -0.446  33.728  1.00  0.00     0.039 A 
HETATM   10  C7  UNK     1      18.459   2.591  31.630  1.00  0.00     0.304 A 
HETATM   11  C9  UNK     1      18.107   0.142  36.053  1.00  0.00     0.011 A 
HETATM   12  C11 UNK     1      18.276  -0.828  35.062  1.00  0.00     0.022 A 
ENDROOT
BRANCH   7  13
HETATM   13  C10 UNK     1      18.230   5.050  32.372  1.00  0.00     0.304 C 
HETATM   14  O4  UNK     1      19.224   5.744  32.230  1.00  0.00    -0.259 OA
BRANCH  13  15
HETATM   15  O2  UNK     1      16.902   5.421  32.282  1.00  0.00    -0.275 OA
BRANCH  15  16
HETATM   16  C8  UNK     1      16.646   6.642  32.911  1.00  0.00     0.079 A 
HETATM   17  C13 UNK     1      16.087   7.661  32.172  1.00  0.00     0.038 A 
HETATM   18  C15 UNK     1      15.830   8.880  32.800  1.00  0.00     0.018 A 
HETATM   19  C12 UNK     1      16.140   9.049  34.149  1.00  0.00     0.009 A 
HETATM   20  C16 UNK     1      16.706   7.998  34.871  1.00  0.00     0.018 A 
HETATM   21  C14 UNK     1      16.962   6.779  34.243  1.00  0.00     0.038 A 
BRANCH  19  22
HETATM   22  C17 UNK     1      15.873  10.320  34.803  1.00  0.00     0.155 C 
HETATM   23  C18 UNK     1      16.545  11.596  34.307  1.00  0.00     0.096 C 
HETATM   24  O5  UNK     1      15.096  10.403  35.775  1.00  0.00    -0.293 OA
ENDBRANCH  19  22
ENDBRANCH  15  16
ENDBRANCH  13  15
ENDBRANCH   7  13
TORSDOF 4
ENDMDL
MODEL 7
REMARK VINA RESULT:      -8.1     14.103     17.320
REMARK  4 active torsions:
REMARK  status: ('A' for Active; 'I' for Inactive)
REMARK    1  A    between atoms: C10_16  and  O2_3 
REMARK    2  A    between atoms: C8_14  and  O2_3 
REMARK    3  A    between atoms: C10_16  and  C4_10 
REMARK    4  A    between atoms: C12_18  and  C17_23 
ROOT
HETATM    1 Br1  UNK     1      18.983   1.693  20.726  1.00  0.00    -0.051 Br
HETATM    2  O1  UNK     1      19.216   0.578  14.768  1.00  0.00    -0.274 OA
HETATM    3  O3  UNK     1      19.167  -0.895  13.021  1.00  0.00    -0.259 OA
HETATM    4  C1  UNK     1      18.998  -0.252  17.043  1.00  0.00     0.000 A 
HETATM    5  C2  UNK     1      19.159   0.808  16.156  1.00  0.00     0.089 A 
HETATM    6  C3  UNK     1      18.890  -1.602  16.513  1.00  0.00     0.038 A 
HETATM    7  C4  UNK     1      18.945  -1.815  15.194  1.00  0.00     0.116 A 
HETATM    8  C5  UNK     1      18.947   0.018  18.413  1.00  0.00     0.033 A 
HETATM    9  C6  UNK     1      19.269   2.125  16.599  1.00  0.00     0.039 A 
HETATM   10  C7  UNK     1      19.116  -0.704  14.231  1.00  0.00     0.304 A 
HETATM   11  C9  UNK     1      19.055   1.334  18.872  1.00  0.00     0.011 A 
HETATM   12  C11 UNK     1      19.215   2.385  17.966  1.00  0.00     0.022 A 
ENDROOT
BRANCH   7  13
HETATM   13  C10 UNK     1      18.826  -3.212  14.756  1.00  0.00     0.304 C 
HETATM   14  O4  UNK     1      17.850  -3.908  14.983  1.00  0.00    -0.259 OA
BRANCH  13  15
HETATM   15  O2  UNK     1      19.982  -3.546  14.078  1.00  0.00    -0.275 OA
BRANCH  15  16
HETATM   16  C8  UNK     1      21.030  -3.877  14.941  1.00  0.00     0.079 A 
HETATM   17  C13 UNK     1      21.051  -5.135  15.501  1.00  0.00     0.038 A 
HETATM   18  C15 UNK     1      22.098  -5.467  16.362  1.00  0.00     0.018 A 
HETATM   19  C12 UNK     1      23.094  -4.532  16.640  1.00  0.00     0.009 A 
HETATM   20  C16 UNK     1      23.046  -3.266  16.058  1.00  0.00     0.018 A 
HETATM   21  C14 UNK     1      21.999  -2.935  15.197  1.00  0.00     0.038 A 
BRANCH  19  22
HETATM   22  C17 UNK     1      24.184  -4.878  17.539  1.00  0.00     0.155 C 
HETATM   23  C18 UNK     1      25.630  -4.804  17.059  1.00  0.00     0.096 C 
HETATM   24  O5  UNK     1      23.971  -5.241  18.713  1.00  0.00    -0.293 OA
ENDBRANCH  19  22
ENDBRANCH  15  16
ENDBRANCH  13  15
ENDBRANCH   7  13
TORSDOF 4
ENDMDL
MODEL 8
REMARK VINA RESULT:      -8.1     23.010     25.426
REMARK  4 active torsions:
REMARK  status: ('A' for Active; 'I' for Inactive)
REMARK    1  A    between atoms: C10_16  and  O2_3 
REMARK    2  A    between atoms: C8_14  and  O2_3 
REMARK    3  A    between atoms: C10_16  and  C4_10 
REMARK    4  A    between atoms: C12_18  and  C17_23 
ROOT
HETATM    1 Br1  UNK     1      15.332  14.411   6.636  1.00  0.00    -0.051 Br
HETATM    2  O1  UNK     1      17.988   9.616   9.236  1.00  0.00    -0.274 OA
HETATM    3  O3  UNK     1      17.839   7.594  10.290  1.00  0.00    -0.259 OA
HETATM    4  C1  UNK     1      15.958  10.771   8.564  1.00  0.00     0.000 A 
HETATM    5  C2  UNK     1      17.346  10.717   8.637  1.00  0.00     0.089 A 
HETATM    6  C3  UNK     1      15.180   9.672   9.113  1.00  0.00     0.038 A 
HETATM    7  C4  UNK     1      15.796   8.628   9.681  1.00  0.00     0.116 A 
HETATM    8  C5  UNK     1      15.358  11.881   7.963  1.00  0.00     0.033 A 
HETATM    9  C6  UNK     1      18.148  11.737   8.130  1.00  0.00     0.039 A 
HETATM   10  C7  UNK     1      17.271   8.549   9.771  1.00  0.00     0.304 A 
HETATM   11  C9  UNK     1      16.149  12.912   7.448  1.00  0.00     0.011 A 
HETATM   12  C11 UNK     1      17.542  12.840   7.531  1.00  0.00     0.022 A 
ENDROOT
BRANCH   7  13
HETATM   13  C10 UNK     1      14.926   7.569  10.206  1.00  0.00     0.304 C 
HETATM   14  O4  UNK     1      14.368   7.630  11.289  1.00  0.00    -0.259 OA
BRANCH  13  15
HETATM   15  O2  UNK     1      14.879   6.553   9.271  1.00  0.00    -0.275 OA
BRANCH  15  16
HETATM   16  C8  UNK     1      13.610   6.409   8.704  1.00  0.00     0.079 A 
HETATM   17  C13 UNK     1      12.654   5.700   9.398  1.00  0.00     0.038 A 
HETATM   18  C15 UNK     1      11.386   5.557   8.833  1.00  0.00     0.018 A 
HETATM   19  C12 UNK     1      11.108   6.125   7.591  1.00  0.00     0.009 A 
HETATM   20  C16 UNK     1      12.097   6.837   6.912  1.00  0.00     0.018 A 
HETATM   21  C14 UNK     1      13.364   6.980   7.477  1.00  0.00     0.038 A 
BRANCH  19  22
HETATM   22  C17 UNK     1       9.787   5.975   7.002  1.00  0.00     0.155 C 
HETATM   23  C18 UNK     1       9.507   6.495   5.596  1.00  0.00     0.096 C 
HETATM   24  O5  UNK     1       8.856   5.423   7.622  1.00  0.00    -0.293 OA
ENDBRANCH  19  22
ENDBRANCH  15  16
ENDBRANCH  13  15
ENDBRANCH   7  13
TORSDOF 4
ENDMDL
MODEL 9
REMARK VINA RESULT:      -8.1      5.372     11.195
REMARK  4 active torsions:
REMARK  status: ('A' for Active; 'I' for Inactive)
REMARK    1  A    between atoms: C10_16  and  O2_3 
REMARK    2  A    between atoms: C8_14  and  O2_3 
REMARK    3  A    between atoms: C10_16  and  C4_10 
REMARK    4  A    between atoms: C12_18  and  C17_23 
ROOT
HETATM    1 Br1  UNK     1      15.950   2.096  37.565  1.00  0.00    -0.051 Br
HETATM    2  O1  UNK     1      19.503  -1.484  34.194  1.00  0.00    -0.274 OA
HETATM    3  O3  UNK     1      20.782  -3.365  33.968  1.00  0.00    -0.259 OA
HETATM    4  C1  UNK     1      18.407  -1.027  36.315  1.00  0.00     0.000 A 
HETATM    5  C2  UNK     1      18.681  -0.671  34.999  1.00  0.00     0.089 A 
HETATM    6  C3  UNK     1      18.981  -2.253  36.847  1.00  0.00     0.038 A 
HETATM    7  C4  UNK     1      19.761  -3.021  36.079  1.00  0.00     0.116 A 
HETATM    8  C5  UNK     1      17.588  -0.194  37.082  1.00  0.00     0.033 A 
HETATM    9  C6  UNK     1      18.162   0.489  34.429  1.00  0.00     0.039 A 
HETATM   10  C7  UNK     1      20.068  -2.663  34.676  1.00  0.00     0.304 A 
HETATM   11  C9  UNK     1      17.058   0.973  36.523  1.00  0.00     0.011 A 
HETATM   12  C11 UNK     1      17.345   1.314  35.199  1.00  0.00     0.022 A 
ENDROOT
BRANCH   7  13
HETATM   13  C10 UNK     1      20.294  -4.238  36.705  1.00  0.00     0.304 C 
HETATM   14  O4  UNK     1      21.367  -4.284  37.283  1.00  0.00    -0.259 OA
BRANCH  13  15
HETATM   15  O2  UNK     1      19.377  -5.253  36.511  1.00  0.00    -0.275 OA
BRANCH  15  16
HETATM   16  C8  UNK     1      19.986  -6.462  36.165  1.00  0.00     0.079 A 
HETATM   17  C13 UNK     1      20.293  -7.357  37.165  1.00  0.00     0.038 A 
HETATM   18  C15 UNK     1      20.901  -8.565  36.819  1.00  0.00     0.018 A 
HETATM   19  C12 UNK     1      21.186  -8.845  35.484  1.00  0.00     0.009 A 
HETATM   20  C16 UNK     1      20.863  -7.918  34.493  1.00  0.00     0.018 A 
HETATM   21  C14 UNK     1      20.256  -6.711  34.839  1.00  0.00     0.038 A 
BRANCH  19  22
HETATM   22  C17 UNK     1      21.820 -10.103  35.124  1.00  0.00     0.155 C 
HETATM   23  C18 UNK     1      22.670 -10.855  36.143  1.00  0.00     0.096 C 
HETATM   24  O5  UNK     1      21.688 -10.597  33.986  1.00  0.00    -0.293 OA
ENDBRANCH  19  22
ENDBRANCH  15  16
ENDBRANCH  13  15
ENDBRANCH   7  13
TORSDOF 4
ENDMDL
MODEL 10
REMARK VINA RESULT:      -8.0     22.541     24.454
REMARK  4 active torsions:
REMARK  status: ('A' for Active; 'I' for Inactive)
REMARK    1  A    between atoms: C10_16  and  O2_3 
REMARK    2  A    between atoms: C8_14  and  O2_3 
REMARK    3  A    between atoms: C10_16  and  C4_10 
REMARK    4  A    between atoms: C12_18  and  C17_23 
ROOT
HETATM    1 Br1  UNK     1      14.242  13.331  11.534  1.00  0.00    -0.051 Br
HETATM    2  O1  UNK     1      17.764   8.712   9.783  1.00  0.00    -0.274 OA
HETATM    3  O3  UNK     1      18.031   6.498   9.284  1.00  0.00    -0.259 OA
HETATM    4  C1  UNK     1      15.581   9.533  10.468  1.00  0.00     0.000 A 
HETATM    5  C2  UNK     1      16.924   9.766  10.191  1.00  0.00     0.089 A 
HETATM    6  C3  UNK     1      15.057   8.183  10.327  1.00  0.00     0.038 A 
HETATM    7  C4  UNK     1      15.860   7.185   9.939  1.00  0.00     0.116 A 
HETATM    8  C5  UNK     1      14.780  10.604  10.871  1.00  0.00     0.033 A 
HETATM    9  C6  UNK     1      17.487  11.035  10.307  1.00  0.00     0.039 A 
HETATM   10  C7  UNK     1      17.292   7.410   9.640  1.00  0.00     0.304 A 
HETATM   11  C9  UNK     1      15.330  11.884  10.989  1.00  0.00     0.011 A 
HETATM   12  C11 UNK     1      16.682  12.099  10.708  1.00  0.00     0.022 A 
ENDROOT
BRANCH   7  13
HETATM   13  C10 UNK     1      15.240   5.860   9.826  1.00  0.00     0.304 C 
HETATM   14  O4  UNK     1      14.930   5.176  10.789  1.00  0.00    -0.259 OA
BRANCH  13  15
HETATM   15  O2  UNK     1      15.091   5.571   8.483  1.00  0.00    -0.275 OA
BRANCH  15  16
HETATM   16  C8  UNK     1      13.774   5.731   8.047  1.00  0.00     0.079 A 
HETATM   17  C13 UNK     1      13.484   6.766   7.185  1.00  0.00     0.038 A 
HETATM   18  C15 UNK     1      12.169   6.925   6.748  1.00  0.00     0.018 A 
HETATM   19  C12 UNK     1      11.178   6.046   7.183  1.00  0.00     0.009 A 
HETATM   20  C16 UNK     1      11.502   5.007   8.056  1.00  0.00     0.018 A 
HETATM   21  C14 UNK     1      12.817   4.848   8.493  1.00  0.00     0.038 A 
BRANCH  19  22
HETATM   22  C17 UNK     1       9.807   6.213   6.728  1.00  0.00     0.155 C 
HETATM   23  C18 UNK     1       8.647   6.041   7.703  1.00  0.00     0.096 C 
HETATM   24  O5  UNK     1       9.544   6.498   5.543  1.00  0.00    -0.293 OA
ENDBRANCH  19  22
ENDBRANCH  15  16
ENDBRANCH  13  15
ENDBRANCH   7  13
TORSDOF 4
ENDMDL
