MODEL 1
REMARK VINA RESULT:      -9.7      0.000      0.000
REMARK  4 active torsions:
REMARK  status: ('A' for Active; 'I' for Inactive)
REMARK    1  A    between atoms: C11_19  and  O2_4 
REMARK       I    between atoms: C15_23  and  N1_7 
REMARK    2  A    between atoms: C7_15  and  N1_7 
REMARK    3  A    between atoms: C3_11  and  C9_17 
REMARK    4  A    between atoms: C13_21  and  C15_23 
ROOT
HETATM    1  N2  UNK     1      20.582   5.757  30.535  1.00  0.00    -0.191 NA
HETATM    2  C9  UNK     1      17.924   3.881  31.800  1.00  0.00     0.045 C 
HETATM    3  C13 UNK     1      18.451   5.121  31.862  1.00  0.00     0.113 C 
HETATM    4  C19 UNK     1      19.627   5.468  31.128  1.00  0.00     0.105 C 
ENDROOT
BRANCH   3   5
HETATM    5  C15 UNK     1      17.744   6.123  32.749  1.00  0.00     0.266 C 
HETATM    6  O4  UNK     1      17.343   5.793  33.862  1.00  0.00    -0.267 OA
HETATM    7  N1  UNK     1      17.615   7.382  32.173  1.00  0.00    -0.320 N 
HETATM    8  H6  UNK     1      17.983   7.533  31.237  1.00  0.00     0.169 HD
BRANCH   7   9
HETATM    9  C7  UNK     1      17.007   8.532  32.740  1.00  0.00     0.070 A 
HETATM   10  C11 UNK     1      15.643   8.723  32.611  1.00  0.00     0.095 A 
HETATM   11  C16 UNK     1      15.058   9.859  33.174  1.00  0.00     0.041 A 
HETATM   12  C18 UNK     1      15.848  10.784  33.857  1.00  0.00     0.026 A 
HETATM   13  C17 UNK     1      17.221  10.574  33.977  1.00  0.00     0.036 A 
HETATM   14  C14 UNK     1      17.806   9.439  33.413  1.00  0.00     0.056 A 
HETATM   15 Cl2  UNK     1      18.195  11.716  34.819  1.00  0.00    -0.084 Cl
BRANCH  10  16
HETATM   16  O2  UNK     1      14.853   7.832  31.948  1.00  0.00    -0.354 OA
HETATM   17  C20 UNK     1      13.807   7.213  32.693  1.00  0.00     0.210 C 
ENDBRANCH  10  16
ENDBRANCH   7   9
ENDBRANCH   3   5
BRANCH   2  18
HETATM   18  C3  UNK     1      18.425   2.772  31.032  1.00  0.00     0.039 A 
HETATM   19  C4  UNK     1      18.897   1.536  31.710  1.00  0.00     0.197 A 
HETATM   20  C1  UNK     1      19.391   0.457  30.834  1.00  0.00     0.050 A 
HETATM   21  O3  UNK     1      18.884   1.408  32.927  1.00  0.00    -0.286 OA
HETATM   22  C2  UNK     1      19.387   0.647  29.452  1.00  0.00     0.089 A 
HETATM   23  C5  UNK     1      19.857  -0.745  31.377  1.00  0.00     0.042 A 
HETATM   24  O1  UNK     1      18.942   1.805  28.867  1.00  0.00    -0.321 OA
HETATM   25  C6  UNK     1      19.849  -0.361  28.605  1.00  0.00     0.040 A 
HETATM   26  C8  UNK     1      18.485   2.802  29.693  1.00  0.00     0.158 A 
HETATM   27  C12 UNK     1      20.314  -1.560  29.145  1.00  0.00     0.026 A 
HETATM   28  C10 UNK     1      20.318  -1.751  30.528  1.00  0.00     0.035 A 
HETATM   29 Cl1  UNK     1      20.894  -3.234  31.186  1.00  0.00    -0.084 Cl
ENDBRANCH   2  18
TORSDOF 4
ENDMDL
MODEL 2
REMARK VINA RESULT:      -9.7      1.324      2.011
REMARK  4 active torsions:
REMARK  status: ('A' for Active; 'I' for Inactive)
REMARK    1  A    between atoms: C11_19  and  O2_4 
REMARK       I    between atoms: C15_23  and  N1_7 
REMARK    2  A    between atoms: C7_15  and  N1_7 
REMARK    3  A    between atoms: C3_11  and  C9_17 
REMARK    4  A    between atoms: C13_21  and  C15_23 
ROOT
HETATM    1  N2  UNK     1      20.163   5.833  30.061  1.00  0.00    -0.191 NA
HETATM    2  C9  UNK     1      17.928   3.791  31.798  1.00  0.00     0.045 C 
HETATM    3  C13 UNK     1      18.328   5.076  31.724  1.00  0.00     0.113 C 
HETATM    4  C19 UNK     1      19.341   5.490  30.804  1.00  0.00     0.105 C 
ENDROOT
BRANCH   3   5
HETATM    5  C15 UNK     1      17.661   6.058  32.663  1.00  0.00     0.266 C 
HETATM    6  O4  UNK     1      17.237   5.684  33.754  1.00  0.00    -0.267 OA
HETATM    7  N1  UNK     1      17.592   7.352  32.159  1.00  0.00    -0.320 N 
HETATM    8  H6  UNK     1      17.973   7.538  31.236  1.00  0.00     0.169 HD
BRANCH   7   9
HETATM    9  C7  UNK     1      17.033   8.494  32.788  1.00  0.00     0.070 A 
HETATM   10  C11 UNK     1      17.820   9.286  33.604  1.00  0.00     0.095 A 
HETATM   11  C16 UNK     1      17.256  10.406  34.216  1.00  0.00     0.041 A 
HETATM   12  C18 UNK     1      15.913  10.716  34.002  1.00  0.00     0.026 A 
HETATM   13  C17 UNK     1      15.134   9.905  33.176  1.00  0.00     0.036 A 
HETATM   14  C14 UNK     1      15.698   8.785  32.565  1.00  0.00     0.056 A 
HETATM   15 Cl2  UNK     1      13.477  10.287  32.913  1.00  0.00    -0.084 Cl
BRANCH  10  16
HETATM   16  O2  UNK     1      19.135   9.002  33.827  1.00  0.00    -0.354 OA
HETATM   17  C20 UNK     1      19.440   8.204  34.968  1.00  0.00     0.210 C 
ENDBRANCH  10  16
ENDBRANCH   7   9
ENDBRANCH   3   5
BRANCH   2  18
HETATM   18  C3  UNK     1      18.421   2.691  31.012  1.00  0.00     0.039 A 
HETATM   19  C4  UNK     1      18.925   1.457  31.673  1.00  0.00     0.197 A 
HETATM   20  C1  UNK     1      19.408   0.387  30.780  1.00  0.00     0.050 A 
HETATM   21  O3  UNK     1      18.945   1.324  32.890  1.00  0.00    -0.286 OA
HETATM   22  C2  UNK     1      19.366   0.584  29.399  1.00  0.00     0.089 A 
HETATM   23  C5  UNK     1      19.902  -0.811  31.305  1.00  0.00     0.042 A 
HETATM   24  O1  UNK     1      18.892   1.738  28.830  1.00  0.00    -0.321 OA
HETATM   25  C6  UNK     1      19.817  -0.416  28.536  1.00  0.00     0.040 A 
HETATM   26  C8  UNK     1      18.446   2.727  29.673  1.00  0.00     0.158 A 
HETATM   27  C12 UNK     1      20.309  -1.612  29.058  1.00  0.00     0.026 A 
HETATM   28  C10 UNK     1      20.352  -1.808  30.439  1.00  0.00     0.035 A 
HETATM   29 Cl1  UNK     1      20.961  -3.287  31.076  1.00  0.00    -0.084 Cl
ENDBRANCH   2  18
TORSDOF 4
ENDMDL
MODEL 3
REMARK VINA RESULT:      -9.6      1.589      9.366
REMARK  4 active torsions:
REMARK  status: ('A' for Active; 'I' for Inactive)
REMARK    1  A    between atoms: C11_19  and  O2_4 
REMARK       I    between atoms: C15_23  and  N1_7 
REMARK    2  A    between atoms: C7_15  and  N1_7 
REMARK    3  A    between atoms: C3_11  and  C9_17 
REMARK    4  A    between atoms: C13_21  and  C15_23 
ROOT
HETATM    1  N2  UNK     1      19.583   5.693  30.057  1.00  0.00    -0.191 NA
HETATM    2  C9  UNK     1      17.800   4.676  32.880  1.00  0.00     0.045 C 
HETATM    3  C13 UNK     1      18.457   4.166  31.819  1.00  0.00     0.113 C 
HETATM    4  C19 UNK     1      19.077   5.012  30.849  1.00  0.00     0.105 C 
ENDROOT
BRANCH   3   5
HETATM    5  C15 UNK     1      18.500   2.658  31.700  1.00  0.00     0.266 C 
HETATM    6  O4  UNK     1      17.793   1.957  32.421  1.00  0.00    -0.267 OA
HETATM    7  N1  UNK     1      19.389   2.201  30.733  1.00  0.00    -0.320 N 
HETATM    8  H6  UNK     1      19.927   2.880  30.203  1.00  0.00     0.169 HD
BRANCH   7   9
HETATM    9  C7  UNK     1      19.661   0.854  30.379  1.00  0.00     0.070 A 
HETATM   10  C11 UNK     1      19.422   0.421  29.087  1.00  0.00     0.095 A 
HETATM   11  C16 UNK     1      19.693  -0.907  28.753  1.00  0.00     0.041 A 
HETATM   12  C18 UNK     1      20.200  -1.779  29.716  1.00  0.00     0.026 A 
HETATM   13  C17 UNK     1      20.434  -1.324  31.013  1.00  0.00     0.036 A 
HETATM   14  C14 UNK     1      20.162   0.003  31.348  1.00  0.00     0.056 A 
HETATM   15 Cl2  UNK     1      21.059  -2.401  32.202  1.00  0.00    -0.084 Cl
BRANCH  10  16
HETATM   16  O2  UNK     1      18.927   1.256  28.130  1.00  0.00    -0.354 OA
HETATM   17  C20 UNK     1      17.562   1.650  28.256  1.00  0.00     0.210 C 
ENDBRANCH  10  16
ENDBRANCH   7   9
ENDBRANCH   3   5
BRANCH   2  18
HETATM   18  C3  UNK     1      17.627   6.070  33.194  1.00  0.00     0.039 A 
HETATM   19  C4  UNK     1      16.381   6.783  32.804  1.00  0.00     0.197 A 
HETATM   20  C1  UNK     1      16.301   8.209  33.171  1.00  0.00     0.050 A 
HETATM   21  O3  UNK     1      15.466   6.229  32.209  1.00  0.00    -0.286 OA
HETATM   22  C2  UNK     1      17.369   8.797  33.849  1.00  0.00     0.089 A 
HETATM   23  C5  UNK     1      15.171   8.966  32.848  1.00  0.00     0.042 A 
HETATM   24  O1  UNK     1      18.500   8.103  34.191  1.00  0.00    -0.321 OA
HETATM   25  C6  UNK     1      17.313  10.145  34.208  1.00  0.00     0.040 A 
HETATM   26  C8  UNK     1      18.564   6.776  33.843  1.00  0.00     0.158 A 
HETATM   27  C12 UNK     1      16.186  10.901  33.886  1.00  0.00     0.026 A 
HETATM   28  C10 UNK     1      15.118  10.313  33.208  1.00  0.00     0.035 A 
HETATM   29 Cl1  UNK     1      13.730  11.253  32.814  1.00  0.00    -0.084 Cl
ENDBRANCH   2  18
TORSDOF 4
ENDMDL
MODEL 4
REMARK VINA RESULT:      -9.4      6.503     11.537
REMARK  4 active torsions:
REMARK  status: ('A' for Active; 'I' for Inactive)
REMARK    1  A    between atoms: C11_19  and  O2_4 
REMARK       I    between atoms: C15_23  and  N1_7 
REMARK    2  A    between atoms: C7_15  and  N1_7 
REMARK    3  A    between atoms: C3_11  and  C9_17 
REMARK    4  A    between atoms: C13_21  and  C15_23 
ROOT
HETATM    1  N2  UNK     1      21.209  -2.439  33.671  1.00  0.00    -0.191 NA
HETATM    2  C9  UNK     1      18.867  -1.093  35.882  1.00  0.00     0.045 C 
HETATM    3  C13 UNK     1      19.711  -2.137  35.761  1.00  0.00     0.113 C 
HETATM    4  C19 UNK     1      20.536  -2.300  34.606  1.00  0.00     0.105 C 
ENDROOT
BRANCH   3   5
HETATM    5  C15 UNK     1      19.738  -3.131  36.903  1.00  0.00     0.266 C 
HETATM    6  O4  UNK     1      19.660  -2.744  38.066  1.00  0.00    -0.267 OA
HETATM    7  N1  UNK     1      19.858  -4.453  36.487  1.00  0.00    -0.320 N 
HETATM    8  H6  UNK     1      19.922  -4.649  35.492  1.00  0.00     0.169 HD
BRANCH   7   9
HETATM    9  C7  UNK     1      19.912  -5.612  37.303  1.00  0.00     0.070 A 
HETATM   10  C11 UNK     1      18.873  -6.525  37.272  1.00  0.00     0.095 A 
HETATM   11  C16 UNK     1      18.939  -7.661  38.081  1.00  0.00     0.041 A 
HETATM   12  C18 UNK     1      20.044  -7.865  38.906  1.00  0.00     0.026 A 
HETATM   13  C17 UNK     1      21.082  -6.934  38.925  1.00  0.00     0.036 A 
HETATM   14  C14 UNK     1      21.016  -5.798  38.117  1.00  0.00     0.056 A 
HETATM   15 Cl2  UNK     1      22.445  -7.187  39.945  1.00  0.00    -0.084 Cl
BRANCH  10  16
HETATM   16  O2  UNK     1      17.783  -6.344  36.473  1.00  0.00    -0.354 OA
HETATM   17  C20 UNK     1      17.522  -7.350  35.496  1.00  0.00     0.210 C 
ENDBRANCH  10  16
ENDBRANCH   7   9
ENDBRANCH   3   5
BRANCH   2  18
HETATM   18  C3  UNK     1      18.670  -0.034  34.928  1.00  0.00     0.039 A 
HETATM   19  C4  UNK     1      18.717   1.389  35.359  1.00  0.00     0.197 A 
HETATM   20  C1  UNK     1      18.504   2.400  34.306  1.00  0.00     0.050 A 
HETATM   21  O3  UNK     1      18.919   1.717  36.521  1.00  0.00    -0.286 OA
HETATM   22  C2  UNK     1      18.279   1.979  32.996  1.00  0.00     0.089 A 
HETATM   23  C5  UNK     1      18.530   3.764  34.612  1.00  0.00     0.042 A 
HETATM   24  O1  UNK     1      18.244   0.655  32.640  1.00  0.00    -0.321 OA
HETATM   25  C6  UNK     1      18.076   2.919  31.984  1.00  0.00     0.040 A 
HETATM   26  C8  UNK     1      18.442  -0.276  33.629  1.00  0.00     0.158 A 
HETATM   27  C12 UNK     1      18.101   4.280  32.287  1.00  0.00     0.026 A 
HETATM   28  C10 UNK     1      18.327   4.701  33.598  1.00  0.00     0.035 A 
HETATM   29 Cl1  UNK     1      18.356   6.383  33.964  1.00  0.00    -0.084 Cl
ENDBRANCH   2  18
TORSDOF 4
ENDMDL
MODEL 5
REMARK VINA RESULT:      -9.1      1.817      9.353
REMARK  4 active torsions:
REMARK  status: ('A' for Active; 'I' for Inactive)
REMARK    1  A    between atoms: C11_19  and  O2_4 
REMARK       I    between atoms: C15_23  and  N1_7 
REMARK    2  A    between atoms: C7_15  and  N1_7 
REMARK    3  A    between atoms: C3_11  and  C9_17 
REMARK    4  A    between atoms: C13_21  and  C15_23 
ROOT
HETATM    1  N2  UNK     1      19.691   6.092  29.746  1.00  0.00    -0.191 NA
HETATM    2  C9  UNK     1      17.615   4.976  32.321  1.00  0.00     0.045 C 
HETATM    3  C13 UNK     1      18.298   4.514  31.254  1.00  0.00     0.113 C 
HETATM    4  C19 UNK     1      19.066   5.388  30.424  1.00  0.00     0.105 C 
ENDROOT
BRANCH   3   5
HETATM    5  C15 UNK     1      18.207   3.029  30.972  1.00  0.00     0.266 C 
HETATM    6  O4  UNK     1      17.437   2.605  30.114  1.00  0.00    -0.267 OA
HETATM    7  N1  UNK     1      19.053   2.260  31.764  1.00  0.00    -0.320 N 
HETATM    8  H6  UNK     1      19.642   2.727  32.448  1.00  0.00     0.169 HD
BRANCH   7   9
HETATM    9  C7  UNK     1      19.205   0.850  31.746  1.00  0.00     0.070 A 
HETATM   10  C11 UNK     1      18.630   0.083  32.744  1.00  0.00     0.095 A 
HETATM   11  C16 UNK     1      18.788  -1.304  32.713  1.00  0.00     0.041 A 
HETATM   12  C18 UNK     1      19.518  -1.900  31.686  1.00  0.00     0.026 A 
HETATM   13  C17 UNK     1      20.091  -1.111  30.689  1.00  0.00     0.036 A 
HETATM   14  C14 UNK     1      19.934   0.275  30.719  1.00  0.00     0.056 A 
HETATM   15 Cl2  UNK     1      20.993  -1.847  29.421  1.00  0.00    -0.084 Cl
BRANCH  10  16
HETATM   16  O2  UNK     1      17.913   0.645  33.757  1.00  0.00    -0.354 OA
HETATM   17  C20 UNK     1      17.246  -0.244  34.651  1.00  0.00     0.210 C 
ENDBRANCH  10  16
ENDBRANCH   7   9
ENDBRANCH   3   5
BRANCH   2  18
HETATM   18  C3  UNK     1      17.552   6.340  32.774  1.00  0.00     0.039 A 
HETATM   19  C4  UNK     1      16.316   7.144  32.579  1.00  0.00     0.197 A 
HETATM   20  C1  UNK     1      16.351   8.531  33.079  1.00  0.00     0.050 A 
HETATM   21  O3  UNK     1      15.317   6.693  32.034  1.00  0.00    -0.286 OA
HETATM   22  C2  UNK     1      17.511   9.002  33.694  1.00  0.00     0.089 A 
HETATM   23  C5  UNK     1      15.239   9.367  32.943  1.00  0.00     0.042 A 
HETATM   24  O1  UNK     1      18.631   8.227  33.855  1.00  0.00    -0.321 OA
HETATM   25  C6  UNK     1      17.566  10.311  34.176  1.00  0.00     0.040 A 
HETATM   26  C8  UNK     1      18.585   6.937  33.384  1.00  0.00     0.158 A 
HETATM   27  C12 UNK     1      16.457  11.146  34.041  1.00  0.00     0.026 A 
HETATM   28  C10 UNK     1      15.296  10.675  33.425  1.00  0.00     0.035 A 
HETATM   29 Cl1  UNK     1      13.932  11.712  33.262  1.00  0.00    -0.084 Cl
ENDBRANCH   2  18
TORSDOF 4
ENDMDL
MODEL 6
REMARK VINA RESULT:      -9.0      1.702      2.567
REMARK  4 active torsions:
REMARK  status: ('A' for Active; 'I' for Inactive)
REMARK    1  A    between atoms: C11_19  and  O2_4 
REMARK       I    between atoms: C15_23  and  N1_7 
REMARK    2  A    between atoms: C7_15  and  N1_7 
REMARK    3  A    between atoms: C3_11  and  C9_17 
REMARK    4  A    between atoms: C13_21  and  C15_23 
ROOT
HETATM    1  N2  UNK     1      20.941   6.231  32.806  1.00  0.00    -0.191 NA
HETATM    2  C9  UNK     1      17.593   5.400  32.270  1.00  0.00     0.045 C 
HETATM    3  C13 UNK     1      18.385   6.473  32.469  1.00  0.00     0.113 C 
HETATM    4  C19 UNK     1      19.796   6.335  32.654  1.00  0.00     0.105 C 
ENDROOT
BRANCH   3   5
HETATM    5  C15 UNK     1      17.710   7.827  32.495  1.00  0.00     0.266 C 
HETATM    6  O4  UNK     1      17.057   8.215  31.529  1.00  0.00    -0.267 OA
HETATM    7  N1  UNK     1      17.916   8.530  33.678  1.00  0.00    -0.320 N 
HETATM    8  H6  UNK     1      18.484   8.105  34.407  1.00  0.00     0.169 HD
BRANCH   7   9
HETATM    9  C7  UNK     1      17.422   9.816  34.014  1.00  0.00     0.070 A 
HETATM   10  C11 UNK     1      16.156   9.947  34.558  1.00  0.00     0.095 A 
HETATM   11  C16 UNK     1      15.684  11.220  34.884  1.00  0.00     0.041 A 
HETATM   12  C18 UNK     1      16.484  12.339  34.661  1.00  0.00     0.026 A 
HETATM   13  C17 UNK     1      17.757  12.188  34.112  1.00  0.00     0.036 A 
HETATM   14  C14 UNK     1      18.230  10.916  33.786  1.00  0.00     0.056 A 
HETATM   15 Cl2  UNK     1      18.745  13.570  33.837  1.00  0.00    -0.084 Cl
BRANCH  10  16
HETATM   16  O2  UNK     1      15.357   8.867  34.784  1.00  0.00    -0.354 OA
HETATM   17  C20 UNK     1      14.296   8.641  33.859  1.00  0.00     0.210 C 
ENDBRANCH  10  16
ENDBRANCH   7   9
ENDBRANCH   3   5
BRANCH   2  18
HETATM   18  C3  UNK     1      18.011   4.024  32.211  1.00  0.00     0.039 A 
HETATM   19  C4  UNK     1      18.497   3.437  30.934  1.00  0.00     0.197 A 
HETATM   20  C1  UNK     1      18.902   2.019  30.977  1.00  0.00     0.050 A 
HETATM   21  O3  UNK     1      18.561   4.082  29.896  1.00  0.00    -0.286 OA
HETATM   22  C2  UNK     1      18.811   1.323  32.183  1.00  0.00     0.089 A 
HETATM   23  C5  UNK     1      19.372   1.376  29.828  1.00  0.00     0.042 A 
HETATM   24  O1  UNK     1      18.358   1.904  33.340  1.00  0.00    -0.321 OA
HETATM   25  C6  UNK     1      19.190  -0.018  32.247  1.00  0.00     0.040 A 
HETATM   26  C8  UNK     1      17.983   3.224  33.286  1.00  0.00     0.158 A 
HETATM   27  C12 UNK     1      19.660  -0.661  31.102  1.00  0.00     0.026 A 
HETATM   28  C10 UNK     1      19.750   0.035  29.896  1.00  0.00     0.035 A 
HETATM   29 Cl1  UNK     1      20.331  -0.765  28.486  1.00  0.00    -0.084 Cl
ENDBRANCH   2  18
TORSDOF 4
ENDMDL
MODEL 7
REMARK VINA RESULT:      -8.9     22.704     24.205
REMARK  4 active torsions:
REMARK  status: ('A' for Active; 'I' for Inactive)
REMARK    1  A    between atoms: C11_19  and  O2_4 
REMARK       I    between atoms: C15_23  and  N1_7 
REMARK    2  A    between atoms: C7_15  and  N1_7 
REMARK    3  A    between atoms: C3_11  and  C9_17 
REMARK    4  A    between atoms: C13_21  and  C15_23 
ROOT
HETATM    1  N2  UNK     1      11.828   6.512   5.973  1.00  0.00    -0.191 NA
HETATM    2  C9  UNK     1      11.537   5.853   9.389  1.00  0.00     0.045 C 
HETATM    3  C13 UNK     1      10.795   5.886   8.263  1.00  0.00     0.113 C 
HETATM    4  C19 UNK     1      11.369   6.232   7.001  1.00  0.00     0.105 C 
ENDROOT
BRANCH   3   5
HETATM    5  C15 UNK     1       9.326   5.548   8.400  1.00  0.00     0.266 C 
HETATM    6  O4  UNK     1       8.601   5.511   7.409  1.00  0.00    -0.267 OA
HETATM    7  N1  UNK     1       8.931   5.303   9.711  1.00  0.00    -0.320 N 
HETATM    8  H6  UNK     1       9.624   5.372  10.452  1.00  0.00     0.169 HD
BRANCH   7   9
HETATM    9  C7  UNK     1       7.633   4.963  10.172  1.00  0.00     0.070 A 
HETATM   10  C11 UNK     1       6.849   5.920  10.791  1.00  0.00     0.095 A 
HETATM   11  C16 UNK     1       5.575   5.571  11.239  1.00  0.00     0.041 A 
HETATM   12  C18 UNK     1       5.105   4.270  11.061  1.00  0.00     0.026 A 
HETATM   13  C17 UNK     1       5.909   3.318  10.434  1.00  0.00     0.036 A 
HETATM   14  C14 UNK     1       7.184   3.667   9.987  1.00  0.00     0.056 A 
HETATM   15 Cl2  UNK     1       5.329   1.713  10.215  1.00  0.00    -0.084 Cl
BRANCH  10  16
HETATM   16  O2  UNK     1       7.289   7.197  10.976  1.00  0.00    -0.354 OA
HETATM   17  C20 UNK     1       6.296   8.211  11.112  1.00  0.00     0.210 C 
ENDBRANCH  10  16
ENDBRANCH   7   9
ENDBRANCH   3   5
BRANCH   2  18
HETATM   18  C3  UNK     1      12.943   6.139   9.499  1.00  0.00     0.039 A 
HETATM   19  C4  UNK     1      13.417   7.539   9.671  1.00  0.00     0.197 A 
HETATM   20  C1  UNK     1      14.876   7.728   9.774  1.00  0.00     0.050 A 
HETATM   21  O3  UNK     1      12.649   8.491   9.724  1.00  0.00    -0.286 OA
HETATM   22  C2  UNK     1      15.712   6.613   9.709  1.00  0.00     0.089 A 
HETATM   23  C5  UNK     1      15.420   9.006   9.938  1.00  0.00     0.042 A 
HETATM   24  O1  UNK     1      15.233   5.338   9.550  1.00  0.00    -0.321 OA
HETATM   25  C6  UNK     1      17.095   6.769   9.806  1.00  0.00     0.040 A 
HETATM   26  C8  UNK     1      13.873   5.175   9.454  1.00  0.00     0.158 A 
HETATM   27  C12 UNK     1      17.639   8.043   9.969  1.00  0.00     0.026 A 
HETATM   28  C10 UNK     1      16.803   9.158  10.035  1.00  0.00     0.035 A 
HETATM   29 Cl1  UNK     1      17.482  10.727  10.236  1.00  0.00    -0.084 Cl
ENDBRANCH   2  18
TORSDOF 4
ENDMDL
MODEL 8
REMARK VINA RESULT:      -8.8      6.421     11.841
REMARK  4 active torsions:
REMARK  status: ('A' for Active; 'I' for Inactive)
REMARK    1  A    between atoms: C11_19  and  O2_4 
REMARK       I    between atoms: C15_23  and  N1_7 
REMARK    2  A    between atoms: C7_15  and  N1_7 
REMARK    3  A    between atoms: C3_11  and  C9_17 
REMARK    4  A    between atoms: C13_21  and  C15_23 
ROOT
HETATM    1  N2  UNK     1      22.290  -1.708  35.311  1.00  0.00    -0.191 NA
HETATM    2  C9  UNK     1      18.850  -2.214  35.624  1.00  0.00     0.045 C 
HETATM    3  C13 UNK     1      20.025  -2.814  35.903  1.00  0.00     0.113 C 
HETATM    4  C19 UNK     1      21.273  -2.200  35.575  1.00  0.00     0.105 C 
ENDROOT
BRANCH   3   5
HETATM    5  C15 UNK     1      19.960  -4.171  36.572  1.00  0.00     0.266 C 
HETATM    6  O4  UNK     1      20.041  -4.265  37.795  1.00  0.00    -0.267 OA
HETATM    7  N1  UNK     1      19.808  -5.226  35.679  1.00  0.00    -0.320 N 
HETATM    8  H6  UNK     1      19.759  -5.022  34.685  1.00  0.00     0.169 HD
BRANCH   7   9
HETATM    9  C7  UNK     1      19.713  -6.608  35.985  1.00  0.00     0.070 A 
HETATM   10  C11 UNK     1      18.480  -7.169  36.265  1.00  0.00     0.095 A 
HETATM   11  C16 UNK     1      18.403  -8.530  36.564  1.00  0.00     0.041 A 
HETATM   12  C18 UNK     1      19.560  -9.307  36.579  1.00  0.00     0.026 A 
HETATM   13  C17 UNK     1      20.795  -8.725  36.294  1.00  0.00     0.036 A 
HETATM   14  C14 UNK     1      20.872  -7.364  35.995  1.00  0.00     0.056 A 
HETATM   15 Cl2  UNK     1      22.223  -9.685  36.312  1.00  0.00    -0.084 Cl
BRANCH  10  16
HETATM   16  O2  UNK     1      17.336  -6.427  36.257  1.00  0.00    -0.354 OA
HETATM   17  C20 UNK     1      16.249  -6.920  35.479  1.00  0.00     0.210 C 
ENDBRANCH  10  16
ENDBRANCH   7   9
ENDBRANCH   3   5
BRANCH   2  18
HETATM   18  C3  UNK     1      18.669  -0.935  34.991  1.00  0.00     0.039 A 
HETATM   19  C4  UNK     1      18.853  -0.786  33.522  1.00  0.00     0.197 A 
HETATM   20  C1  UNK     1      18.644   0.566  32.970  1.00  0.00     0.050 A 
HETATM   21  O3  UNK     1      19.161  -1.725  32.800  1.00  0.00    -0.286 OA
HETATM   22  C2  UNK     1      18.293   1.605  33.832  1.00  0.00     0.089 A 
HETATM   23  C5  UNK     1      18.793   0.808  31.601  1.00  0.00     0.042 A 
HETATM   24  O1  UNK     1      18.133   1.425  35.182  1.00  0.00    -0.321 OA
HETATM   25  C6  UNK     1      18.090   2.892  33.330  1.00  0.00     0.040 A 
HETATM   26  C8  UNK     1      18.331   0.162  35.684  1.00  0.00     0.158 A 
HETATM   27  C12 UNK     1      18.238   3.135  31.965  1.00  0.00     0.026 A 
HETATM   28  C10 UNK     1      18.589   2.095  31.103  1.00  0.00     0.035 A 
HETATM   29 Cl1  UNK     1      18.770   2.403  29.419  1.00  0.00    -0.084 Cl
ENDBRANCH   2  18
TORSDOF 4
ENDMDL
MODEL 9
REMARK VINA RESULT:      -8.8     15.184     20.294
REMARK  4 active torsions:
REMARK  status: ('A' for Active; 'I' for Inactive)
REMARK    1  A    between atoms: C11_19  and  O2_4 
REMARK       I    between atoms: C15_23  and  N1_7 
REMARK    2  A    between atoms: C7_15  and  N1_7 
REMARK    3  A    between atoms: C3_11  and  C9_17 
REMARK    4  A    between atoms: C13_21  and  C15_23 
ROOT
HETATM    1  N2  UNK     1      22.409  -3.078  15.429  1.00  0.00    -0.191 NA
HETATM    2  C9  UNK     1      19.040  -2.699  14.595  1.00  0.00     0.045 C 
HETATM    3  C13 UNK     1      20.046  -3.594  14.506  1.00  0.00     0.113 C 
HETATM    4  C19 UNK     1      21.349  -3.305  15.017  1.00  0.00     0.105 C 
ENDROOT
BRANCH   3   5
HETATM    5  C15 UNK     1      19.731  -4.913  13.833  1.00  0.00     0.266 C 
HETATM    6  O4  UNK     1      20.621  -5.560  13.286  1.00  0.00    -0.267 OA
HETATM    7  N1  UNK     1      18.389  -5.271  13.909  1.00  0.00    -0.320 N 
HETATM    8  H6  UNK     1      17.743  -4.647  14.384  1.00  0.00     0.169 HD
BRANCH   7   9
HETATM    9  C7  UNK     1      17.777  -6.438  13.384  1.00  0.00     0.070 A 
HETATM   10  C11 UNK     1      17.130  -7.317  14.234  1.00  0.00     0.095 A 
HETATM   11  C16 UNK     1      16.531  -8.461  13.703  1.00  0.00     0.041 A 
HETATM   12  C18 UNK     1      16.590  -8.706  12.332  1.00  0.00     0.026 A 
HETATM   13  C17 UNK     1      17.247  -7.808  11.490  1.00  0.00     0.036 A 
HETATM   14  C14 UNK     1      17.846  -6.665  12.021  1.00  0.00     0.056 A 
HETATM   15 Cl2  UNK     1      17.320  -8.112   9.798  1.00  0.00    -0.084 Cl
BRANCH  10  16
HETATM   16  O2  UNK     1      17.061  -7.097  15.577  1.00  0.00    -0.354 OA
HETATM   17  C20 UNK     1      15.776  -6.804  16.121  1.00  0.00     0.210 C 
ENDBRANCH  10  16
ENDBRANCH   7   9
ENDBRANCH   3   5
BRANCH   2  18
HETATM   18  C3  UNK     1      19.108  -1.389  15.185  1.00  0.00     0.039 A 
HETATM   19  C4  UNK     1      18.865  -1.203  16.641  1.00  0.00     0.197 A 
HETATM   20  C1  UNK     1      18.957   0.179  17.148  1.00  0.00     0.050 A 
HETATM   21  O3  UNK     1      18.600  -2.136  17.387  1.00  0.00    -0.286 OA
HETATM   22  C2  UNK     1      19.262   1.210  16.260  1.00  0.00     0.089 A 
HETATM   23  C5  UNK     1      18.745   0.457  18.502  1.00  0.00     0.042 A 
HETATM   24  O1  UNK     1      19.479   0.995  14.923  1.00  0.00    -0.321 OA
HETATM   25  C6  UNK     1      19.355   2.525  16.720  1.00  0.00     0.040 A 
HETATM   26  C8  UNK     1      19.390  -0.295  14.463  1.00  0.00     0.158 A 
HETATM   27  C12 UNK     1      19.144   2.804  18.070  1.00  0.00     0.026 A 
HETATM   28  C10 UNK     1      18.839   1.771  18.958  1.00  0.00     0.035 A 
HETATM   29 Cl1  UNK     1      18.579   2.124  20.624  1.00  0.00    -0.084 Cl
ENDBRANCH   2  18
TORSDOF 4
ENDMDL
MODEL 10
REMARK VINA RESULT:      -8.7      2.604     10.023
REMARK  4 active torsions:
REMARK  status: ('A' for Active; 'I' for Inactive)
REMARK    1  A    between atoms: C11_19  and  O2_4 
REMARK       I    between atoms: C15_23  and  N1_7 
REMARK    2  A    between atoms: C7_15  and  N1_7 
REMARK    3  A    between atoms: C3_11  and  C9_17 
REMARK    4  A    between atoms: C13_21  and  C15_23 
ROOT
HETATM    1  N2  UNK     1      16.275   8.150  30.772  1.00  0.00    -0.191 NA
HETATM    2  C9  UNK     1      17.713   7.716  33.923  1.00  0.00     0.045 C 
HETATM    3  C13 UNK     1      17.660   7.132  32.708  1.00  0.00     0.113 C 
HETATM    4  C19 UNK     1      16.894   7.698  31.642  1.00  0.00     0.105 C 
ENDROOT
BRANCH   3   5
HETATM    5  C15 UNK     1      18.442   5.848  32.530  1.00  0.00     0.266 C 
HETATM    6  O4  UNK     1      19.659   5.834  32.695  1.00  0.00    -0.267 OA
HETATM    7  N1  UNK     1      17.652   4.760  32.174  1.00  0.00    -0.320 N 
HETATM    8  H6  UNK     1      16.652   4.898  32.059  1.00  0.00     0.169 HD
BRANCH   7   9
HETATM    9  C7  UNK     1      18.077   3.428  31.936  1.00  0.00     0.070 A 
HETATM   10  C11 UNK     1      18.312   2.579  33.002  1.00  0.00     0.095 A 
HETATM   11  C16 UNK     1      18.730   1.270  32.752  1.00  0.00     0.041 A 
HETATM   12  C18 UNK     1      18.904   0.833  31.439  1.00  0.00     0.026 A 
HETATM   13  C17 UNK     1      18.662   1.703  30.377  1.00  0.00     0.036 A 
HETATM   14  C14 UNK     1      18.246   3.011  30.627  1.00  0.00     0.056 A 
HETATM   15 Cl2  UNK     1      18.879   1.164  28.757  1.00  0.00    -0.084 Cl
BRANCH  10  16
HETATM   16  O2  UNK     1      18.148   2.985  34.293  1.00  0.00    -0.354 OA
HETATM   17  C20 UNK     1      18.198   1.979  35.301  1.00  0.00     0.210 C 
ENDBRANCH  10  16
ENDBRANCH   7   9
ENDBRANCH   3   5
BRANCH   2  18
HETATM   18  C3  UNK     1      17.052   8.930  34.321  1.00  0.00     0.039 A 
HETATM   19  C4  UNK     1      17.660  10.254  34.021  1.00  0.00     0.197 A 
HETATM   20  C1  UNK     1      16.904  11.439  34.471  1.00  0.00     0.050 A 
HETATM   21  O3  UNK     1      18.729  10.369  33.435  1.00  0.00    -0.286 OA
HETATM   22  C2  UNK     1      15.691  11.258  35.134  1.00  0.00     0.089 A 
HETATM   23  C5  UNK     1      17.393  12.727  34.235  1.00  0.00     0.042 A 
HETATM   24  O1  UNK     1      15.165  10.018  35.391  1.00  0.00    -0.321 OA
HETATM   25  C6  UNK     1      14.959  12.365  35.567  1.00  0.00     0.040 A 
HETATM   26  C8  UNK     1      15.878   8.924  34.968  1.00  0.00     0.158 A 
HETATM   27  C12 UNK     1      15.445  13.651  35.333  1.00  0.00     0.026 A 
HETATM   28  C10 UNK     1      16.659  13.831  34.669  1.00  0.00     0.035 A 
HETATM   29 Cl1  UNK     1      17.252  15.423  34.385  1.00  0.00    -0.084 Cl
ENDBRANCH   2  18
TORSDOF 4
ENDMDL
