MODEL 1
REMARK VINA RESULT:      -9.1      0.000      0.000
REMARK  6 active torsions:
REMARK  status: ('A' for Active; 'I' for Inactive)
REMARK    1  A    between atoms: C2_7  and  O1_3 
REMARK    2  A    between atoms: C5_10  and  O1_3 
REMARK    3  A    between atoms: C3_8  and  O2_4 
REMARK    4  A    between atoms: C1_6  and  C9_14 
REMARK    5  A    between atoms: C5_10  and  C8_13 
REMARK    6  A    between atoms: C10_15  and  C11_16 
ROOT
HETATM    1  N1  UNK     1      21.995  -1.727  35.347  1.00  0.00    -0.191 NA
HETATM    2  C9  UNK     1      18.707  -2.493  36.052  1.00  0.00     0.036 C 
HETATM    3  C10 UNK     1      19.939  -3.037  36.249  1.00  0.00     0.055 C 
HETATM    4  C23 UNK     1      21.071  -2.305  35.746  1.00  0.00     0.100 C 
ENDROOT
BRANCH   3   5
HETATM    5  C11 UNK     1      20.166  -4.298  36.938  1.00  0.00    -0.014 A 
HETATM    6  C14 UNK     1      21.360  -4.514  37.625  1.00  0.00     0.036 A 
HETATM    7  C19 UNK     1      21.577  -5.724  38.285  1.00  0.00     0.034 A 
HETATM    8 Cl1  UNK     1      23.051  -5.991  39.131  1.00  0.00    -0.084 Cl
HETATM    9  C21 UNK     1      20.599  -6.718  38.256  1.00  0.00     0.024 A 
HETATM   10  C20 UNK     1      19.404  -6.503  37.569  1.00  0.00     0.003 A 
HETATM   11  C15 UNK     1      19.188  -5.293  36.909  1.00  0.00     0.013 A 
ENDBRANCH   3   5
BRANCH   2  12
HETATM   12  C1  UNK     1      18.432  -1.221  35.369  1.00  0.00    -0.015 A 
HETATM   13  C4  UNK     1      18.652  -1.177  33.999  1.00  0.00     0.052 A 
HETATM   14  C3  UNK     1      18.407   0.004  33.299  1.00  0.00     0.102 A 
HETATM   15  C2  UNK     1      17.945   1.133  33.977  1.00  0.00     0.103 A 
HETATM   16  C7  UNK     1      17.727   1.079  35.353  1.00  0.00     0.059 A 
HETATM   17  C6  UNK     1      17.972  -0.103  36.052  1.00  0.00     0.024 A 
HETATM   18 Br1  UNK     1      17.655  -0.108  37.926  1.00  0.00    -0.050 Br
BRANCH  14  19
HETATM   19  O2  UNK     1      18.622   0.045  31.955  1.00  0.00    -0.353 OA
HETATM   20  C22 UNK     1      19.622  -0.826  31.432  1.00  0.00     0.210 C 
ENDBRANCH  14  19
BRANCH  15  21
HETATM   21  O1  UNK     1      17.702   2.293  33.305  1.00  0.00    -0.344 OA
BRANCH  21  22
HETATM   22  C5  UNK     1      18.298   3.480  33.826  1.00  0.00     0.214 C 
BRANCH  22  23
HETATM   23  C8  UNK     1      18.679   4.378  32.685  1.00  0.00    -0.034 A 
HETATM   24  C12 UNK     1      19.067   5.688  32.942  1.00  0.00     0.009 A 
HETATM   25  C16 UNK     1      19.421   6.523  31.881  1.00  0.00     0.001 A 
HETATM   26  C18 UNK     1      19.384   6.042  30.573  1.00  0.00     0.000 A 
HETATM   27  C17 UNK     1      18.993   4.727  30.323  1.00  0.00     0.001 A 
HETATM   28  C13 UNK     1      18.639   3.892  31.384  1.00  0.00     0.009 A 
ENDBRANCH  22  23
ENDBRANCH  21  22
ENDBRANCH  15  21
ENDBRANCH   2  12
TORSDOF 6
ENDMDL
MODEL 2
REMARK VINA RESULT:      -8.9      6.339      8.658
REMARK  6 active torsions:
REMARK  status: ('A' for Active; 'I' for Inactive)
REMARK    1  A    between atoms: C2_7  and  O1_3 
REMARK    2  A    between atoms: C5_10  and  O1_3 
REMARK    3  A    between atoms: C3_8  and  O2_4 
REMARK    4  A    between atoms: C1_6  and  C9_14 
REMARK    5  A    between atoms: C5_10  and  C8_13 
REMARK    6  A    between atoms: C10_15  and  C11_16 
ROOT
HETATM    1  N1  UNK     1      17.904   2.657  33.870  1.00  0.00    -0.191 NA
HETATM    2  C9  UNK     1      18.311   4.646  31.083  1.00  0.00     0.036 C 
HETATM    3  C10 UNK     1      18.347   3.323  31.397  1.00  0.00     0.055 C 
HETATM    4  C23 UNK     1      18.101   2.965  32.769  1.00  0.00     0.100 C 
ENDROOT
BRANCH   3   5
HETATM    5  C11 UNK     1      18.611   2.269  30.430  1.00  0.00    -0.014 A 
HETATM    6  C14 UNK     1      19.475   1.224  30.754  1.00  0.00     0.036 A 
HETATM    7  C19 UNK     1      19.728   0.213  29.826  1.00  0.00     0.034 A 
HETATM    8 Cl1  UNK     1      20.796  -1.076  30.225  1.00  0.00    -0.084 Cl
HETATM    9  C21 UNK     1      19.116   0.250  28.573  1.00  0.00     0.024 A 
HETATM   10  C20 UNK     1      18.252   1.295  28.248  1.00  0.00     0.003 A 
HETATM   11  C15 UNK     1      18.000   2.305  29.177  1.00  0.00     0.013 A 
ENDBRANCH   3   5
BRANCH   2  12
HETATM   12  C1  UNK     1      18.042   5.743  32.024  1.00  0.00    -0.015 A 
HETATM   13  C4  UNK     1      16.712   6.008  32.324  1.00  0.00     0.052 A 
HETATM   14  C3  UNK     1      16.398   7.037  33.212  1.00  0.00     0.102 A 
HETATM   15  C2  UNK     1      17.417   7.793  33.792  1.00  0.00     0.103 A 
HETATM   16  C7  UNK     1      18.749   7.519  33.484  1.00  0.00     0.059 A 
HETATM   17  C6  UNK     1      19.062   6.490  32.596  1.00  0.00     0.024 A 
HETATM   18 Br1  UNK     1      20.898   6.169  32.221  1.00  0.00    -0.050 Br
BRANCH  14  19
HETATM   19  O2  UNK     1      15.093   7.294  33.506  1.00  0.00    -0.353 OA
HETATM   20  C22 UNK     1      14.169   7.276  32.420  1.00  0.00     0.210 C 
ENDBRANCH  14  19
BRANCH  15  21
HETATM   21  O1  UNK     1      17.123   8.800  34.660  1.00  0.00    -0.344 OA
BRANCH  21  22
HETATM   22  C5  UNK     1      17.058  10.121  34.122  1.00  0.00     0.214 C 
BRANCH  22  23
HETATM   23  C8  UNK     1      15.648  10.622  34.224  1.00  0.00    -0.034 A 
HETATM   24  C12 UNK     1      14.878  10.748  33.073  1.00  0.00     0.009 A 
HETATM   25  C16 UNK     1      13.566  11.215  33.167  1.00  0.00     0.001 A 
HETATM   26  C18 UNK     1      13.034  11.552  34.411  1.00  0.00     0.000 A 
HETATM   27  C17 UNK     1      13.811  11.423  35.561  1.00  0.00     0.001 A 
HETATM   28  C13 UNK     1      15.123  10.956  35.467  1.00  0.00     0.009 A 
ENDBRANCH  22  23
ENDBRANCH  21  22
ENDBRANCH  15  21
ENDBRANCH   2  12
TORSDOF 6
ENDMDL
MODEL 3
REMARK VINA RESULT:      -8.6     11.949     13.943
REMARK  6 active torsions:
REMARK  status: ('A' for Active; 'I' for Inactive)
REMARK    1  A    between atoms: C2_7  and  O1_3 
REMARK    2  A    between atoms: C5_10  and  O1_3 
REMARK    3  A    between atoms: C3_8  and  O2_4 
REMARK    4  A    between atoms: C1_6  and  C9_14 
REMARK    5  A    between atoms: C5_10  and  C8_13 
REMARK    6  A    between atoms: C10_15  and  C11_16 
ROOT
HETATM    1  N1  UNK     1      27.260 -10.332  39.781  1.00  0.00    -0.191 NA
HETATM    2  C9  UNK     1      27.458  -8.886  36.656  1.00  0.00     0.036 C 
HETATM    3  C10 UNK     1      26.635  -9.734  37.330  1.00  0.00     0.055 C 
HETATM    4  C23 UNK     1      26.990 -10.060  38.686  1.00  0.00     0.100 C 
ENDROOT
BRANCH   3   5
HETATM    5  C11 UNK     1      25.429 -10.315  36.759  1.00  0.00    -0.014 A 
HETATM    6  C14 UNK     1      24.267  -9.550  36.654  1.00  0.00     0.036 A 
HETATM    7  C19 UNK     1      23.112 -10.107  36.107  1.00  0.00     0.034 A 
HETATM    8 Cl1  UNK     1      21.678  -9.164  35.979  1.00  0.00    -0.084 Cl
HETATM    9  C21 UNK     1      23.117 -11.431  35.667  1.00  0.00     0.024 A 
HETATM   10  C20 UNK     1      24.279 -12.196  35.771  1.00  0.00     0.003 A 
HETATM   11  C15 UNK     1      25.434 -11.638  36.318  1.00  0.00     0.013 A 
ENDBRANCH   3   5
BRANCH   2  12
HETATM   12  C1  UNK     1      28.681  -8.272  37.195  1.00  0.00    -0.015 A 
HETATM   13  C4  UNK     1      29.890  -8.868  36.859  1.00  0.00     0.052 A 
HETATM   14  C3  UNK     1      31.081  -8.327  37.341  1.00  0.00     0.102 A 
HETATM   15  C2  UNK     1      31.053  -7.195  38.157  1.00  0.00     0.103 A 
HETATM   16  C7  UNK     1      29.835  -6.604  38.488  1.00  0.00     0.059 A 
HETATM   17  C6  UNK     1      28.643  -7.146  38.005  1.00  0.00     0.024 A 
HETATM   18 Br1  UNK     1      27.018  -6.291  38.494  1.00  0.00    -0.050 Br
BRANCH  14  19
HETATM   19  O2  UNK     1      32.266  -8.912  37.011  1.00  0.00    -0.353 OA
HETATM   20  C22 UNK     1      32.642  -8.882  35.636  1.00  0.00     0.210 C 
ENDBRANCH  14  19
BRANCH  15  21
HETATM   21  O1  UNK     1      32.211  -6.658  38.634  1.00  0.00    -0.344 OA
BRANCH  21  22
HETATM   22  C5  UNK     1      32.494  -5.306  38.277  1.00  0.00     0.214 C 
BRANCH  22  23
HETATM   23  C8  UNK     1      33.365  -5.295  37.056  1.00  0.00    -0.034 A 
HETATM   24  C12 UNK     1      34.572  -5.986  37.066  1.00  0.00     0.009 A 
HETATM   25  C16 UNK     1      35.383  -5.975  35.930  1.00  0.00     0.001 A 
HETATM   26  C18 UNK     1      34.982  -5.274  34.793  1.00  0.00     0.000 A 
HETATM   27  C17 UNK     1      33.771  -4.583  34.791  1.00  0.00     0.001 A 
HETATM   28  C13 UNK     1      32.960  -4.594  35.926  1.00  0.00     0.009 A 
ENDBRANCH  22  23
ENDBRANCH  21  22
ENDBRANCH  15  21
ENDBRANCH   2  12
TORSDOF 6
ENDMDL
MODEL 4
REMARK VINA RESULT:      -8.3      6.521      9.229
REMARK  6 active torsions:
REMARK  status: ('A' for Active; 'I' for Inactive)
REMARK    1  A    between atoms: C2_7  and  O1_3 
REMARK    2  A    between atoms: C5_10  and  O1_3 
REMARK    3  A    between atoms: C3_8  and  O2_4 
REMARK    4  A    between atoms: C1_6  and  C9_14 
REMARK    5  A    between atoms: C5_10  and  C8_13 
REMARK    6  A    between atoms: C10_15  and  C11_16 
ROOT
HETATM    1  N1  UNK     1      20.136   6.208  29.835  1.00  0.00    -0.191 NA
HETATM    2  C9  UNK     1      17.804   4.796  31.947  1.00  0.00     0.036 C 
HETATM    3  C10 UNK     1      18.588   4.414  30.903  1.00  0.00     0.055 C 
HETATM    4  C23 UNK     1      19.441   5.414  30.319  1.00  0.00     0.100 C 
ENDROOT
BRANCH   3   5
HETATM    5  C11 UNK     1      18.612   3.064  30.362  1.00  0.00    -0.014 A 
HETATM    6  C14 UNK     1      19.133   2.016  31.119  1.00  0.00     0.036 A 
HETATM    7  C19 UNK     1      19.156   0.722  30.599  1.00  0.00     0.034 A 
HETATM    8 Cl1  UNK     1      19.800  -0.571  31.533  1.00  0.00    -0.084 Cl
HETATM    9  C21 UNK     1      18.659   0.477  29.319  1.00  0.00     0.024 A 
HETATM   10  C20 UNK     1      18.137   1.525  28.560  1.00  0.00     0.003 A 
HETATM   11  C15 UNK     1      18.115   2.818  29.081  1.00  0.00     0.013 A 
ENDBRANCH   3   5
BRANCH   2  12
HETATM   12  C1  UNK     1      17.752   6.144  32.531  1.00  0.00    -0.015 A 
HETATM   13  C4  UNK     1      16.747   6.991  32.082  1.00  0.00     0.052 A 
HETATM   14  C3  UNK     1      16.651   8.282  32.601  1.00  0.00     0.102 A 
HETATM   15  C2  UNK     1      17.561   8.715  33.565  1.00  0.00     0.103 A 
HETATM   16  C7  UNK     1      18.567   7.858  34.010  1.00  0.00     0.059 A 
HETATM   17  C6  UNK     1      18.663   6.567  33.490  1.00  0.00     0.024 A 
HETATM   18 Br1  UNK     1      20.056   5.450  34.139  1.00  0.00    -0.050 Br
BRANCH  14  19
HETATM   19  O2  UNK     1      15.664   9.111  32.160  1.00  0.00    -0.353 OA
HETATM   20  C22 UNK     1      14.447   9.123  32.904  1.00  0.00     0.210 C 
ENDBRANCH  14  19
BRANCH  15  21
HETATM   21  O1  UNK     1      17.478   9.974  34.080  1.00  0.00    -0.344 OA
BRANCH  21  22
HETATM   22  C5  UNK     1      18.633  10.802  33.957  1.00  0.00     0.214 C 
BRANCH  22  23
HETATM   23  C8  UNK     1      18.213  12.241  34.031  1.00  0.00    -0.034 A 
HETATM   24  C12 UNK     1      18.800  13.172  33.181  1.00  0.00     0.009 A 
HETATM   25  C16 UNK     1      18.410  14.510  33.249  1.00  0.00     0.001 A 
HETATM   26  C18 UNK     1      17.437  14.908  34.166  1.00  0.00     0.000 A 
HETATM   27  C17 UNK     1      16.854  13.968  35.015  1.00  0.00     0.001 A 
HETATM   28  C13 UNK     1      17.243  12.630  34.946  1.00  0.00     0.009 A 
ENDBRANCH  22  23
ENDBRANCH  21  22
ENDBRANCH  15  21
ENDBRANCH   2  12
TORSDOF 6
ENDMDL
MODEL 5
REMARK VINA RESULT:      -8.2     26.493     28.870
REMARK  6 active torsions:
REMARK  status: ('A' for Active; 'I' for Inactive)
REMARK    1  A    between atoms: C2_7  and  O1_3 
REMARK    2  A    between atoms: C5_10  and  O1_3 
REMARK    3  A    between atoms: C3_8  and  O2_4 
REMARK    4  A    between atoms: C1_6  and  C9_14 
REMARK    5  A    between atoms: C5_10  and  C8_13 
REMARK    6  A    between atoms: C10_15  and  C11_16 
ROOT
HETATM    1  N1  UNK     1      16.651  12.393  11.460  1.00  0.00    -0.191 NA
HETATM    2  C9  UNK     1      17.884  10.153   9.146  1.00  0.00     0.036 C 
HETATM    3  C10 UNK     1      18.321  11.242   9.835  1.00  0.00     0.055 C 
HETATM    4  C23 UNK     1      17.389  11.872  10.732  1.00  0.00     0.100 C 
ENDROOT
BRANCH   3   5
HETATM    5  C11 UNK     1      19.665  11.787   9.718  1.00  0.00    -0.014 A 
HETATM    6  C14 UNK     1      20.120  12.266   8.490  1.00  0.00     0.036 A 
HETATM    7  C19 UNK     1      21.409  12.789   8.379  1.00  0.00     0.034 A 
HETATM    8 Cl1  UNK     1      21.972  13.378   6.863  1.00  0.00    -0.084 Cl
HETATM    9  C21 UNK     1      22.242  12.831   9.497  1.00  0.00     0.024 A 
HETATM   10  C20 UNK     1      21.787  12.353  10.725  1.00  0.00     0.003 A 
HETATM   11  C15 UNK     1      20.498  11.830  10.835  1.00  0.00     0.013 A 
ENDBRANCH   3   5
BRANCH   2  12
HETATM   12  C1  UNK     1      16.540   9.565   9.238  1.00  0.00    -0.015 A 
HETATM   13  C4  UNK     1      16.399   8.427  10.023  1.00  0.00     0.052 A 
HETATM   14  C3  UNK     1      15.146   7.827  10.147  1.00  0.00     0.102 A 
HETATM   15  C2  UNK     1      14.045   8.369   9.484  1.00  0.00     0.103 A 
HETATM   16  C7  UNK     1      14.196   9.511   8.699  1.00  0.00     0.059 A 
HETATM   17  C6  UNK     1      15.450  10.111   8.575  1.00  0.00     0.024 A 
HETATM   18 Br1  UNK     1      15.586  11.665   7.490  1.00  0.00    -0.050 Br
BRANCH  14  19
HETATM   19  O2  UNK     1      15.010   6.712  10.917  1.00  0.00    -0.353 OA
HETATM   20  C22 UNK     1      15.190   5.453  10.273  1.00  0.00     0.210 C 
ENDBRANCH  14  19
BRANCH  15  21
HETATM   21  O1  UNK     1      12.816   7.791   9.598  1.00  0.00    -0.344 OA
BRANCH  21  22
HETATM   22  C5  UNK     1      11.704   8.529   9.092  1.00  0.00     0.214 C 
BRANCH  22  23
HETATM   23  C8  UNK     1      10.934   7.662   8.140  1.00  0.00    -0.034 A 
HETATM   24  C12 UNK     1      11.527   7.249   6.953  1.00  0.00     0.009 A 
HETATM   25  C16 UNK     1      10.810   6.443   6.067  1.00  0.00     0.001 A 
HETATM   26  C18 UNK     1       9.506   6.057   6.375  1.00  0.00     0.000 A 
HETATM   27  C17 UNK     1       8.918   6.475   7.568  1.00  0.00     0.001 A 
HETATM   28  C13 UNK     1       9.635   7.280   8.454  1.00  0.00     0.009 A 
ENDBRANCH  22  23
ENDBRANCH  21  22
ENDBRANCH  15  21
ENDBRANCH   2  12
TORSDOF 6
ENDMDL
MODEL 6
REMARK VINA RESULT:      -8.2     11.605     13.809
REMARK  6 active torsions:
REMARK  status: ('A' for Active; 'I' for Inactive)
REMARK    1  A    between atoms: C2_7  and  O1_3 
REMARK    2  A    between atoms: C5_10  and  O1_3 
REMARK    3  A    between atoms: C3_8  and  O2_4 
REMARK    4  A    between atoms: C1_6  and  C9_14 
REMARK    5  A    between atoms: C5_10  and  C8_13 
REMARK    6  A    between atoms: C10_15  and  C11_16 
ROOT
HETATM    1  N1  UNK     1      27.389 -10.334  39.603  1.00  0.00    -0.191 NA
HETATM    2  C9  UNK     1      27.386  -8.833  36.498  1.00  0.00     0.036 C 
HETATM    3  C10 UNK     1      26.626  -9.721  37.194  1.00  0.00     0.055 C 
HETATM    4  C23 UNK     1      27.057 -10.054  38.526  1.00  0.00     0.100 C 
ENDROOT
BRANCH   3   5
HETATM    5  C11 UNK     1      25.416 -10.335  36.671  1.00  0.00    -0.014 A 
HETATM    6  C14 UNK     1      24.237  -9.596  36.586  1.00  0.00     0.036 A 
HETATM    7  C19 UNK     1      23.077 -10.186  36.085  1.00  0.00     0.034 A 
HETATM    8 Cl1  UNK     1      21.622  -9.274  35.981  1.00  0.00    -0.084 Cl
HETATM    9  C21 UNK     1      23.096 -11.518  35.670  1.00  0.00     0.024 A 
HETATM   10  C20 UNK     1      24.275 -12.258  35.754  1.00  0.00     0.003 A 
HETATM   11  C15 UNK     1      25.435 -11.667  36.256  1.00  0.00     0.013 A 
ENDBRANCH   3   5
BRANCH   2  12
HETATM   12  C1  UNK     1      28.610  -8.183  36.989  1.00  0.00    -0.015 A 
HETATM   13  C4  UNK     1      28.455  -7.143  37.896  1.00  0.00     0.052 A 
HETATM   14  C3  UNK     1      29.582  -6.491  38.396  1.00  0.00     0.102 A 
HETATM   15  C2  UNK     1      30.855  -6.884  37.982  1.00  0.00     0.103 A 
HETATM   16  C7  UNK     1      31.001  -7.930  37.071  1.00  0.00     0.059 A 
HETATM   17  C6  UNK     1      29.873  -8.582  36.572  1.00  0.00     0.024 A 
HETATM   18 Br1  UNK     1      30.142  -9.998  35.334  1.00  0.00    -0.050 Br
BRANCH  14  19
HETATM   19  O2  UNK     1      29.428  -5.472  39.286  1.00  0.00    -0.353 OA
HETATM   20  C22 UNK     1      28.774  -4.295  38.816  1.00  0.00     0.210 C 
ENDBRANCH  14  19
BRANCH  15  21
HETATM   21  O1  UNK     1      31.964  -6.255  38.462  1.00  0.00    -0.344 OA
BRANCH  21  22
HETATM   22  C5  UNK     1      32.272  -4.975  37.913  1.00  0.00     0.214 C 
BRANCH  22  23
HETATM   23  C8  UNK     1      33.291  -5.141  36.825  1.00  0.00    -0.034 A 
HETATM   24  C12 UNK     1      33.162  -4.417  35.645  1.00  0.00     0.009 A 
HETATM   25  C16 UNK     1      34.110  -4.571  34.633  1.00  0.00     0.001 A 
HETATM   26  C18 UNK     1      35.180  -5.448  34.808  1.00  0.00     0.000 A 
HETATM   27  C17 UNK     1      35.303  -6.170  35.993  1.00  0.00     0.001 A 
HETATM   28  C13 UNK     1      34.355  -6.016  37.006  1.00  0.00     0.009 A 
ENDBRANCH  22  23
ENDBRANCH  21  22
ENDBRANCH  15  21
ENDBRANCH   2  12
TORSDOF 6
ENDMDL
MODEL 7
REMARK VINA RESULT:      -8.2     26.784     28.703
REMARK  6 active torsions:
REMARK  status: ('A' for Active; 'I' for Inactive)
REMARK    1  A    between atoms: C2_7  and  O1_3 
REMARK    2  A    between atoms: C5_10  and  O1_3 
REMARK    3  A    between atoms: C3_8  and  O2_4 
REMARK    4  A    between atoms: C1_6  and  C9_14 
REMARK    5  A    between atoms: C5_10  and  C8_13 
REMARK    6  A    between atoms: C10_15  and  C11_16 
ROOT
HETATM    1  N1  UNK     1      15.889  11.688   7.349  1.00  0.00    -0.191 NA
HETATM    2  C9  UNK     1      17.103   9.928  10.055  1.00  0.00     0.036 C 
HETATM    3  C10 UNK     1      17.548  10.863   9.172  1.00  0.00     0.055 C 
HETATM    4  C23 UNK     1      16.623  11.313   8.167  1.00  0.00     0.100 C 
ENDROOT
BRANCH   3   5
HETATM    5  C11 UNK     1      18.889  11.427   9.198  1.00  0.00    -0.014 A 
HETATM    6  C14 UNK     1      19.556  11.590  10.412  1.00  0.00     0.036 A 
HETATM    7  C19 UNK     1      20.841  12.131  10.435  1.00  0.00     0.034 A 
HETATM    8 Cl1  UNK     1      21.663  12.333  11.933  1.00  0.00    -0.084 Cl
HETATM    9  C21 UNK     1      21.459  12.511   9.244  1.00  0.00     0.024 A 
HETATM   10  C20 UNK     1      20.793  12.348   8.029  1.00  0.00     0.003 A 
HETATM   11  C15 UNK     1      19.507  11.807   8.007  1.00  0.00     0.013 A 
ENDBRANCH   3   5
BRANCH   2  12
HETATM   12  C1  UNK     1      15.757   9.337  10.071  1.00  0.00    -0.015 A 
HETATM   13  C4  UNK     1      15.607   8.089   9.482  1.00  0.00     0.052 A 
HETATM   14  C3  UNK     1      14.352   7.480   9.468  1.00  0.00     0.102 A 
HETATM   15  C2  UNK     1      13.257   8.127  10.043  1.00  0.00     0.103 A 
HETATM   16  C7  UNK     1      13.418   9.380  10.632  1.00  0.00     0.059 A 
HETATM   17  C6  UNK     1      14.674   9.988  10.646  1.00  0.00     0.024 A 
HETATM   18 Br1  UNK     1      14.824  11.696  11.465  1.00  0.00    -0.050 Br
BRANCH  14  19
HETATM   19  O2  UNK     1      14.206   6.255   8.891  1.00  0.00    -0.353 OA
HETATM   20  C22 UNK     1      14.687   5.131   9.625  1.00  0.00     0.210 C 
ENDBRANCH  14  19
BRANCH  15  21
HETATM   21  O1  UNK     1      12.027   7.543  10.036  1.00  0.00    -0.344 OA
BRANCH  21  22
HETATM   22  C5  UNK     1      10.975   8.256   9.387  1.00  0.00     0.214 C 
BRANCH  22  23
HETATM   23  C8  UNK     1      10.516   7.472   8.192  1.00  0.00    -0.034 A 
HETATM   24  C12 UNK     1      11.375   7.300   7.113  1.00  0.00     0.009 A 
HETATM   25  C16 UNK     1      10.949   6.571   6.001  1.00  0.00     0.001 A 
HETATM   26  C18 UNK     1       9.668   6.021   5.977  1.00  0.00     0.000 A 
HETATM   27  C17 UNK     1       8.812   6.198   7.064  1.00  0.00     0.001 A 
HETATM   28  C13 UNK     1       9.238   6.927   8.175  1.00  0.00     0.009 A 
ENDBRANCH  22  23
ENDBRANCH  21  22
ENDBRANCH  15  21
ENDBRANCH   2  12
TORSDOF 6
ENDMDL
MODEL 8
REMARK VINA RESULT:      -8.1     26.926     28.622
REMARK  6 active torsions:
REMARK  status: ('A' for Active; 'I' for Inactive)
REMARK    1  A    between atoms: C2_7  and  O1_3 
REMARK    2  A    between atoms: C5_10  and  O1_3 
REMARK    3  A    between atoms: C3_8  and  O2_4 
REMARK    4  A    between atoms: C1_6  and  C9_14 
REMARK    5  A    between atoms: C5_10  and  C8_13 
REMARK    6  A    between atoms: C10_15  and  C11_16 
ROOT
HETATM    1  N1  UNK     1      15.402  10.958   7.598  1.00  0.00    -0.191 NA
HETATM    2  C9  UNK     1      16.588   9.726  10.593  1.00  0.00     0.036 C 
HETATM    3  C10 UNK     1      16.903  10.708   9.706  1.00  0.00     0.055 C 
HETATM    4  C23 UNK     1      16.067  10.838   8.542  1.00  0.00     0.100 C 
ENDROOT
BRANCH   3   5
HETATM    5  C11 UNK     1      18.022  11.623   9.874  1.00  0.00    -0.014 A 
HETATM    6  C14 UNK     1      18.967  11.765   8.859  1.00  0.00     0.036 A 
HETATM    7  C19 UNK     1      20.039  12.642   9.022  1.00  0.00     0.034 A 
HETATM    8 Cl1  UNK     1      21.207  12.817   7.770  1.00  0.00    -0.084 Cl
HETATM    9  C21 UNK     1      20.166  13.376  10.202  1.00  0.00     0.024 A 
HETATM   10  C20 UNK     1      19.221  13.234  11.217  1.00  0.00     0.003 A 
HETATM   11  C15 UNK     1      18.149  12.356  11.054  1.00  0.00     0.013 A 
ENDBRANCH   3   5
BRANCH   2  12
HETATM   12  C1  UNK     1      15.465   8.786  10.467  1.00  0.00    -0.015 A 
HETATM   13  C4  UNK     1      14.195   9.275  10.746  1.00  0.00     0.052 A 
HETATM   14  C3  UNK     1      13.093   8.427  10.642  1.00  0.00     0.102 A 
HETATM   15  C2  UNK     1      13.270   7.097  10.260  1.00  0.00     0.103 A 
HETATM   16  C7  UNK     1      14.549   6.615   9.982  1.00  0.00     0.059 A 
HETATM   17  C6  UNK     1      15.651   7.464  10.086  1.00  0.00     0.024 A 
HETATM   18 Br1  UNK     1      17.365   6.744   9.693  1.00  0.00    -0.050 Br
BRANCH  14  19
HETATM   19  O2  UNK     1      11.848   8.908  10.915  1.00  0.00    -0.353 OA
HETATM   20  C22 UNK     1      11.159   9.564   9.853  1.00  0.00     0.210 C 
ENDBRANCH  14  19
BRANCH  15  21
HETATM   21  O1  UNK     1      12.201   6.259  10.155  1.00  0.00    -0.344 OA
BRANCH  21  22
HETATM   22  C5  UNK     1      12.229   5.302   9.097  1.00  0.00     0.214 C 
BRANCH  22  23
HETATM   23  C8  UNK     1      11.224   5.696   8.054  1.00  0.00    -0.034 A 
HETATM   24  C12 UNK     1      11.638   5.897   6.742  1.00  0.00     0.009 A 
HETATM   25  C16 UNK     1      10.705   6.263   5.772  1.00  0.00     0.001 A 
HETATM   26  C18 UNK     1       9.364   6.426   6.121  1.00  0.00     0.000 A 
HETATM   27  C17 UNK     1       8.957   6.223   7.438  1.00  0.00     0.001 A 
HETATM   28  C13 UNK     1       9.890   5.856   8.408  1.00  0.00     0.009 A 
ENDBRANCH  22  23
ENDBRANCH  21  22
ENDBRANCH  15  21
ENDBRANCH   2  12
TORSDOF 6
ENDMDL
MODEL 9
REMARK VINA RESULT:      -8.1      4.914     10.679
REMARK  6 active torsions:
REMARK  status: ('A' for Active; 'I' for Inactive)
REMARK    1  A    between atoms: C2_7  and  O1_3 
REMARK    2  A    between atoms: C5_10  and  O1_3 
REMARK    3  A    between atoms: C3_8  and  O2_4 
REMARK    4  A    between atoms: C1_6  and  C9_14 
REMARK    5  A    between atoms: C5_10  and  C8_13 
REMARK    6  A    between atoms: C10_15  and  C11_16 
ROOT
HETATM    1  N1  UNK     1      20.576  -3.586  34.284  1.00  0.00    -0.191 NA
HETATM    2  C9  UNK     1      19.395  -3.778  37.519  1.00  0.00     0.036 C 
HETATM    3  C10 UNK     1      19.405  -2.881  36.496  1.00  0.00     0.055 C 
HETATM    4  C23 UNK     1      20.056  -3.280  35.276  1.00  0.00     0.100 C 
ENDROOT
BRANCH   3   5
HETATM    5  C11 UNK     1      18.794  -1.563  36.568  1.00  0.00    -0.014 A 
HETATM    6  C14 UNK     1      18.832  -0.713  35.464  1.00  0.00     0.036 A 
HETATM    7  C19 UNK     1      18.246   0.551  35.535  1.00  0.00     0.034 A 
HETATM    8 Cl1  UNK     1      18.295   1.601  34.173  1.00  0.00    -0.084 Cl
HETATM    9  C21 UNK     1      17.623   0.965  36.712  1.00  0.00     0.024 A 
HETATM   10  C20 UNK     1      17.584   0.115  37.817  1.00  0.00     0.003 A 
HETATM   11  C15 UNK     1      18.170  -1.149  37.746  1.00  0.00     0.013 A 
ENDBRANCH   3   5
BRANCH   2  12
HETATM   12  C1  UNK     1      19.992  -5.120  37.487  1.00  0.00    -0.015 A 
HETATM   13  C4  UNK     1      21.314  -5.236  37.899  1.00  0.00     0.052 A 
HETATM   14  C3  UNK     1      21.931  -6.487  37.889  1.00  0.00     0.102 A 
HETATM   15  C2  UNK     1      21.222  -7.611  37.467  1.00  0.00     0.103 A 
HETATM   16  C7  UNK     1      19.895  -7.485  37.056  1.00  0.00     0.059 A 
HETATM   17  C6  UNK     1      19.278  -6.234  37.065  1.00  0.00     0.024 A 
HETATM   18 Br1  UNK     1      17.469  -6.133  36.493  1.00  0.00    -0.050 Br
BRANCH  14  19
HETATM   19  O2  UNK     1      23.227  -6.598  38.294  1.00  0.00    -0.353 OA
HETATM   20  C22 UNK     1      23.625  -5.812  39.415  1.00  0.00     0.210 C 
ENDBRANCH  14  19
BRANCH  15  21
HETATM   21  O1  UNK     1      21.814  -8.838  37.453  1.00  0.00    -0.344 OA
BRANCH  21  22
HETATM   22  C5  UNK     1      21.897  -9.503  36.194  1.00  0.00     0.214 C 
BRANCH  22  23
HETATM   23  C8  UNK     1      23.152 -10.324  36.156  1.00  0.00    -0.034 A 
HETATM   24  C12 UNK     1      24.353  -9.764  36.574  1.00  0.00     0.009 A 
HETATM   25  C16 UNK     1      25.521 -10.527  36.539  1.00  0.00     0.001 A 
HETATM   26  C18 UNK     1      25.479 -11.845  36.085  1.00  0.00     0.000 A 
HETATM   27  C17 UNK     1      24.271 -12.400  35.667  1.00  0.00     0.001 A 
HETATM   28  C13 UNK     1      23.103 -11.637  35.702  1.00  0.00     0.009 A 
ENDBRANCH  22  23
ENDBRANCH  21  22
ENDBRANCH  15  21
ENDBRANCH   2  12
TORSDOF 6
ENDMDL
MODEL 10
REMARK VINA RESULT:      -8.1      9.553     13.165
REMARK  6 active torsions:
REMARK  status: ('A' for Active; 'I' for Inactive)
REMARK    1  A    between atoms: C2_7  and  O1_3 
REMARK    2  A    between atoms: C5_10  and  O1_3 
REMARK    3  A    between atoms: C3_8  and  O2_4 
REMARK    4  A    between atoms: C1_6  and  C9_14 
REMARK    5  A    between atoms: C5_10  and  C8_13 
REMARK    6  A    between atoms: C10_15  and  C11_16 
ROOT
HETATM    1  N1  UNK     1      29.329  -6.226  34.736  1.00  0.00    -0.191 NA
HETATM    2  C9  UNK     1      30.230  -6.958  37.984  1.00  0.00     0.036 C 
HETATM    3  C10 UNK     1      30.838  -6.603  36.819  1.00  0.00     0.055 C 
HETATM    4  C23 UNK     1      29.994  -6.397  35.672  1.00  0.00     0.100 C 
ENDROOT
BRANCH   3   5
HETATM    5  C11 UNK     1      32.274  -6.418  36.679  1.00  0.00    -0.014 A 
HETATM    6  C14 UNK     1      32.774  -5.496  35.761  1.00  0.00     0.036 A 
HETATM    7  C19 UNK     1      34.151  -5.319  35.628  1.00  0.00     0.034 A 
HETATM    8 Cl1  UNK     1      34.767  -4.181  34.494  1.00  0.00    -0.084 Cl
HETATM    9  C21 UNK     1      35.028  -6.068  36.412  1.00  0.00     0.024 A 
HETATM   10  C20 UNK     1      34.529  -6.991  37.331  1.00  0.00     0.003 A 
HETATM   11  C15 UNK     1      33.152  -7.167  37.463  1.00  0.00     0.013 A 
ENDBRANCH   3   5
BRANCH   2  12
HETATM   12  C1  UNK     1      28.785  -7.148  38.172  1.00  0.00    -0.015 A 
HETATM   13  C4  UNK     1      28.276  -8.418  37.930  1.00  0.00     0.052 A 
HETATM   14  C3  UNK     1      26.912  -8.656  38.094  1.00  0.00     0.102 A 
HETATM   15  C2  UNK     1      26.067  -7.622  38.497  1.00  0.00     0.103 A 
HETATM   16  C7  UNK     1      26.587  -6.350  38.738  1.00  0.00     0.059 A 
HETATM   17  C6  UNK     1      27.952  -6.113  38.575  1.00  0.00     0.024 A 
HETATM   18 Br1  UNK     1      28.595  -4.358  38.920  1.00  0.00    -0.050 Br
BRANCH  14  19
HETATM   19  O2  UNK     1      26.415  -9.902  37.857  1.00  0.00    -0.353 OA
HETATM   20  C22 UNK     1      26.375 -10.336  36.499  1.00  0.00     0.210 C 
ENDBRANCH  14  19
BRANCH  15  21
HETATM   21  O1  UNK     1      24.733  -7.842  38.660  1.00  0.00    -0.344 OA
BRANCH  21  22
HETATM   22  C5  UNK     1      23.944  -6.741  39.110  1.00  0.00     0.214 C 
BRANCH  22  23
HETATM   23  C8  UNK     1      22.503  -7.156  39.155  1.00  0.00    -0.034 A 
HETATM   24  C12 UNK     1      21.515  -6.249  38.792  1.00  0.00     0.009 A 
HETATM   25  C16 UNK     1      20.174  -6.635  38.834  1.00  0.00     0.001 A 
HETATM   26  C18 UNK     1      19.833  -7.925  39.238  1.00  0.00     0.000 A 
HETATM   27  C17 UNK     1      20.830  -8.830  39.600  1.00  0.00     0.001 A 
HETATM   28  C13 UNK     1      22.170  -8.444  39.558  1.00  0.00     0.009 A 
ENDBRANCH  22  23
ENDBRANCH  21  22
ENDBRANCH  15  21
ENDBRANCH   2  12
TORSDOF 6
ENDMDL
