MODEL 1
REMARK VINA RESULT:      -9.9      0.000      0.000
REMARK  4 active torsions:
REMARK  status: ('A' for Active; 'I' for Inactive)
REMARK    1  A    between atoms: C1_8  and  O1_2 
REMARK    2  A    between atoms: C1_8  and  C3_10 
REMARK    3  A    between atoms: C3_10  and  C7_14 
REMARK    4  A    between atoms: C7_14  and  C9_16 
ROOT
HETATM    1 Cl1  UNK     1      17.899   3.919  31.758  1.00  0.00    -0.084 Cl
HETATM    2  O2  UNK     1      20.780  -2.638  29.413  1.00  0.00    -0.269 OA
HETATM    3  N1  UNK     1      19.720  -0.686  28.651  1.00  0.00    -0.324 N 
HETATM    4  C1  UNK     1      20.097  -0.862  30.982  1.00  0.00     0.174 A 
HETATM    5  C2  UNK     1      19.429   0.432  30.617  1.00  0.00     0.014 A 
HETATM    6  C4  UNK     1      19.233   0.478  29.237  1.00  0.00     0.044 A 
HETATM    7  C5  UNK     1      20.259  -1.551  29.610  1.00  0.00     0.262 A 
HETATM    8  C6  UNK     1      19.025   1.487  31.415  1.00  0.00     0.036 A 
HETATM    9  C8  UNK     1      18.638   1.551  28.605  1.00  0.00     0.032 A 
HETATM   10  C10 UNK     1      18.417   2.586  30.800  1.00  0.00     0.034 A 
HETATM   11  C11 UNK     1      18.226   2.617  29.406  1.00  0.00     0.026 A 
HETATM   12  H3  UNK     1      19.686  -0.868  27.656  1.00  0.00     0.169 HD
ENDROOT
BRANCH   4  13
HETATM   13  O1  UNK     1      21.385  -0.608  31.509  1.00  0.00    -0.375 OA
HETATM   14  H6  UNK     1      21.784  -1.451  31.783  1.00  0.00     0.211 HD
ENDBRANCH   4  13
BRANCH   4  15
HETATM   15  C3  UNK     1      19.279  -1.719  31.938  1.00  0.00     0.137 C 
BRANCH  15  16
HETATM   16  C7  UNK     1      20.066  -2.120  33.167  1.00  0.00     0.169 C 
HETATM   17  O3  UNK     1      21.093  -2.794  33.132  1.00  0.00    -0.292 OA
BRANCH  16  18
HETATM   18  C9  UNK     1      19.535  -1.657  34.463  1.00  0.00     0.086 A 
HETATM   19  C12 UNK     1      18.916  -0.470  34.458  1.00  0.00     0.035 A 
HETATM   20  C13 UNK     1      18.359   0.071  35.688  1.00  0.00    -0.001 A 
HETATM   21  C15 UNK     1      18.479  -0.664  36.863  1.00  0.00     0.089 A 
HETATM   22  C16 UNK     1      17.704   1.305  35.730  1.00  0.00     0.014 A 
HETATM   23  C17 UNK     1      17.968  -0.202  38.074  1.00  0.00     0.038 A 
HETATM   24  O4  UNK     1      19.131  -1.913  36.862  1.00  0.00    -0.274 OA
HETATM   25  C19 UNK     1      17.317   1.030  38.107  1.00  0.00     0.003 A 
HETATM   26  C18 UNK     1      17.186   1.782  36.937  1.00  0.00     0.001 A 
HETATM   27  C14 UNK     1      19.675  -2.456  35.702  1.00  0.00     0.302 A 
HETATM   28  O5  UNK     1      20.241  -3.544  35.709  1.00  0.00    -0.259 OA
ENDBRANCH  16  18
ENDBRANCH  15  16
ENDBRANCH   4  15
TORSDOF 4
ENDMDL
MODEL 2
REMARK VINA RESULT:      -9.7      5.388      8.321
REMARK  4 active torsions:
REMARK  status: ('A' for Active; 'I' for Inactive)
REMARK    1  A    between atoms: C1_8  and  O1_2 
REMARK    2  A    between atoms: C1_8  and  C3_10 
REMARK    3  A    between atoms: C3_10  and  C7_14 
REMARK    4  A    between atoms: C7_14  and  C9_16 
ROOT
HETATM    1 Cl1  UNK     1      24.044  -9.188  37.089  1.00  0.00    -0.084 Cl
HETATM    2  O2  UNK     1      17.010  -6.490  36.910  1.00  0.00    -0.269 OA
HETATM    3  N1  UNK     1      18.252  -8.478  36.757  1.00  0.00    -0.324 N 
HETATM    4  C1  UNK     1      19.471  -6.471  37.061  1.00  0.00     0.174 A 
HETATM    5  C2  UNK     1      20.371  -7.672  36.993  1.00  0.00     0.014 A 
HETATM    6  C4  UNK     1      19.599  -8.819  36.814  1.00  0.00     0.044 A 
HETATM    7  C5  UNK     1      18.070  -7.097  36.897  1.00  0.00     0.262 A 
HETATM    8  C6  UNK     1      21.748  -7.763  37.082  1.00  0.00     0.036 A 
HETATM    9  C8  UNK     1      20.150 -10.080  36.715  1.00  0.00     0.032 A 
HETATM   10  C10 UNK     1      22.333  -9.030  36.984  1.00  0.00     0.034 A 
HETATM   11  C11 UNK     1      21.540 -10.178  36.801  1.00  0.00     0.026 A 
HETATM   12  H3  UNK     1      17.507  -9.154  36.634  1.00  0.00     0.169 HD
ENDROOT
BRANCH   4  13
HETATM   13  O1  UNK     1      19.550  -5.882  38.344  1.00  0.00    -0.375 OA
HETATM   14  H6  UNK     1      19.857  -4.964  38.250  1.00  0.00     0.211 HD
ENDBRANCH   4  13
BRANCH   4  15
HETATM   15  C3  UNK     1      19.748  -5.443  35.973  1.00  0.00     0.137 C 
BRANCH  15  16
HETATM   16  C7  UNK     1      20.465  -4.221  36.507  1.00  0.00     0.169 C 
HETATM   17  O3  UNK     1      21.477  -4.270  37.200  1.00  0.00    -0.292 OA
BRANCH  16  18
HETATM   18  C9  UNK     1      19.880  -2.914  36.152  1.00  0.00     0.086 A 
HETATM   19  C12 UNK     1      19.143  -2.320  37.099  1.00  0.00     0.035 A 
HETATM   20  C13 UNK     1      18.524  -1.028  36.843  1.00  0.00    -0.001 A 
HETATM   21  C15 UNK     1      18.713  -0.424  35.604  1.00  0.00     0.089 A 
HETATM   22  C16 UNK     1      17.747  -0.371  37.801  1.00  0.00     0.014 A 
HETATM   23  C17 UNK     1      18.148   0.811  35.295  1.00  0.00     0.038 A 
HETATM   24  O4  UNK     1      19.490  -1.055  34.612  1.00  0.00    -0.274 OA
HETATM   25  C19 UNK     1      17.374   1.459  36.256  1.00  0.00     0.003 A 
HETATM   26  C18 UNK     1      17.174   0.869  37.506  1.00  0.00     0.001 A 
HETATM   27  C14 UNK     1      20.093  -2.290  34.826  1.00  0.00     0.302 A 
HETATM   28  O5  UNK     1      20.768  -2.832  33.958  1.00  0.00    -0.259 OA
ENDBRANCH  16  18
ENDBRANCH  15  16
ENDBRANCH   4  15
TORSDOF 4
ENDMDL
MODEL 3
REMARK VINA RESULT:      -9.3      7.028      9.384
REMARK  4 active torsions:
REMARK  status: ('A' for Active; 'I' for Inactive)
REMARK    1  A    between atoms: C1_8  and  O1_2 
REMARK    2  A    between atoms: C1_8  and  C3_10 
REMARK    3  A    between atoms: C3_10  and  C7_14 
REMARK    4  A    between atoms: C7_14  and  C9_16 
ROOT
HETATM    1 Cl1  UNK     1      17.245  12.429  34.978  1.00  0.00    -0.084 Cl
HETATM    2  O2  UNK     1      13.865   6.616  31.573  1.00  0.00    -0.269 OA
HETATM    3  N1  UNK     1      13.429   8.599  32.754  1.00  0.00    -0.324 N 
HETATM    4  C1  UNK     1      15.702   8.027  32.420  1.00  0.00     0.174 A 
HETATM    5  C2  UNK     1      15.551   9.318  33.172  1.00  0.00     0.014 A 
HETATM    6  C4  UNK     1      14.197   9.601  33.338  1.00  0.00     0.044 A 
HETATM    7  C5  UNK     1      14.235   7.612  32.177  1.00  0.00     0.262 A 
HETATM    8  C6  UNK     1      16.512  10.180  33.671  1.00  0.00     0.036 A 
HETATM    9  C8  UNK     1      13.746  10.728  33.995  1.00  0.00     0.032 A 
HETATM   10  C10 UNK     1      16.082  11.329  34.342  1.00  0.00     0.034 A 
HETATM   11  C11 UNK     1      14.711  11.601  34.502  1.00  0.00     0.026 A 
HETATM   12  H3  UNK     1      12.416   8.599  32.751  1.00  0.00     0.169 HD
ENDROOT
BRANCH   4  13
HETATM   13  O1  UNK     1      16.313   8.267  31.167  1.00  0.00    -0.375 OA
HETATM   14  H6  UNK     1      17.194   7.857  31.164  1.00  0.00     0.211 HD
ENDBRANCH   4  13
BRANCH   4  15
HETATM   15  C3  UNK     1      16.458   6.957  33.196  1.00  0.00     0.137 C 
BRANCH  15  16
HETATM   16  C7  UNK     1      17.887   6.805  32.722  1.00  0.00     0.169 C 
HETATM   17  O3  UNK     1      18.765   7.642  32.915  1.00  0.00    -0.292 OA
BRANCH  16  18
HETATM   18  C9  UNK     1      18.203   5.566  31.985  1.00  0.00     0.086 A 
HETATM   19  C12 UNK     1      18.156   4.431  32.693  1.00  0.00     0.035 A 
HETATM   20  C13 UNK     1      18.452   3.157  32.054  1.00  0.00    -0.001 A 
HETATM   21  C15 UNK     1      18.781   3.141  30.702  1.00  0.00     0.089 A 
HETATM   22  C16 UNK     1      18.416   1.947  32.753  1.00  0.00     0.014 A 
HETATM   23  C17 UNK     1      19.076   1.956  30.032  1.00  0.00     0.038 A 
HETATM   24  O4  UNK     1      18.828   4.340  29.964  1.00  0.00    -0.274 OA
HETATM   25  C19 UNK     1      19.038   0.754  30.737  1.00  0.00     0.003 A 
HETATM   26  C18 UNK     1      18.709   0.750  32.094  1.00  0.00     0.001 A 
HETATM   27  C14 UNK     1      18.551   5.573  30.546  1.00  0.00     0.302 A 
HETATM   28  O5  UNK     1      18.594   6.611  29.896  1.00  0.00    -0.259 OA
ENDBRANCH  16  18
ENDBRANCH  15  16
ENDBRANCH   4  15
TORSDOF 4
ENDMDL
MODEL 4
REMARK VINA RESULT:      -9.0      4.277      6.617
REMARK  4 active torsions:
REMARK  status: ('A' for Active; 'I' for Inactive)
REMARK    1  A    between atoms: C1_8  and  O1_2 
REMARK    2  A    between atoms: C1_8  and  C3_10 
REMARK    3  A    between atoms: C3_10  and  C7_14 
REMARK    4  A    between atoms: C7_14  and  C9_16 
ROOT
HETATM    1 Cl1  UNK     1      17.191   1.011  37.884  1.00  0.00    -0.084 Cl
HETATM    2  O2  UNK     1      21.069  -3.202  32.984  1.00  0.00    -0.269 OA
HETATM    3  N1  UNK     1      19.527  -1.435  33.117  1.00  0.00    -0.324 N 
HETATM    4  C1  UNK     1      20.236  -2.397  35.161  1.00  0.00     0.174 A 
HETATM    5  C2  UNK     1      19.265  -1.271  35.375  1.00  0.00     0.014 A 
HETATM    6  C4  UNK     1      18.885  -0.747  34.141  1.00  0.00     0.044 A 
HETATM    7  C5  UNK     1      20.359  -2.441  33.623  1.00  0.00     0.262 A 
HETATM    8  C6  UNK     1      18.754  -0.741  36.546  1.00  0.00     0.036 A 
HETATM    9  C8  UNK     1      17.997   0.302  34.018  1.00  0.00     0.032 A 
HETATM   10  C10 UNK     1      17.851   0.323  36.450  1.00  0.00     0.034 A 
HETATM   11  C11 UNK     1      17.476   0.840  35.196  1.00  0.00     0.026 A 
HETATM   12  H3  UNK     1      19.403  -1.223  32.134  1.00  0.00     0.169 HD
ENDROOT
BRANCH   4  13
HETATM   13  O1  UNK     1      21.497  -2.055  35.701  1.00  0.00    -0.375 OA
HETATM   14  H6  UNK     1      21.548  -2.386  36.614  1.00  0.00     0.211 HD
ENDBRANCH   4  13
BRANCH   4  15
HETATM   15  C3  UNK     1      19.751  -3.730  35.715  1.00  0.00     0.137 C 
BRANCH  15  16
HETATM   16  C7  UNK     1      20.307  -4.015  37.093  1.00  0.00     0.169 C 
HETATM   17  O3  UNK     1      20.532  -3.148  37.933  1.00  0.00    -0.292 OA
BRANCH  16  18
HETATM   18  C9  UNK     1      20.583  -5.431  37.407  1.00  0.00     0.086 A 
HETATM   19  C12 UNK     1      19.613  -6.302  37.103  1.00  0.00     0.035 A 
HETATM   20  C13 UNK     1      19.792  -7.721  37.375  1.00  0.00    -0.001 A 
HETATM   21  C15 UNK     1      20.983  -8.151  37.951  1.00  0.00     0.089 A 
HETATM   22  C16 UNK     1      18.808  -8.666  37.075  1.00  0.00     0.014 A 
HETATM   23  C17 UNK     1      21.216  -9.495  38.237  1.00  0.00     0.038 A 
HETATM   24  O4  UNK     1      21.999  -7.229  38.268  1.00  0.00    -0.274 OA
HETATM   25  C19 UNK     1      20.229 -10.431  37.935  1.00  0.00     0.003 A 
HETATM   26  C18 UNK     1      19.027 -10.018  37.355  1.00  0.00     0.001 A 
HETATM   27  C14 UNK     1      21.857  -5.866  38.021  1.00  0.00     0.302 A 
HETATM   28  O5  UNK     1      22.746  -5.070  38.300  1.00  0.00    -0.259 OA
ENDBRANCH  16  18
ENDBRANCH  15  16
ENDBRANCH   4  15
TORSDOF 4
ENDMDL
MODEL 5
REMARK VINA RESULT:      -8.8      4.628      6.746
REMARK  4 active torsions:
REMARK  status: ('A' for Active; 'I' for Inactive)
REMARK    1  A    between atoms: C1_8  and  O1_2 
REMARK    2  A    between atoms: C1_8  and  C3_10 
REMARK    3  A    between atoms: C3_10  and  C7_14 
REMARK    4  A    between atoms: C7_14  and  C9_16 
ROOT
HETATM    1 Cl1  UNK     1      17.494   1.615  36.434  1.00  0.00    -0.084 Cl
HETATM    2  O2  UNK     1      19.136   1.220  29.089  1.00  0.00    -0.269 OA
HETATM    3  N1  UNK     1      19.027  -0.068  31.049  1.00  0.00    -0.324 N 
HETATM    4  C1  UNK     1      18.475   2.226  31.241  1.00  0.00     0.174 A 
HETATM    5  C2  UNK     1      18.354   1.506  32.554  1.00  0.00     0.014 A 
HETATM    6  C4  UNK     1      18.691   0.165  32.379  1.00  0.00     0.044 A 
HETATM    7  C5  UNK     1      18.928   1.101  30.287  1.00  0.00     0.262 A 
HETATM    8  C6  UNK     1      17.980   1.976  33.800  1.00  0.00     0.036 A 
HETATM    9  C8  UNK     1      18.673  -0.748  33.413  1.00  0.00     0.032 A 
HETATM   10  C10 UNK     1      17.954   1.071  34.866  1.00  0.00     0.034 A 
HETATM   11  C11 UNK     1      18.298  -0.280  34.673  1.00  0.00     0.026 A 
HETATM   12  H3  UNK     1      19.303  -0.975  30.692  1.00  0.00     0.169 HD
ENDROOT
BRANCH   4  13
HETATM   13  O1  UNK     1      17.203   2.682  30.823  1.00  0.00    -0.375 OA
HETATM   14  H6  UNK     1      16.695   2.957  31.605  1.00  0.00     0.211 HD
ENDBRANCH   4  13
BRANCH   4  15
HETATM   15  C3  UNK     1      19.481   3.368  31.266  1.00  0.00     0.137 C 
BRANCH  15  16
HETATM   16  C7  UNK     1      18.904   4.654  30.712  1.00  0.00     0.169 C 
HETATM   17  O3  UNK     1      18.696   4.852  29.518  1.00  0.00    -0.292 OA
BRANCH  16  18
HETATM   18  C9  UNK     1      18.588   5.706  31.698  1.00  0.00     0.086 A 
HETATM   19  C12 UNK     1      17.289   5.927  31.930  1.00  0.00     0.035 A 
HETATM   20  C13 UNK     1      16.878   6.945  32.885  1.00  0.00    -0.001 A 
HETATM   21  C15 UNK     1      17.856   7.679  33.550  1.00  0.00     0.089 A 
HETATM   22  C16 UNK     1      15.534   7.211  33.160  1.00  0.00     0.014 A 
HETATM   23  C17 UNK     1      17.529   8.668  34.475  1.00  0.00     0.038 A 
HETATM   24  O4  UNK     1      19.222   7.441  33.301  1.00  0.00    -0.274 OA
HETATM   25  C19 UNK     1      16.186   8.926  34.743  1.00  0.00     0.003 A 
HETATM   26  C18 UNK     1      15.190   8.199  34.086  1.00  0.00     0.001 A 
HETATM   27  C14 UNK     1      19.645   6.475  32.393  1.00  0.00     0.302 A 
HETATM   28  O5  UNK     1      20.836   6.274  32.182  1.00  0.00    -0.259 OA
ENDBRANCH  16  18
ENDBRANCH  15  16
ENDBRANCH   4  15
TORSDOF 4
ENDMDL
MODEL 6
REMARK VINA RESULT:      -8.7     24.468     26.208
REMARK  4 active torsions:
REMARK  status: ('A' for Active; 'I' for Inactive)
REMARK    1  A    between atoms: C1_8  and  O1_2 
REMARK    2  A    between atoms: C1_8  and  C3_10 
REMARK    3  A    between atoms: C3_10  and  C7_14 
REMARK    4  A    between atoms: C7_14  and  C9_16 
ROOT
HETATM    1 Cl1  UNK     1      10.946  10.461  11.064  1.00  0.00    -0.084 Cl
HETATM    2  O2  UNK     1      17.841   7.562  10.146  1.00  0.00    -0.269 OA
HETATM    3  N1  UNK     1      16.708   9.527  10.755  1.00  0.00    -0.324 N 
HETATM    4  C1  UNK     1      15.378   7.662  10.156  1.00  0.00     0.174 A 
HETATM    5  C2  UNK     1      14.542   8.851  10.539  1.00  0.00     0.014 A 
HETATM    6  C4  UNK     1      15.377   9.913  10.879  1.00  0.00     0.044 A 
HETATM    7  C5  UNK     1      16.814   8.198  10.330  1.00  0.00     0.262 A 
HETATM    8  C6  UNK     1      13.167   8.998  10.590  1.00  0.00     0.036 A 
HETATM    9  C8  UNK     1      14.894  11.143  11.275  1.00  0.00     0.032 A 
HETATM   10  C10 UNK     1      12.651  10.236  10.987  1.00  0.00     0.034 A 
HETATM   11  C11 UNK     1      13.508  11.299  11.326  1.00  0.00     0.026 A 
HETATM   12  H3  UNK     1      17.490  10.139  10.954  1.00  0.00     0.169 HD
ENDROOT
BRANCH   4  13
HETATM   13  O1  UNK     1      15.177   6.613  11.083  1.00  0.00    -0.375 OA
HETATM   14  H6  UNK     1      15.768   5.875  10.855  1.00  0.00     0.211 HD
ENDBRANCH   4  13
BRANCH   4  15
HETATM   15  C3  UNK     1      15.134   7.183   8.732  1.00  0.00     0.137 C 
BRANCH  15  16
HETATM   16  C7  UNK     1      14.428   5.845   8.689  1.00  0.00     0.169 C 
HETATM   17  O3  UNK     1      15.002   4.765   8.799  1.00  0.00    -0.292 OA
BRANCH  16  18
HETATM   18  C9  UNK     1      12.965   5.884   8.501  1.00  0.00     0.086 A 
HETATM   19  C12 UNK     1      12.536   6.183   7.269  1.00  0.00     0.035 A 
HETATM   20  C13 UNK     1      11.110   6.246   6.985  1.00  0.00    -0.001 A 
HETATM   21  C15 UNK     1      10.207   5.989   8.011  1.00  0.00     0.089 A 
HETATM   22  C16 UNK     1      10.617   6.554   5.714  1.00  0.00     0.014 A 
HETATM   23  C17 UNK     1       8.829   6.033   7.805  1.00  0.00     0.038 A 
HETATM   24  O4  UNK     1      10.665   5.674   9.306  1.00  0.00    -0.274 OA
HETATM   25  C19 UNK     1       8.346   6.342   6.535  1.00  0.00     0.003 A 
HETATM   26  C18 UNK     1       9.238   6.602   5.492  1.00  0.00     0.001 A 
HETATM   27  C14 UNK     1      12.022   5.608   9.608  1.00  0.00     0.302 A 
HETATM   28  O5  UNK     1      12.412   5.333  10.737  1.00  0.00    -0.259 OA
ENDBRANCH  16  18
ENDBRANCH  15  16
ENDBRANCH   4  15
TORSDOF 4
ENDMDL
MODEL 7
REMARK VINA RESULT:      -8.7      3.348      7.282
REMARK  4 active torsions:
REMARK  status: ('A' for Active; 'I' for Inactive)
REMARK    1  A    between atoms: C1_8  and  O1_2 
REMARK    2  A    between atoms: C1_8  and  C3_10 
REMARK    3  A    between atoms: C3_10  and  C7_14 
REMARK    4  A    between atoms: C7_14  and  C9_16 
ROOT
HETATM    1 Cl1  UNK     1      20.915  -3.548  33.529  1.00  0.00    -0.084 Cl
HETATM    2  O2  UNK     1      17.322   1.321  38.022  1.00  0.00    -0.269 OA
HETATM    3  N1  UNK     1      18.001  -0.922  37.863  1.00  0.00    -0.324 N 
HETATM    4  C1  UNK     1      18.525   0.490  36.037  1.00  0.00     0.174 A 
HETATM    5  C2  UNK     1      19.022  -0.912  35.825  1.00  0.00     0.014 A 
HETATM    6  C4  UNK     1      18.685  -1.693  36.929  1.00  0.00     0.044 A 
HETATM    7  C5  UNK     1      17.856   0.399  37.424  1.00  0.00     0.262 A 
HETATM    8  C6  UNK     1      19.713  -1.465  34.763  1.00  0.00     0.036 A 
HETATM    9  C8  UNK     1      19.010  -3.031  37.023  1.00  0.00     0.032 A 
HETATM   10  C10 UNK     1      20.055  -2.820  34.831  1.00  0.00     0.034 A 
HETATM   11  C11 UNK     1      19.706  -3.596  35.952  1.00  0.00     0.026 A 
HETATM   12  H3  UNK     1      17.661  -1.282  38.747  1.00  0.00     0.169 HD
ENDROOT
BRANCH   4  13
HETATM   13  O1  UNK     1      19.620   1.381  36.126  1.00  0.00    -0.375 OA
HETATM   14  H6  UNK     1      20.195   1.099  36.857  1.00  0.00     0.211 HD
ENDBRANCH   4  13
BRANCH   4  15
HETATM   15  C3  UNK     1      17.536   0.949  34.975  1.00  0.00     0.137 C 
BRANCH  15  16
HETATM   16  C7  UNK     1      18.098   2.055  34.107  1.00  0.00     0.169 C 
HETATM   17  O3  UNK     1      18.292   3.202  34.501  1.00  0.00    -0.292 OA
BRANCH  16  18
HETATM   18  C9  UNK     1      18.415   1.694  32.712  1.00  0.00     0.086 A 
HETATM   19  C12 UNK     1      19.007   0.507  32.529  1.00  0.00     0.035 A 
HETATM   20  C13 UNK     1      19.360   0.062  31.189  1.00  0.00    -0.001 A 
HETATM   21  C15 UNK     1      19.070   0.888  30.108  1.00  0.00     0.089 A 
HETATM   22  C16 UNK     1      19.978  -1.168  30.951  1.00  0.00     0.014 A 
HETATM   23  C17 UNK     1      19.382   0.522  28.800  1.00  0.00     0.038 A 
HETATM   24  O4  UNK     1      18.448   2.136  30.307  1.00  0.00    -0.274 OA
HETATM   25  C19 UNK     1      19.999  -0.707  28.571  1.00  0.00     0.003 A 
HETATM   26  C18 UNK     1      20.297  -1.550  29.645  1.00  0.00     0.001 A 
HETATM   27  C14 UNK     1      18.100   2.589  31.576  1.00  0.00     0.302 A 
HETATM   28  O5  UNK     1      17.557   3.676  31.740  1.00  0.00    -0.259 OA
ENDBRANCH  16  18
ENDBRANCH  15  16
ENDBRANCH   4  15
TORSDOF 4
ENDMDL
MODEL 8
REMARK VINA RESULT:      -8.6     12.485     14.159
REMARK  4 active torsions:
REMARK  status: ('A' for Active; 'I' for Inactive)
REMARK    1  A    between atoms: C1_8  and  O1_2 
REMARK    2  A    between atoms: C1_8  and  C3_10 
REMARK    3  A    between atoms: C3_10  and  C7_14 
REMARK    4  A    between atoms: C7_14  and  C9_16 
ROOT
HETATM    1 Cl1  UNK     1      31.963  -9.758  36.100  1.00  0.00    -0.084 Cl
HETATM    2  O2  UNK     1      25.215  -8.375  39.158  1.00  0.00    -0.269 OA
HETATM    3  N1  UNK     1      26.266  -8.960  37.141  1.00  0.00    -0.324 N 
HETATM    4  C1  UNK     1      27.665  -8.615  39.020  1.00  0.00     0.174 A 
HETATM    5  C2  UNK     1      28.449  -8.997  37.797  1.00  0.00     0.014 A 
HETATM    6  C4  UNK     1      27.575  -9.186  36.727  1.00  0.00     0.044 A 
HETATM    7  C5  UNK     1      26.214  -8.615  38.496  1.00  0.00     0.262 A 
HETATM    8  C6  UNK     1      29.811  -9.170  37.625  1.00  0.00     0.036 A 
HETATM    9  C8  UNK     1      28.007  -9.545  35.467  1.00  0.00     0.032 A 
HETATM   10  C10 UNK     1      30.275  -9.533  36.357  1.00  0.00     0.034 A 
HETATM   11  C11 UNK     1      29.380  -9.719  35.287  1.00  0.00     0.026 A 
HETATM   12  H3  UNK     1      25.463  -9.043  36.529  1.00  0.00     0.169 HD
ENDROOT
BRANCH   4  13
HETATM   13  O1  UNK     1      27.785  -9.623  40.004  1.00  0.00    -0.375 OA
HETATM   14  H6  UNK     1      28.441  -9.340  40.664  1.00  0.00     0.211 HD
ENDBRANCH   4  13
BRANCH   4  15
HETATM   15  C3  UNK     1      28.049  -7.255  39.585  1.00  0.00     0.137 C 
BRANCH  15  16
HETATM   16  C7  UNK     1      27.824  -6.135  38.592  1.00  0.00     0.169 C 
HETATM   17  O3  UNK     1      26.714  -5.750  38.235  1.00  0.00    -0.292 OA
BRANCH  16  18
HETATM   18  C9  UNK     1      29.035  -5.495  38.043  1.00  0.00     0.086 A 
HETATM   19  C12 UNK     1      29.447  -5.939  36.849  1.00  0.00     0.035 A 
HETATM   20  C13 UNK     1      30.633  -5.370  36.225  1.00  0.00    -0.001 A 
HETATM   21  C15 UNK     1      31.324  -4.361  36.889  1.00  0.00     0.089 A 
HETATM   22  C16 UNK     1      31.100  -5.801  34.981  1.00  0.00     0.014 A 
HETATM   23  C17 UNK     1      32.466  -3.775  36.346  1.00  0.00     0.038 A 
HETATM   24  O4  UNK     1      30.885  -3.899  38.145  1.00  0.00    -0.274 OA
HETATM   25  C19 UNK     1      32.925  -4.212  35.105  1.00  0.00     0.003 A 
HETATM   26  C18 UNK     1      32.244  -5.223  34.424  1.00  0.00     0.001 A 
HETATM   27  C14 UNK     1      29.756  -4.424  38.766  1.00  0.00     0.302 A 
HETATM   28  O5  UNK     1      29.380  -4.016  39.860  1.00  0.00    -0.259 OA
ENDBRANCH  16  18
ENDBRANCH  15  16
ENDBRANCH   4  15
TORSDOF 4
ENDMDL
MODEL 9
REMARK VINA RESULT:      -8.5      4.062      6.607
REMARK  4 active torsions:
REMARK  status: ('A' for Active; 'I' for Inactive)
REMARK    1  A    between atoms: C1_8  and  O1_2 
REMARK    2  A    between atoms: C1_8  and  C3_10 
REMARK    3  A    between atoms: C3_10  and  C7_14 
REMARK    4  A    between atoms: C7_14  and  C9_16 
ROOT
HETATM    1 Cl1  UNK     1      19.049  -0.146  31.345  1.00  0.00    -0.084 Cl
HETATM    2  O2  UNK     1      18.117  -1.197  38.749  1.00  0.00    -0.269 OA
HETATM    3  N1  UNK     1      18.024   0.443  37.070  1.00  0.00    -0.324 N 
HETATM    4  C1  UNK     1      18.633  -1.746  36.401  1.00  0.00     0.174 A 
HETATM    5  C2  UNK     1      18.594  -0.793  35.240  1.00  0.00     0.014 A 
HETATM    6  C4  UNK     1      18.232   0.474  35.695  1.00  0.00     0.044 A 
HETATM    7  C5  UNK     1      18.237  -0.840  37.586  1.00  0.00     0.262 A 
HETATM    8  C6  UNK     1      18.851  -1.007  33.898  1.00  0.00     0.036 A 
HETATM    9  C8  UNK     1      18.113   1.561  34.853  1.00  0.00     0.032 A 
HETATM   10  C10 UNK     1      18.738   0.078  33.024  1.00  0.00     0.034 A 
HETATM   11  C11 UNK     1      18.373   1.352  33.498  1.00  0.00     0.026 A 
HETATM   12  H3  UNK     1      17.750   1.251  37.614  1.00  0.00     0.169 HD
ENDROOT
BRANCH   4  13
HETATM   13  O1  UNK     1      17.637  -2.738  36.244  1.00  0.00    -0.375 OA
HETATM   14  H6  UNK     1      18.067  -3.582  36.028  1.00  0.00     0.211 HD
ENDBRANCH   4  13
BRANCH   4  15
HETATM   15  C3  UNK     1      20.000  -2.379  36.621  1.00  0.00     0.137 C 
BRANCH  15  16
HETATM   16  C7  UNK     1      20.130  -3.719  35.930  1.00  0.00     0.169 C 
HETATM   17  O3  UNK     1      20.190  -3.858  34.711  1.00  0.00    -0.292 OA
BRANCH  16  18
HETATM   18  C9  UNK     1      20.181  -4.904  36.808  1.00  0.00     0.086 A 
HETATM   19  C12 UNK     1      21.346  -5.130  37.427  1.00  0.00     0.035 A 
HETATM   20  C13 UNK     1      21.495  -6.275  38.313  1.00  0.00    -0.001 A 
HETATM   21  C15 UNK     1      20.409  -7.124  38.505  1.00  0.00     0.089 A 
HETATM   22  C16 UNK     1      22.692  -6.550  38.980  1.00  0.00     0.014 A 
HETATM   23  C17 UNK     1      20.487  -8.237  39.339  1.00  0.00     0.038 A 
HETATM   24  O4  UNK     1      19.186  -6.881  37.850  1.00  0.00    -0.274 OA
HETATM   25  C19 UNK     1      21.684  -8.504  40.001  1.00  0.00     0.003 A 
HETATM   26  C18 UNK     1      22.784  -7.663  39.821  1.00  0.00     0.001 A 
HETATM   27  C14 UNK     1      19.014  -5.795  36.996  1.00  0.00     0.302 A 
HETATM   28  O5  UNK     1      17.946  -5.590  36.431  1.00  0.00    -0.259 OA
ENDBRANCH  16  18
ENDBRANCH  15  16
ENDBRANCH   4  15
TORSDOF 4
ENDMDL
MODEL 10
REMARK VINA RESULT:      -8.5     24.484     26.278
REMARK  4 active torsions:
REMARK  status: ('A' for Active; 'I' for Inactive)
REMARK    1  A    between atoms: C1_8  and  O1_2 
REMARK    2  A    between atoms: C1_8  and  C3_10 
REMARK    3  A    between atoms: C3_10  and  C7_14 
REMARK    4  A    between atoms: C7_14  and  C9_16 
ROOT
HETATM    1 Cl1  UNK     1       4.456   9.449  11.033  1.00  0.00    -0.084 Cl
HETATM    2  O2  UNK     1       9.313   3.825   9.775  1.00  0.00    -0.269 OA
HETATM    3  N1  UNK     1       7.713   4.602  11.309  1.00  0.00    -0.324 N 
HETATM    4  C1  UNK     1       8.107   5.942   9.397  1.00  0.00     0.174 A 
HETATM    5  C2  UNK     1       7.056   6.534  10.293  1.00  0.00     0.014 A 
HETATM    6  C4  UNK     1       6.869   5.704  11.397  1.00  0.00     0.044 A 
HETATM    7  C5  UNK     1       8.493   4.650  10.148  1.00  0.00     0.262 A 
HETATM    8  C6  UNK     1       6.319   7.697  10.160  1.00  0.00     0.036 A 
HETATM    9  C8  UNK     1       5.962   5.989  12.397  1.00  0.00     0.032 A 
HETATM   10  C10 UNK     1       5.394   8.010  11.160  1.00  0.00     0.034 A 
HETATM   11  C11 UNK     1       5.217   7.163  12.270  1.00  0.00     0.026 A 
HETATM   12  H3  UNK     1       7.746   3.864  12.002  1.00  0.00     0.169 HD
ENDROOT
BRANCH   4  13
HETATM   13  O1  UNK     1       7.535   5.583   8.155  1.00  0.00    -0.375 OA
HETATM   14  H6  UNK     1       8.209   5.132   7.618  1.00  0.00     0.211 HD
ENDBRANCH   4  13
BRANCH   4  15
HETATM   15  C3  UNK     1       9.314   6.848   9.198  1.00  0.00     0.137 C 
BRANCH  15  16
HETATM   16  C7  UNK     1      10.341   6.239   8.267  1.00  0.00     0.169 C 
HETATM   17  O3  UNK     1      10.074   5.781   7.160  1.00  0.00    -0.292 OA
BRANCH  16  18
HETATM   18  C9  UNK     1      11.733   6.213   8.758  1.00  0.00     0.086 A 
HETATM   19  C12 UNK     1      12.188   7.348   9.303  1.00  0.00     0.035 A 
HETATM   20  C13 UNK     1      13.548   7.420   9.815  1.00  0.00    -0.001 A 
HETATM   21  C15 UNK     1      14.361   6.294   9.728  1.00  0.00     0.089 A 
HETATM   22  C16 UNK     1      14.066   8.582  10.392  1.00  0.00     0.014 A 
HETATM   23  C17 UNK     1      15.673   6.298  10.199  1.00  0.00     0.038 A 
HETATM   24  O4  UNK     1      13.876   5.104   9.153  1.00  0.00    -0.274 OA
HETATM   25  C19 UNK     1      16.181   7.462  10.773  1.00  0.00     0.003 A 
HETATM   26  C18 UNK     1      15.380   8.602  10.869  1.00  0.00     0.001 A 
HETATM   27  C14 UNK     1      12.580   5.004   8.654  1.00  0.00     0.302 A 
HETATM   28  O5  UNK     1      12.166   3.964   8.155  1.00  0.00    -0.259 OA
ENDBRANCH  16  18
ENDBRANCH  15  16
ENDBRANCH   4  15
TORSDOF 4
ENDMDL
