MODEL 1
REMARK VINA RESULT:      -9.2      0.000      0.000
REMARK  6 active torsions:
REMARK  status: ('A' for Active; 'I' for Inactive)
REMARK    1  A    between atoms: C6_14  and  O2_2 
REMARK    2  A    between atoms: C7_15  and  O3_3 
REMARK    3  A    between atoms: C15_23  and  O4_4 
REMARK    4  A    between atoms: C1_9  and  N1_8 
REMARK       I    between atoms: C11_19  and  N1_8 
REMARK    5  A    between atoms: C15_23  and  C2_10 
REMARK    6  A    between atoms: C11_19  and  C3_11 
ROOT
HETATM    1  O5  UNK     1      18.662   4.346  30.006  1.00  0.00    -0.267 OA
HETATM    2  N1  UNK     1      18.002   4.407  32.266  1.00  0.00    -0.322 N 
HETATM    3  C11 UNK     1      18.475   3.819  31.102  1.00  0.00     0.262 C 
HETATM    4  H2  UNK     1      17.928   3.823  33.094  1.00  0.00     0.169 HD
ENDROOT
BRANCH   2   5
HETATM    5  C1  UNK     1      17.624   5.758  32.459  1.00  0.00     0.054 A 
HETATM    6  C2  UNK     1      18.466   6.631  33.129  1.00  0.00     0.069 A 
HETATM    7  C8  UNK     1      18.072   7.958  33.308  1.00  0.00     0.059 A 
HETATM    8  C7  UNK     1      16.843   8.393  32.815  1.00  0.00     0.102 A 
HETATM    9  C6  UNK     1      16.005   7.502  32.142  1.00  0.00     0.103 A 
HETATM   10  C5  UNK     1      16.399   6.176  31.963  1.00  0.00     0.070 A 
BRANCH   6  11
HETATM   11  C15 UNK     1      19.757   6.208  33.656  1.00  0.00     0.295 C 
HETATM   12  O7  UNK     1      19.901   5.402  34.583  1.00  0.00    -0.259 OA
BRANCH  11  13
HETATM   13  O4  UNK     1      20.790   6.817  32.999  1.00  0.00    -0.322 OA
HETATM   14  C20 UNK     1      21.344   6.114  31.881  1.00  0.00     0.213 C 
ENDBRANCH  11  13
ENDBRANCH   6  11
BRANCH   8  15
HETATM   15  O3  UNK     1      16.469   9.690  32.997  1.00  0.00    -0.353 OA
HETATM   16  C19 UNK     1      17.023  10.374  34.117  1.00  0.00     0.210 C 
ENDBRANCH   8  15
BRANCH   9  17
HETATM   17  O2  UNK     1      14.802   7.916  31.657  1.00  0.00    -0.353 OA
HETATM   18  C18 UNK     1      13.636   7.348  32.250  1.00  0.00     0.210 C 
ENDBRANCH   9  17
ENDBRANCH   2   5
BRANCH   3  19
HETATM   19  C3  UNK     1      18.767   2.390  31.283  1.00  0.00     0.108 A 
HETATM   20  C12 UNK     1      18.433   1.673  32.533  1.00  0.00     0.304 A 
HETATM   21  O6  UNK     1      17.894   2.236  33.480  1.00  0.00    -0.259 OA
HETATM   22  O1  UNK     1      18.758   0.320  32.584  1.00  0.00    -0.274 OA
HETATM   23  C10 UNK     1      19.375  -0.336  31.501  1.00  0.00     0.089 A 
HETATM   24  C4  UNK     1      19.682   0.358  30.334  1.00  0.00    -0.001 A 
HETATM   25  C14 UNK     1      19.663  -1.693  31.645  1.00  0.00     0.038 A 
HETATM   26  C13 UNK     1      20.295  -0.328  29.283  1.00  0.00     0.014 A 
HETATM   27  C9  UNK     1      19.354   1.772  30.252  1.00  0.00     0.037 A 
HETATM   28  C16 UNK     1      20.589  -1.688  29.413  1.00  0.00     0.001 A 
HETATM   29  C17 UNK     1      20.274  -2.369  30.591  1.00  0.00     0.003 A 
ENDBRANCH   3  19
TORSDOF 6
ENDMDL
MODEL 2
REMARK VINA RESULT:      -9.0      7.258     13.021
REMARK  6 active torsions:
REMARK  status: ('A' for Active; 'I' for Inactive)
REMARK    1  A    between atoms: C6_14  and  O2_2 
REMARK    2  A    between atoms: C7_15  and  O3_3 
REMARK    3  A    between atoms: C15_23  and  O4_4 
REMARK    4  A    between atoms: C1_9  and  N1_8 
REMARK       I    between atoms: C11_19  and  N1_8 
REMARK    5  A    between atoms: C15_23  and  C2_10 
REMARK    6  A    between atoms: C11_19  and  C3_11 
ROOT
HETATM    1  O5  UNK     1      20.726  -4.053  37.934  1.00  0.00    -0.267 OA
HETATM    2  N1  UNK     1      19.666  -5.037  36.076  1.00  0.00    -0.322 N 
HETATM    3  C11 UNK     1      20.072  -3.993  36.894  1.00  0.00     0.262 C 
HETATM    4  H2  UNK     1      19.146  -4.804  35.235  1.00  0.00     0.169 HD
ENDROOT
BRANCH   2   5
HETATM    5  C1  UNK     1      19.914  -6.420  36.254  1.00  0.00     0.054 A 
HETATM    6  C2  UNK     1      18.867  -7.328  36.224  1.00  0.00     0.069 A 
HETATM    7  C8  UNK     1      19.135  -8.686  36.404  1.00  0.00     0.059 A 
HETATM    8  C7  UNK     1      20.444  -9.117  36.609  1.00  0.00     0.102 A 
HETATM    9  C6  UNK     1      21.488  -8.191  36.636  1.00  0.00     0.103 A 
HETATM   10  C5  UNK     1      21.221  -6.834  36.457  1.00  0.00     0.070 A 
BRANCH   6  11
HETATM   11  C15 UNK     1      17.487  -6.910  36.012  1.00  0.00     0.295 C 
HETATM   12  O7  UNK     1      16.883  -6.108  36.734  1.00  0.00    -0.259 OA
BRANCH  11  13
HETATM   13  O4  UNK     1      16.944  -7.517  34.914  1.00  0.00    -0.322 OA
HETATM   14  C20 UNK     1      15.567  -7.235  34.638  1.00  0.00     0.213 C 
ENDBRANCH  11  13
ENDBRANCH   6  11
BRANCH   8  15
HETATM   15  O3  UNK     1      20.693 -10.444  36.784  1.00  0.00    -0.353 OA
HETATM   16  C19 UNK     1      19.908 -11.130  37.757  1.00  0.00     0.210 C 
ENDBRANCH   8  15
BRANCH   9  17
HETATM   17  O2  UNK     1      22.771  -8.601  36.837  1.00  0.00    -0.353 OA
HETATM   18  C18 UNK     1      23.410  -8.166  38.035  1.00  0.00     0.210 C 
ENDBRANCH   9  17
ENDBRANCH   2   5
BRANCH   3  19
HETATM   19  C3  UNK     1      19.629  -2.688  36.386  1.00  0.00     0.108 A 
HETATM   20  C12 UNK     1      19.981  -2.212  35.030  1.00  0.00     0.304 A 
HETATM   21  O6  UNK     1      20.659  -2.886  34.262  1.00  0.00    -0.259 OA
HETATM   22  O1  UNK     1      19.501  -0.958  34.663  1.00  0.00    -0.274 OA
HETATM   23  C10 UNK     1      18.719  -0.177  35.537  1.00  0.00     0.089 A 
HETATM   24  C4  UNK     1      18.401  -0.643  36.809  1.00  0.00    -0.001 A 
HETATM   25  C14 UNK     1      18.285   1.066  35.080  1.00  0.00     0.038 A 
HETATM   26  C13 UNK     1      17.624   0.161  37.646  1.00  0.00     0.014 A 
HETATM   27  C9  UNK     1      18.888  -1.950  37.220  1.00  0.00     0.037 A 
HETATM   28  C16 UNK     1      17.181   1.410  37.202  1.00  0.00     0.001 A 
HETATM   29  C17 UNK     1      17.511   1.862  35.922  1.00  0.00     0.003 A 
ENDBRANCH   3  19
TORSDOF 6
ENDMDL
MODEL 3
REMARK VINA RESULT:      -8.7     15.567     19.727
REMARK  6 active torsions:
REMARK  status: ('A' for Active; 'I' for Inactive)
REMARK    1  A    between atoms: C6_14  and  O2_2 
REMARK    2  A    between atoms: C7_15  and  O3_3 
REMARK    3  A    between atoms: C15_23  and  O4_4 
REMARK    4  A    between atoms: C1_9  and  N1_8 
REMARK       I    between atoms: C11_19  and  N1_8 
REMARK    5  A    between atoms: C15_23  and  C2_10 
REMARK    6  A    between atoms: C11_19  and  C3_11 
ROOT
HETATM    1  O5  UNK     1      20.407  -3.317  16.205  1.00  0.00    -0.267 OA
HETATM    2  N1  UNK     1      18.235  -3.187  15.304  1.00  0.00    -0.322 N 
HETATM    3  C11 UNK     1      19.389  -2.698  15.901  1.00  0.00     0.262 C 
HETATM    4  H2  UNK     1      17.491  -2.525  15.102  1.00  0.00     0.169 HD
ENDROOT
BRANCH   2   5
HETATM    5  C1  UNK     1      17.967  -4.519  14.906  1.00  0.00     0.054 A 
HETATM    6  C2  UNK     1      18.491  -5.014  13.722  1.00  0.00     0.069 A 
HETATM    7  C8  UNK     1      18.212  -6.330  13.349  1.00  0.00     0.059 A 
HETATM    8  C7  UNK     1      17.415  -7.132  14.164  1.00  0.00     0.102 A 
HETATM    9  C6  UNK     1      16.895  -6.620  15.353  1.00  0.00     0.103 A 
HETATM   10  C5  UNK     1      17.173  -5.305  15.726  1.00  0.00     0.070 A 
BRANCH   6  11
HETATM   11  C15 UNK     1      19.327  -4.202  12.847  1.00  0.00     0.295 C 
HETATM   12  O7  UNK     1      20.557  -4.304  12.768  1.00  0.00    -0.259 OA
BRANCH  11  13
HETATM   13  O4  UNK     1      18.581  -3.313  12.125  1.00  0.00    -0.322 OA
HETATM   14  C20 UNK     1      19.196  -2.752  10.961  1.00  0.00     0.213 C 
ENDBRANCH  11  13
ENDBRANCH   6  11
BRANCH   8  15
HETATM   15  O3  UNK     1      17.150  -8.414  13.790  1.00  0.00    -0.353 OA
HETATM   16  C19 UNK     1      16.712  -8.621  12.449  1.00  0.00     0.210 C 
ENDBRANCH   8  15
BRANCH   9  17
HETATM   17  O2  UNK     1      16.115  -7.394  16.157  1.00  0.00    -0.353 OA
HETATM   18  C18 UNK     1      15.688  -6.820  17.391  1.00  0.00     0.210 C 
ENDBRANCH   9  17
ENDBRANCH   2   5
BRANCH   3  19
HETATM   19  C3  UNK     1      19.304  -1.257  16.170  1.00  0.00     0.108 A 
HETATM   20  C12 UNK     1      19.344  -0.252  15.084  1.00  0.00     0.304 A 
HETATM   21  O6  UNK     1      19.447  -0.574  13.905  1.00  0.00    -0.259 OA
HETATM   22  O1  UNK     1      19.255   1.084  15.465  1.00  0.00    -0.274 OA
HETATM   23  C10 UNK     1      19.134   1.465  16.816  1.00  0.00     0.089 A 
HETATM   24  C4  UNK     1      19.101   0.503  17.822  1.00  0.00    -0.001 A 
HETATM   25  C14 UNK     1      19.052   2.827  17.100  1.00  0.00     0.038 A 
HETATM   26  C13 UNK     1      18.980   0.920  19.149  1.00  0.00     0.014 A 
HETATM   27  C9  UNK     1      19.191  -0.901  17.454  1.00  0.00     0.037 A 
HETATM   28  C16 UNK     1      18.896   2.283  19.449  1.00  0.00     0.001 A 
HETATM   29  C17 UNK     1      18.932   3.234  18.427  1.00  0.00     0.003 A 
ENDBRANCH   3  19
TORSDOF 6
ENDMDL
MODEL 4
REMARK VINA RESULT:      -8.7      1.093      2.025
REMARK  6 active torsions:
REMARK  status: ('A' for Active; 'I' for Inactive)
REMARK    1  A    between atoms: C6_14  and  O2_2 
REMARK    2  A    between atoms: C7_15  and  O3_3 
REMARK    3  A    between atoms: C15_23  and  O4_4 
REMARK    4  A    between atoms: C1_9  and  N1_8 
REMARK       I    between atoms: C11_19  and  N1_8 
REMARK    5  A    between atoms: C15_23  and  C2_10 
REMARK    6  A    between atoms: C11_19  and  C3_11 
ROOT
HETATM    1  O5  UNK     1      17.637   3.177  32.871  1.00  0.00    -0.267 OA
HETATM    2  N1  UNK     1      18.281   4.677  31.173  1.00  0.00    -0.322 N 
HETATM    3  C11 UNK     1      18.124   3.435  31.771  1.00  0.00     0.262 C 
HETATM    4  H2  UNK     1      18.688   4.705  30.242  1.00  0.00     0.169 HD
ENDROOT
BRANCH   2   5
HETATM    5  C1  UNK     1      17.913   5.940  31.697  1.00  0.00     0.054 A 
HETATM    6  C2  UNK     1      18.843   6.717  32.368  1.00  0.00     0.069 A 
HETATM    7  C8  UNK     1      18.457   7.958  32.877  1.00  0.00     0.059 A 
HETATM    8  C7  UNK     1      17.147   8.405  32.707  1.00  0.00     0.102 A 
HETATM    9  C6  UNK     1      16.222   7.611  32.029  1.00  0.00     0.103 A 
HETATM   10  C5  UNK     1      16.607   6.371  31.520  1.00  0.00     0.070 A 
BRANCH   6  11
HETATM   11  C15 UNK     1      20.220   6.280  32.563  1.00  0.00     0.295 C 
HETATM   12  O7  UNK     1      21.008   6.029  31.643  1.00  0.00    -0.259 OA
BRANCH  11  13
HETATM   13  O4  UNK     1      20.530   6.183  33.890  1.00  0.00    -0.322 OA
HETATM   14  C20 UNK     1      19.924   5.107  34.616  1.00  0.00     0.213 C 
ENDBRANCH  11  13
ENDBRANCH   6  11
BRANCH   8  15
HETATM   15  O3  UNK     1      16.782   9.617  33.209  1.00  0.00    -0.353 OA
HETATM   16  C19 UNK     1      16.385   9.660  34.577  1.00  0.00     0.210 C 
ENDBRANCH   8  15
BRANCH   9  17
HETATM   17  O2  UNK     1      14.939   8.036  31.858  1.00  0.00    -0.353 OA
HETATM   18  C18 UNK     1      13.916   7.282  32.504  1.00  0.00     0.210 C 
ENDBRANCH   9  17
ENDBRANCH   2   5
BRANCH   3  19
HETATM   19  C3  UNK     1      18.626   2.345  30.923  1.00  0.00     0.108 A 
HETATM   20  C12 UNK     1      18.644   2.445  29.447  1.00  0.00     0.304 A 
HETATM   21  O6  UNK     1      18.243   3.443  28.858  1.00  0.00    -0.259 OA
HETATM   22  O1  UNK     1      19.144   1.346  28.752  1.00  0.00    -0.274 OA
HETATM   23  C10 UNK     1      19.609   0.195  29.418  1.00  0.00     0.089 A 
HETATM   24  C4  UNK     1      19.581   0.122  30.808  1.00  0.00    -0.001 A 
HETATM   25  C14 UNK     1      20.090  -0.854  28.637  1.00  0.00     0.038 A 
HETATM   26  C13 UNK     1      20.050  -1.036  31.431  1.00  0.00     0.014 A 
HETATM   27  C9  UNK     1      19.065   1.254  31.560  1.00  0.00     0.037 A 
HETATM   28  C16 UNK     1      20.537  -2.097  30.661  1.00  0.00     0.001 A 
HETATM   29  C17 UNK     1      20.556  -2.006  29.267  1.00  0.00     0.003 A 
ENDBRANCH   3  19
TORSDOF 6
ENDMDL
MODEL 5
REMARK VINA RESULT:      -8.6      6.469      9.451
REMARK  6 active torsions:
REMARK  status: ('A' for Active; 'I' for Inactive)
REMARK    1  A    between atoms: C6_14  and  O2_2 
REMARK    2  A    between atoms: C7_15  and  O3_3 
REMARK    3  A    between atoms: C15_23  and  O4_4 
REMARK    4  A    between atoms: C1_9  and  N1_8 
REMARK       I    between atoms: C11_19  and  N1_8 
REMARK    5  A    between atoms: C15_23  and  C2_10 
REMARK    6  A    between atoms: C11_19  and  C3_11 
ROOT
HETATM    1  O5  UNK     1      20.872  -3.264  37.673  1.00  0.00    -0.267 OA
HETATM    2  N1  UNK     1      19.054  -3.349  36.178  1.00  0.00    -0.322 N 
HETATM    3  C11 UNK     1      20.060  -3.873  36.978  1.00  0.00     0.262 C 
HETATM    4  H2  UNK     1      18.455  -4.004  35.684  1.00  0.00     0.169 HD
ENDROOT
BRANCH   2   5
HETATM    5  C1  UNK     1      18.732  -1.985  35.978  1.00  0.00     0.054 A 
HETATM    6  C2  UNK     1      19.152  -1.327  34.833  1.00  0.00     0.069 A 
HETATM    7  C8  UNK     1      18.824   0.018  34.658  1.00  0.00     0.059 A 
HETATM    8  C7  UNK     1      18.080   0.687  35.630  1.00  0.00     0.102 A 
HETATM    9  C6  UNK     1      17.664   0.011  36.778  1.00  0.00     0.103 A 
HETATM   10  C5  UNK     1      17.992  -1.333  36.953  1.00  0.00     0.070 A 
BRANCH   6  11
HETATM   11  C15 UNK     1      19.930  -1.996  33.799  1.00  0.00     0.295 C 
HETATM   12  O7  UNK     1      21.017  -2.552  33.995  1.00  0.00    -0.259 OA
BRANCH  11  13
HETATM   13  O4  UNK     1      19.308  -1.931  32.583  1.00  0.00    -0.322 OA
HETATM   14  C20 UNK     1      20.151  -1.784  31.435  1.00  0.00     0.213 C 
ENDBRANCH  11  13
ENDBRANCH   6  11
BRANCH   8  15
HETATM   15  O3  UNK     1      17.767   1.999  35.449  1.00  0.00    -0.353 OA
HETATM   16  C19 UNK     1      18.285   2.636  34.284  1.00  0.00     0.210 C 
ENDBRANCH   8  15
BRANCH   9  17
HETATM   17  O2  UNK     1      16.938   0.654  37.734  1.00  0.00    -0.353 OA
HETATM   18  C18 UNK     1      17.668   1.378  38.723  1.00  0.00     0.210 C 
ENDBRANCH   9  17
ENDBRANCH   2   5
BRANCH   3  19
HETATM   19  C3  UNK     1      20.092  -5.341  36.937  1.00  0.00     0.108 A 
HETATM   20  C12 UNK     1      20.209  -6.088  35.665  1.00  0.00     0.304 A 
HETATM   21  O6  UNK     1      20.287  -5.517  34.582  1.00  0.00    -0.259 OA
HETATM   22  O1  UNK     1      20.230  -7.477  35.755  1.00  0.00    -0.274 OA
HETATM   23  C10 UNK     1      20.143  -8.142  36.994  1.00  0.00     0.089 A 
HETATM   24  C4  UNK     1      20.032  -7.420  38.178  1.00  0.00    -0.001 A 
HETATM   25  C14 UNK     1      20.172  -9.535  36.984  1.00  0.00     0.038 A 
HETATM   26  C13 UNK     1      19.948  -8.115  39.387  1.00  0.00     0.014 A 
HETATM   27  C9  UNK     1      20.008  -5.967  38.116  1.00  0.00     0.037 A 
HETATM   28  C16 UNK     1      19.976  -9.513  39.392  1.00  0.00     0.001 A 
HETATM   29  C17 UNK     1      20.087 -10.221  38.193  1.00  0.00     0.003 A 
ENDBRANCH   3  19
TORSDOF 6
ENDMDL
MODEL 6
REMARK VINA RESULT:      -8.6     12.842     16.492
REMARK  6 active torsions:
REMARK  status: ('A' for Active; 'I' for Inactive)
REMARK    1  A    between atoms: C6_14  and  O2_2 
REMARK    2  A    between atoms: C7_15  and  O3_3 
REMARK    3  A    between atoms: C15_23  and  O4_4 
REMARK    4  A    between atoms: C1_9  and  N1_8 
REMARK       I    between atoms: C11_19  and  N1_8 
REMARK    5  A    between atoms: C15_23  and  C2_10 
REMARK    6  A    between atoms: C11_19  and  C3_11 
ROOT
HETATM    1  O5  UNK     1      26.144  -9.037  39.475  1.00  0.00    -0.267 OA
HETATM    2  N1  UNK     1      25.151  -7.947  37.639  1.00  0.00    -0.322 N 
HETATM    3  C11 UNK     1      26.102  -8.144  38.631  1.00  0.00     0.262 C 
HETATM    4  H2  UNK     1      25.284  -7.162  37.008  1.00  0.00     0.169 HD
ENDROOT
BRANCH   2   5
HETATM    5  C1  UNK     1      24.006  -8.736  37.371  1.00  0.00     0.054 A 
HETATM    6  C2  UNK     1      22.787  -8.416  37.947  1.00  0.00     0.069 A 
HETATM    7  C8  UNK     1      21.672  -9.209  37.669  1.00  0.00     0.059 A 
HETATM    8  C7  UNK     1      21.792 -10.309  36.821  1.00  0.00     0.102 A 
HETATM    9  C6  UNK     1      23.027 -10.618  36.249  1.00  0.00     0.103 A 
HETATM   10  C5  UNK     1      24.141  -9.826  36.526  1.00  0.00     0.070 A 
BRANCH   6  11
HETATM   11  C15 UNK     1      22.628  -7.275  38.838  1.00  0.00     0.295 C 
HETATM   12  O7  UNK     1      22.505  -7.361  40.065  1.00  0.00    -0.259 OA
BRANCH  11  13
HETATM   13  O4  UNK     1      22.630  -6.095  38.146  1.00  0.00    -0.322 OA
HETATM   14  C20 UNK     1      21.361  -5.462  37.948  1.00  0.00     0.213 C 
ENDBRANCH  11  13
ENDBRANCH   6  11
BRANCH   8  15
HETATM   15  O3  UNK     1      20.697 -11.075  36.558  1.00  0.00    -0.353 OA
HETATM   16  C19 UNK     1      19.478 -10.705  37.197  1.00  0.00     0.210 C 
ENDBRANCH   8  15
BRANCH   9  17
HETATM   17  O2  UNK     1      23.155 -11.690  35.419  1.00  0.00    -0.353 OA
HETATM   18  C18 UNK     1      24.232 -12.587  35.683  1.00  0.00     0.210 C 
ENDBRANCH   9  17
ENDBRANCH   2   5
BRANCH   3  19
HETATM   19  C3  UNK     1      27.153  -7.118  38.602  1.00  0.00     0.108 A 
HETATM   20  C12 UNK     1      26.844  -5.675  38.698  1.00  0.00     0.304 A 
HETATM   21  O6  UNK     1      25.694  -5.263  38.808  1.00  0.00    -0.259 OA
HETATM   22  O1  UNK     1      27.926  -4.799  38.660  1.00  0.00    -0.274 OA
HETATM   23  C10 UNK     1      29.251  -5.262  38.535  1.00  0.00     0.089 A 
HETATM   24  C4  UNK     1      29.519  -6.624  38.445  1.00  0.00    -0.001 A 
HETATM   25  C14 UNK     1      30.268  -4.310  38.505  1.00  0.00     0.038 A 
HETATM   26  C13 UNK     1      30.846  -7.043  38.322  1.00  0.00     0.014 A 
HETATM   27  C9  UNK     1      28.409  -7.563  38.483  1.00  0.00     0.037 A 
HETATM   28  C16 UNK     1      31.877  -6.100  38.292  1.00  0.00     0.001 A 
HETATM   29  C17 UNK     1      31.589  -4.736  38.383  1.00  0.00     0.003 A 
ENDBRANCH   3  19
TORSDOF 6
ENDMDL
MODEL 7
REMARK VINA RESULT:      -8.5     15.348     19.653
REMARK  6 active torsions:
REMARK  status: ('A' for Active; 'I' for Inactive)
REMARK    1  A    between atoms: C6_14  and  O2_2 
REMARK    2  A    between atoms: C7_15  and  O3_3 
REMARK    3  A    between atoms: C15_23  and  O4_4 
REMARK    4  A    between atoms: C1_9  and  N1_8 
REMARK       I    between atoms: C11_19  and  N1_8 
REMARK    5  A    between atoms: C15_23  and  C2_10 
REMARK    6  A    between atoms: C11_19  and  C3_11 
ROOT
HETATM    1  O5  UNK     1      17.672  -3.007  16.004  1.00  0.00    -0.267 OA
HETATM    2  N1  UNK     1      19.838  -2.962  15.081  1.00  0.00    -0.322 N 
HETATM    3  C11 UNK     1      18.727  -2.438  15.726  1.00  0.00     0.262 C 
HETATM    4  H2  UNK     1      20.639  -2.351  14.950  1.00  0.00     0.169 HD
ENDROOT
BRANCH   2   5
HETATM    5  C1  UNK     1      20.012  -4.280  14.595  1.00  0.00     0.054 A 
HETATM    6  C2  UNK     1      20.979  -5.107  15.146  1.00  0.00     0.069 A 
HETATM    7  C8  UNK     1      21.133  -6.402  14.649  1.00  0.00     0.059 A 
HETATM    8  C7  UNK     1      20.320  -6.853  13.610  1.00  0.00     0.102 A 
HETATM    9  C6  UNK     1      19.351  -6.009  13.066  1.00  0.00     0.103 A 
HETATM   10  C5  UNK     1      19.197  -4.714  13.562  1.00  0.00     0.070 A 
BRANCH   6  11
HETATM   11  C15 UNK     1      21.845  -4.668  16.231  1.00  0.00     0.295 C 
HETATM   12  O7  UNK     1      21.498  -3.889  17.128  1.00  0.00    -0.259 OA
BRANCH  11  13
HETATM   13  O4  UNK     1      23.090  -5.223  16.134  1.00  0.00    -0.322 OA
HETATM   14  C20 UNK     1      24.100  -4.697  17.003  1.00  0.00     0.213 C 
ENDBRANCH  11  13
ENDBRANCH   6  11
BRANCH   8  15
HETATM   15  O3  UNK     1      20.481  -8.118  13.133  1.00  0.00    -0.353 OA
HETATM   16  C19 UNK     1      21.784  -8.483  12.685  1.00  0.00     0.210 C 
ENDBRANCH   8  15
BRANCH   9  17
HETATM   17  O2  UNK     1      18.551  -6.438  12.050  1.00  0.00    -0.353 OA
HETATM   18  C18 UNK     1      18.827  -5.924  10.749  1.00  0.00     0.210 C 
ENDBRANCH   9  17
ENDBRANCH   2   5
BRANCH   3  19
HETATM   19  C3  UNK     1      18.911  -1.027  16.088  1.00  0.00     0.108 A 
HETATM   20  C12 UNK     1      19.227   0.008  15.079  1.00  0.00     0.304 A 
HETATM   21  O6  UNK     1      19.348  -0.262  13.889  1.00  0.00    -0.259 OA
HETATM   22  O1  UNK     1      19.377   1.311  15.545  1.00  0.00    -0.274 OA
HETATM   23  C10 UNK     1      19.238   1.632  16.910  1.00  0.00     0.089 A 
HETATM   24  C4  UNK     1      18.942   0.643  17.843  1.00  0.00    -0.001 A 
HETATM   25  C14 UNK     1      19.408   2.965  17.282  1.00  0.00     0.038 A 
HETATM   26  C13 UNK     1      18.812   1.001  19.187  1.00  0.00     0.014 A 
HETATM   27  C9  UNK     1      18.778  -0.728  17.386  1.00  0.00     0.037 A 
HETATM   28  C16 UNK     1      18.979   2.333  19.574  1.00  0.00     0.001 A 
HETATM   29  C17 UNK     1      19.276   3.313  18.624  1.00  0.00     0.003 A 
ENDBRANCH   3  19
TORSDOF 6
ENDMDL
MODEL 8
REMARK VINA RESULT:      -8.3     14.823     18.974
REMARK  6 active torsions:
REMARK  status: ('A' for Active; 'I' for Inactive)
REMARK    1  A    between atoms: C6_14  and  O2_2 
REMARK    2  A    between atoms: C7_15  and  O3_3 
REMARK    3  A    between atoms: C15_23  and  O4_4 
REMARK    4  A    between atoms: C1_9  and  N1_8 
REMARK       I    between atoms: C11_19  and  N1_8 
REMARK    5  A    between atoms: C15_23  and  C2_10 
REMARK    6  A    between atoms: C11_19  and  C3_11 
ROOT
HETATM    1  O5  UNK     1      17.517  -2.152  16.100  1.00  0.00    -0.267 OA
HETATM    2  N1  UNK     1      19.778  -2.112  15.441  1.00  0.00    -0.322 N 
HETATM    3  C11 UNK     1      18.651  -1.674  16.121  1.00  0.00     0.262 C 
HETATM    4  H2  UNK     1      20.646  -1.607  15.592  1.00  0.00     0.169 HD
ENDROOT
BRANCH   2   5
HETATM    5  C1  UNK     1      19.881  -3.217  14.562  1.00  0.00     0.054 A 
HETATM    6  C2  UNK     1      20.722  -4.276  14.866  1.00  0.00     0.069 A 
HETATM    7  C8  UNK     1      20.809  -5.355  13.984  1.00  0.00     0.059 A 
HETATM    8  C7  UNK     1      20.053  -5.360  12.812  1.00  0.00     0.102 A 
HETATM    9  C6  UNK     1      19.210  -4.287  12.521  1.00  0.00     0.103 A 
HETATM   10  C5  UNK     1      19.123  -3.209  13.401  1.00  0.00     0.070 A 
BRANCH   6  11
HETATM   11  C15 UNK     1      21.526  -4.301  16.080  1.00  0.00     0.295 C 
HETATM   12  O7  UNK     1      21.203  -3.754  17.141  1.00  0.00    -0.259 OA
BRANCH  11  13
HETATM   13  O4  UNK     1      22.684  -5.006  15.900  1.00  0.00    -0.322 OA
HETATM   14  C20 UNK     1      23.716  -4.808  16.872  1.00  0.00     0.213 C 
ENDBRANCH  11  13
ENDBRANCH   6  11
BRANCH   8  15
HETATM   15  O3  UNK     1      20.146  -6.418  11.959  1.00  0.00    -0.353 OA
HETATM   16  C19 UNK     1      19.469  -7.615  12.334  1.00  0.00     0.210 C 
ENDBRANCH   8  15
BRANCH   9  17
HETATM   17  O2  UNK     1      18.467  -4.281  11.379  1.00  0.00    -0.353 OA
HETATM   18  C18 UNK     1      18.996  -3.563  10.266  1.00  0.00     0.210 C 
ENDBRANCH   9  17
ENDBRANCH   2   5
BRANCH   3  19
HETATM   19  C3  UNK     1      18.927  -0.491  16.946  1.00  0.00     0.108 A 
HETATM   20  C12 UNK     1      19.178   0.840  16.350  1.00  0.00     0.304 A 
HETATM   21  O6  UNK     1      19.167   1.021  15.137  1.00  0.00    -0.259 OA
HETATM   22  O1  UNK     1      19.427   1.885  17.236  1.00  0.00    -0.274 OA
HETATM   23  C10 UNK     1      19.441   1.689  18.631  1.00  0.00     0.089 A 
HETATM   24  C4  UNK     1      19.204   0.428  19.170  1.00  0.00    -0.001 A 
HETATM   25  C14 UNK     1      19.701   2.795  19.438  1.00  0.00     0.038 A 
HETATM   26  C13 UNK     1      19.227   0.274  20.558  1.00  0.00     0.014 A 
HETATM   27  C9  UNK     1      18.940  -0.683  18.270  1.00  0.00     0.037 A 
HETATM   28  C16 UNK     1      19.485   1.374  21.380  1.00  0.00     0.001 A 
HETATM   29  C17 UNK     1      19.722   2.632  20.821  1.00  0.00     0.003 A 
ENDBRANCH   3  19
TORSDOF 6
ENDMDL
MODEL 9
REMARK VINA RESULT:      -8.3      5.025      8.070
REMARK  6 active torsions:
REMARK  status: ('A' for Active; 'I' for Inactive)
REMARK    1  A    between atoms: C6_14  and  O2_2 
REMARK    2  A    between atoms: C7_15  and  O3_3 
REMARK    3  A    between atoms: C15_23  and  O4_4 
REMARK    4  A    between atoms: C1_9  and  N1_8 
REMARK       I    between atoms: C11_19  and  N1_8 
REMARK    5  A    between atoms: C15_23  and  C2_10 
REMARK    6  A    between atoms: C11_19  and  C3_11 
ROOT
HETATM    1  O5  UNK     1      21.641  -1.984  34.690  1.00  0.00    -0.267 OA
HETATM    2  N1  UNK     1      19.440  -2.138  33.868  1.00  0.00    -0.322 N 
HETATM    3  C11 UNK     1      20.521  -2.490  34.663  1.00  0.00     0.262 C 
HETATM    4  H2  UNK     1      18.574  -2.654  33.992  1.00  0.00     0.169 HD
ENDROOT
BRANCH   2   5
HETATM    5  C1  UNK     1      19.381  -1.107  32.899  1.00  0.00     0.054 A 
HETATM    6  C2  UNK     1      18.666   0.053  33.155  1.00  0.00     0.069 A 
HETATM    7  C8  UNK     1      18.621   1.055  32.184  1.00  0.00     0.059 A 
HETATM    8  C7  UNK     1      19.290   0.885  30.974  1.00  0.00     0.102 A 
HETATM    9  C6  UNK     1      20.007  -0.288  30.731  1.00  0.00     0.103 A 
HETATM   10  C5  UNK     1      20.052  -1.290  31.700  1.00  0.00     0.070 A 
BRANCH   6  11
HETATM   11  C15 UNK     1      17.955   0.262  34.409  1.00  0.00     0.295 C 
HETATM   12  O7  UNK     1      16.723   0.274  34.517  1.00  0.00    -0.259 OA
BRANCH  11  13
HETATM   13  O4  UNK     1      18.821   0.445  35.451  1.00  0.00    -0.322 OA
HETATM   14  C20 UNK     1      18.993   1.788  35.917  1.00  0.00     0.213 C 
ENDBRANCH  11  13
ENDBRANCH   6  11
BRANCH   8  15
HETATM   15  O3  UNK     1      19.239   1.870  30.035  1.00  0.00    -0.353 OA
HETATM   16  C19 UNK     1      18.037   1.980  29.275  1.00  0.00     0.210 C 
ENDBRANCH   8  15
BRANCH   9  17
HETATM   17  O2  UNK     1      20.664  -0.465  29.552  1.00  0.00    -0.353 OA
HETATM   18  C18 UNK     1      19.920  -1.031  28.475  1.00  0.00     0.210 C 
ENDBRANCH   9  17
ENDBRANCH   2   5
BRANCH   3  19
HETATM   19  C3  UNK     1      20.207  -3.614  35.556  1.00  0.00     0.108 A 
HETATM   20  C12 UNK     1      19.942  -3.420  36.998  1.00  0.00     0.304 A 
HETATM   21  O6  UNK     1      19.968  -2.310  37.520  1.00  0.00    -0.259 OA
HETATM   22  O1  UNK     1      19.655  -4.562  37.741  1.00  0.00    -0.274 OA
HETATM   23  C10 UNK     1      19.621  -5.841  37.152  1.00  0.00     0.089 A 
HETATM   24  C4  UNK     1      19.876  -6.002  35.793  1.00  0.00    -0.001 A 
HETATM   25  C14 UNK     1      19.326  -6.926  37.976  1.00  0.00     0.038 A 
HETATM   26  C13 UNK     1      19.832  -7.286  35.246  1.00  0.00     0.014 A 
HETATM   27  C9  UNK     1      20.177  -4.826  34.991  1.00  0.00     0.037 A 
HETATM   28  C16 UNK     1      19.537  -8.383  36.060  1.00  0.00     0.001 A 
HETATM   29  C17 UNK     1      19.285  -8.204  37.422  1.00  0.00     0.003 A 
ENDBRANCH   3  19
TORSDOF 6
ENDMDL
MODEL 10
REMARK VINA RESULT:      -8.3      1.763      8.081
REMARK  6 active torsions:
REMARK  status: ('A' for Active; 'I' for Inactive)
REMARK    1  A    between atoms: C6_14  and  O2_2 
REMARK    2  A    between atoms: C7_15  and  O3_3 
REMARK    3  A    between atoms: C15_23  and  O4_4 
REMARK    4  A    between atoms: C1_9  and  N1_8 
REMARK       I    between atoms: C11_19  and  N1_8 
REMARK    5  A    between atoms: C15_23  and  C2_10 
REMARK    6  A    between atoms: C11_19  and  C3_11 
ROOT
HETATM    1  O5  UNK     1      18.761   4.436  30.716  1.00  0.00    -0.267 OA
HETATM    2  N1  UNK     1      18.197   3.070  32.549  1.00  0.00    -0.322 N 
HETATM    3  C11 UNK     1      18.302   4.260  31.843  1.00  0.00     0.262 C 
HETATM    4  H2  UNK     1      17.768   3.103  33.469  1.00  0.00     0.169 HD
ENDROOT
BRANCH   2   5
HETATM    5  C1  UNK     1      18.597   1.778  32.128  1.00  0.00     0.054 A 
HETATM    6  C2  UNK     1      18.495   0.699  32.992  1.00  0.00     0.069 A 
HETATM    7  C8  UNK     1      18.897  -0.565  32.555  1.00  0.00     0.059 A 
HETATM    8  C7  UNK     1      19.393  -0.732  31.263  1.00  0.00     0.102 A 
HETATM    9  C6  UNK     1      19.488   0.365  30.405  1.00  0.00     0.103 A 
HETATM   10  C5  UNK     1      19.088   1.627  30.841  1.00  0.00     0.070 A 
BRANCH   6  11
HETATM   11  C15 UNK     1      17.982   0.839  34.348  1.00  0.00     0.295 C 
HETATM   12  O7  UNK     1      16.782   0.923  34.634  1.00  0.00    -0.259 OA
BRANCH  11  13
HETATM   13  O4  UNK     1      18.995   0.866  35.266  1.00  0.00    -0.322 OA
HETATM   14  C20 UNK     1      19.231   2.114  35.928  1.00  0.00     0.213 C 
ENDBRANCH  11  13
ENDBRANCH   6  11
BRANCH   8  15
HETATM   15  O3  UNK     1      19.782  -1.969  30.849  1.00  0.00    -0.353 OA
HETATM   16  C19 UNK     1      20.781  -2.628  31.623  1.00  0.00     0.210 C 
ENDBRANCH   8  15
BRANCH   9  17
HETATM   17  O2  UNK     1      19.972   0.213  29.141  1.00  0.00    -0.353 OA
HETATM   18  C18 UNK     1      19.025  -0.089  28.118  1.00  0.00     0.210 C 
ENDBRANCH   9  17
ENDBRANCH   2   5
BRANCH   3  19
HETATM   19  C3  UNK     1      17.779   5.402  32.604  1.00  0.00     0.108 A 
HETATM   20  C12 UNK     1      18.485   5.951  33.782  1.00  0.00     0.304 A 
HETATM   21  O6  UNK     1      19.544   5.479  34.182  1.00  0.00    -0.259 OA
HETATM   22  O1  UNK     1      17.889   7.036  34.419  1.00  0.00    -0.274 OA
HETATM   23  C10 UNK     1      16.674   7.586  33.968  1.00  0.00     0.089 A 
HETATM   24  C4  UNK     1      16.025   7.054  32.858  1.00  0.00    -0.001 A 
HETATM   25  C14 UNK     1      16.154   8.672  34.671  1.00  0.00     0.038 A 
HETATM   26  C13 UNK     1      14.821   7.627  32.441  1.00  0.00     0.014 A 
HETATM   27  C9  UNK     1      16.623   5.921  32.171  1.00  0.00     0.037 A 
HETATM   28  C16 UNK     1      14.288   8.717  33.136  1.00  0.00     0.001 A 
HETATM   29  C17 UNK     1      14.953   9.238  34.249  1.00  0.00     0.003 A 
ENDBRANCH   3  19
TORSDOF 6
ENDMDL
