MODEL 1
REMARK VINA RESULT:      -8.7      0.000      0.000
REMARK  1 active torsions:
REMARK  status: ('A' for Active; 'I' for Inactive)
REMARK    1  A    between atoms: C3_7  and  C4_8 
ROOT
HETATM    1  F2  UNK     1      21.325  -0.973  28.345  1.00  0.00    -0.206 F 
HETATM    2  O1  UNK     1      18.416   0.492  32.777  1.00  0.00    -0.309 OA
HETATM    3  O2  UNK     1      20.634  -2.920  32.998  1.00  0.00    -0.287 OA
HETATM    4  C1  UNK     1      19.936  -1.070  31.704  1.00  0.00     0.051 A 
HETATM    5  C2  UNK     1      19.158   0.086  31.696  1.00  0.00     0.090 A 
HETATM    6  C3  UNK     1      18.444  -0.288  33.921  1.00  0.00     0.093 A 
HETATM    7  C5  UNK     1      19.970  -1.896  32.921  1.00  0.00     0.187 A 
HETATM    8  C6  UNK     1      19.155  -1.420  34.056  1.00  0.00     0.094 A 
HETATM    9  C7  UNK     1      20.671  -1.434  30.573  1.00  0.00     0.060 A 
HETATM   10  C8  UNK     1      19.109   0.886  30.554  1.00  0.00     0.041 A 
HETATM   11  C11 UNK     1      20.621  -0.632  29.432  1.00  0.00     0.117 A 
HETATM   12  C12 UNK     1      19.842   0.526  29.423  1.00  0.00     0.045 A 
ENDROOT
BRANCH   6  13
HETATM   13  C4  UNK     1      17.642   0.215  34.996  1.00  0.00     0.036 A 
HETATM   14  C10 UNK     1      16.280  -0.091  35.052  1.00  0.00     0.017 A 
HETATM   15  C14 UNK     1      15.494   0.398  36.097  1.00  0.00     0.001 A 
HETATM   16  C15 UNK     1      16.069   1.194  37.088  1.00  0.00     0.003 A 
HETATM   17  C13 UNK     1      17.428   1.501  37.034  1.00  0.00     0.043 A 
HETATM   18  C9  UNK     1      18.214   1.013  35.990  1.00  0.00     0.129 A 
HETATM   19  F1  UNK     1      19.519   1.317  35.954  1.00  0.00    -0.205 F 
ENDBRANCH   6  13
TORSDOF 1
ENDMDL
MODEL 2
REMARK VINA RESULT:      -8.7      1.171      2.369
REMARK  1 active torsions:
REMARK  status: ('A' for Active; 'I' for Inactive)
REMARK    1  A    between atoms: C3_7  and  C4_8 
ROOT
HETATM    1  F2  UNK     1      21.043  -0.946  28.218  1.00  0.00    -0.206 F 
HETATM    2  O1  UNK     1      18.792  -0.225  33.184  1.00  0.00    -0.309 OA
HETATM    3  O2  UNK     1      18.813   2.947  30.624  1.00  0.00    -0.287 OA
HETATM    4  C1  UNK     1      19.385   0.687  31.011  1.00  0.00     0.051 A 
HETATM    5  C2  UNK     1      19.343  -0.358  31.934  1.00  0.00     0.090 A 
HETATM    6  C3  UNK     1      18.259   1.004  33.539  1.00  0.00     0.093 A 
HETATM    7  C5  UNK     1      18.813   1.990  31.386  1.00  0.00     0.187 A 
HETATM    8  C6  UNK     1      18.233   2.083  32.741  1.00  0.00     0.094 A 
HETATM    9  C7  UNK     1      19.959   0.494  29.753  1.00  0.00     0.060 A 
HETATM   10  C8  UNK     1      19.878  -1.603  31.603  1.00  0.00     0.041 A 
HETATM   11  C11 UNK     1      20.493  -0.753  29.424  1.00  0.00     0.117 A 
HETATM   12  C12 UNK     1      20.452  -1.799  30.347  1.00  0.00     0.045 A 
ENDROOT
BRANCH   6  13
HETATM   13  C4  UNK     1      17.705   1.045  34.859  1.00  0.00     0.036 A 
HETATM   14  C10 UNK     1      16.441   0.503  35.102  1.00  0.00     0.017 A 
HETATM   15  C14 UNK     1      15.897   0.542  36.387  1.00  0.00     0.001 A 
HETATM   16  C15 UNK     1      16.617   1.122  37.431  1.00  0.00     0.003 A 
HETATM   17  C13 UNK     1      17.879   1.664  37.191  1.00  0.00     0.043 A 
HETATM   18  C9  UNK     1      18.423   1.626  35.907  1.00  0.00     0.129 A 
HETATM   19  F1  UNK     1      19.639   2.150  35.694  1.00  0.00    -0.205 F 
ENDBRANCH   6  13
TORSDOF 1
ENDMDL
MODEL 3
REMARK VINA RESULT:      -8.3     24.419     26.478
REMARK  1 active torsions:
REMARK  status: ('A' for Active; 'I' for Inactive)
REMARK    1  A    between atoms: C3_7  and  C4_8 
ROOT
HETATM    1  F2  UNK     1      18.176   8.014  10.683  1.00  0.00    -0.206 F 
HETATM    2  O1  UNK     1      13.131   7.409   8.579  1.00  0.00    -0.309 OA
HETATM    3  O2  UNK     1      15.172   4.041   9.629  1.00  0.00    -0.287 OA
HETATM    4  C1  UNK     1      15.146   6.400   9.486  1.00  0.00     0.051 A 
HETATM    5  C2  UNK     1      14.393   7.511   9.107  1.00  0.00     0.090 A 
HETATM    6  C3  UNK     1      12.589   6.145   8.413  1.00  0.00     0.093 A 
HETATM    7  C5  UNK     1      14.568   5.057   9.316  1.00  0.00     0.187 A 
HETATM    8  C6  UNK     1      13.209   5.000   8.741  1.00  0.00     0.094 A 
HETATM    9  C7  UNK     1      16.426   6.563  10.019  1.00  0.00     0.060 A 
HETATM   10  C8  UNK     1      14.918   8.794   9.259  1.00  0.00     0.041 A 
HETATM   11  C11 UNK     1      16.950   7.848  10.171  1.00  0.00     0.117 A 
HETATM   12  C12 UNK     1      16.197   8.961   9.792  1.00  0.00     0.045 A 
ENDROOT
BRANCH   6  13
HETATM   13  C4  UNK     1      11.269   6.140   7.857  1.00  0.00     0.036 A 
HETATM   14  C10 UNK     1      10.156   6.125   8.702  1.00  0.00     0.017 A 
HETATM   15  C14 UNK     1       8.869   6.120   8.164  1.00  0.00     0.001 A 
HETATM   16  C15 UNK     1       8.690   6.129   6.781  1.00  0.00     0.003 A 
HETATM   17  C13 UNK     1       9.798   6.143   5.935  1.00  0.00     0.043 A 
HETATM   18  C9  UNK     1      11.086   6.149   6.472  1.00  0.00     0.129 A 
HETATM   19  F1  UNK     1      12.141   6.163   5.644  1.00  0.00    -0.205 F 
ENDBRANCH   6  13
TORSDOF 1
ENDMDL
MODEL 4
REMARK VINA RESULT:      -8.3      3.949      6.975
REMARK  1 active torsions:
REMARK  status: ('A' for Active; 'I' for Inactive)
REMARK    1  A    between atoms: C3_7  and  C4_8 
ROOT
HETATM    1  F2  UNK     1      17.718   7.970  33.654  1.00  0.00    -0.206 F 
HETATM    2  O1  UNK     1      18.893   3.570  30.571  1.00  0.00    -0.309 OA
HETATM    3  O2  UNK     1      17.906   2.950  34.476  1.00  0.00    -0.287 OA
HETATM    4  C1  UNK     1      18.249   4.496  32.723  1.00  0.00     0.051 A 
HETATM    5  C2  UNK     1      18.593   4.638  31.379  1.00  0.00     0.090 A 
HETATM    6  C3  UNK     1      18.856   2.300  31.122  1.00  0.00     0.093 A 
HETATM    7  C5  UNK     1      18.203   3.146  33.306  1.00  0.00     0.187 A 
HETATM    8  C6  UNK     1      18.536   2.030  32.398  1.00  0.00     0.094 A 
HETATM    9  C7  UNK     1      17.952   5.619  33.498  1.00  0.00     0.060 A 
HETATM   10  C8  UNK     1      18.643   5.907  30.802  1.00  0.00     0.041 A 
HETATM   11  C11 UNK     1      18.003   6.888  32.918  1.00  0.00     0.117 A 
HETATM   12  C12 UNK     1      18.347   7.031  31.573  1.00  0.00     0.045 A 
ENDROOT
BRANCH   6  13
HETATM   13  C4  UNK     1      19.182   1.251  30.203  1.00  0.00     0.036 A 
HETATM   14  C10 UNK     1      20.219   0.362  30.498  1.00  0.00     0.017 A 
HETATM   15  C14 UNK     1      20.540  -0.661  29.605  1.00  0.00     0.001 A 
HETATM   16  C15 UNK     1      19.826  -0.798  28.415  1.00  0.00     0.003 A 
HETATM   17  C13 UNK     1      18.790   0.087  28.118  1.00  0.00     0.043 A 
HETATM   18  C9  UNK     1      18.468   1.110  29.010  1.00  0.00     0.129 A 
HETATM   19  F1  UNK     1      17.469   1.952  28.709  1.00  0.00    -0.205 F 
ENDBRANCH   6  13
TORSDOF 1
ENDMDL
MODEL 5
REMARK VINA RESULT:      -8.2     24.756     26.839
REMARK  1 active torsions:
REMARK  status: ('A' for Active; 'I' for Inactive)
REMARK    1  A    between atoms: C3_7  and  C4_8 
ROOT
HETATM    1  F2  UNK     1      17.837   9.507  10.241  1.00  0.00    -0.206 F 
HETATM    2  O1  UNK     1      12.911   8.214   8.165  1.00  0.00    -0.309 OA
HETATM    3  O2  UNK     1      14.736   5.484  10.579  1.00  0.00    -0.287 OA
HETATM    4  C1  UNK     1      14.821   7.603   9.537  1.00  0.00     0.051 A 
HETATM    5  C2  UNK     1      14.142   8.493   8.705  1.00  0.00     0.090 A 
HETATM    6  C3  UNK     1      12.327   6.993   8.458  1.00  0.00     0.093 A 
HETATM    7  C5  UNK     1      14.197   6.309   9.854  1.00  0.00     0.187 A 
HETATM    8  C6  UNK     1      12.875   6.055   9.247  1.00  0.00     0.094 A 
HETATM    9  C7  UNK     1      16.072   7.941  10.059  1.00  0.00     0.060 A 
HETATM   10  C8  UNK     1      14.711   9.726   8.390  1.00  0.00     0.041 A 
HETATM   11  C11 UNK     1      16.639   9.175   9.743  1.00  0.00     0.117 A 
HETATM   12  C12 UNK     1      15.960  10.067   8.910  1.00  0.00     0.045 A 
ENDROOT
BRANCH   6  13
HETATM   13  C4  UNK     1      11.045   6.794   7.852  1.00  0.00     0.036 A 
HETATM   14  C10 UNK     1       9.881   7.032   8.586  1.00  0.00     0.017 A 
HETATM   15  C14 UNK     1       8.630   6.838   7.999  1.00  0.00     0.001 A 
HETATM   16  C15 UNK     1       8.540   6.406   6.676  1.00  0.00     0.003 A 
HETATM   17  C13 UNK     1       9.700   6.168   5.940  1.00  0.00     0.043 A 
HETATM   18  C9  UNK     1      10.951   6.361   6.526  1.00  0.00     0.129 A 
HETATM   19  F1  UNK     1      12.057   6.128   5.804  1.00  0.00    -0.205 F 
ENDBRANCH   6  13
TORSDOF 1
ENDMDL
MODEL 6
REMARK VINA RESULT:      -8.0     24.393     26.434
REMARK  1 active torsions:
REMARK  status: ('A' for Active; 'I' for Inactive)
REMARK    1  A    between atoms: C3_7  and  C4_8 
ROOT
HETATM    1  F2  UNK     1      18.180   8.051  10.806  1.00  0.00    -0.206 F 
HETATM    2  O1  UNK     1      13.274   7.472   8.390  1.00  0.00    -0.309 OA
HETATM    3  O2  UNK     1      15.200   4.097   9.622  1.00  0.00    -0.287 OA
HETATM    4  C1  UNK     1      15.214   6.453   9.441  1.00  0.00     0.051 A 
HETATM    5  C2  UNK     1      14.500   7.567   8.997  1.00  0.00     0.090 A 
HETATM    6  C3  UNK     1      12.727   6.211   8.208  1.00  0.00     0.093 A 
HETATM    7  C5  UNK     1      14.630   5.115   9.254  1.00  0.00     0.187 A 
HETATM    8  C6  UNK     1      13.310   5.064   8.594  1.00  0.00     0.094 A 
HETATM    9  C7  UNK     1      16.458   6.611  10.053  1.00  0.00     0.060 A 
HETATM   10  C8  UNK     1      15.031   8.846   9.163  1.00  0.00     0.041 A 
HETATM   11  C11 UNK     1      16.987   7.892  10.218  1.00  0.00     0.117 A 
HETATM   12  C12 UNK     1      16.275   9.007   9.774  1.00  0.00     0.045 A 
ENDROOT
BRANCH   6  13
HETATM   13  C4  UNK     1      11.446   6.212   7.569  1.00  0.00     0.036 A 
HETATM   14  C10 UNK     1      11.357   6.388   6.186  1.00  0.00     0.017 A 
HETATM   15  C14 UNK     1      10.111   6.390   5.558  1.00  0.00     0.001 A 
HETATM   16  C15 UNK     1       8.950   6.217   6.312  1.00  0.00     0.003 A 
HETATM   17  C13 UNK     1       9.036   6.041   7.693  1.00  0.00     0.043 A 
HETATM   18  C9  UNK     1      10.281   6.039   8.321  1.00  0.00     0.129 A 
HETATM   19  F1  UNK     1      10.346   5.868   9.650  1.00  0.00    -0.205 F 
ENDBRANCH   6  13
TORSDOF 1
ENDMDL
MODEL 7
REMARK VINA RESULT:      -8.0      1.864      6.081
REMARK  1 active torsions:
REMARK  status: ('A' for Active; 'I' for Inactive)
REMARK    1  A    between atoms: C3_7  and  C4_8 
ROOT
HETATM    1  F2  UNK     1      17.466   1.115  38.631  1.00  0.00    -0.206 F 
HETATM    2  O1  UNK     1      18.799   0.493  33.331  1.00  0.00    -0.309 OA
HETATM    3  O2  UNK     1      19.404  -2.670  35.831  1.00  0.00    -0.287 OA
HETATM    4  C1  UNK     1      18.665  -0.440  35.571  1.00  0.00     0.051 A 
HETATM    5  C2  UNK     1      18.482   0.601  34.662  1.00  0.00     0.090 A 
HETATM    6  C3  UNK     1      19.328  -0.706  32.879  1.00  0.00     0.093 A 
HETATM    7  C5  UNK     1      19.220  -1.715  35.089  1.00  0.00     0.187 A 
HETATM    8  C6  UNK     1      19.548  -1.782  33.651  1.00  0.00     0.094 A 
HETATM    9  C7  UNK     1      18.323  -0.273  36.915  1.00  0.00     0.060 A 
HETATM   10  C8  UNK     1      17.957   1.819  35.094  1.00  0.00     0.041 A 
HETATM   11  C11 UNK     1      17.798   0.947  37.344  1.00  0.00     0.117 A 
HETATM   12  C12 UNK     1      17.614   1.990  36.435  1.00  0.00     0.045 A 
ENDROOT
BRANCH   6  13
HETATM   13  C4  UNK     1      19.625  -0.725  31.478  1.00  0.00     0.036 A 
HETATM   14  C10 UNK     1      20.122  -1.889  30.887  1.00  0.00     0.017 A 
HETATM   15  C14 UNK     1      20.414  -1.912  29.522  1.00  0.00     0.001 A 
HETATM   16  C15 UNK     1      20.210  -0.771  28.746  1.00  0.00     0.003 A 
HETATM   17  C13 UNK     1      19.714   0.392  29.334  1.00  0.00     0.043 A 
HETATM   18  C9  UNK     1      19.423   0.416  30.698  1.00  0.00     0.129 A 
HETATM   19  F1  UNK     1      18.946   1.543  31.247  1.00  0.00    -0.205 F 
ENDBRANCH   6  13
TORSDOF 1
ENDMDL
MODEL 8
REMARK VINA RESULT:      -8.0     24.625     26.848
REMARK  1 active torsions:
REMARK  status: ('A' for Active; 'I' for Inactive)
REMARK    1  A    between atoms: C3_7  and  C4_8 
ROOT
HETATM    1  F2  UNK     1      18.048   7.295  10.644  1.00  0.00    -0.206 F 
HETATM    2  O1  UNK     1      13.060   6.369   8.520  1.00  0.00    -0.309 OA
HETATM    3  O2  UNK     1      14.044  10.210   9.469  1.00  0.00    -0.287 OA
HETATM    4  C1  UNK     1      14.693   7.939   9.402  1.00  0.00     0.051 A 
HETATM    5  C2  UNK     1      14.294   6.649   9.054  1.00  0.00     0.090 A 
HETATM    6  C3  UNK     1      12.177   7.419   8.326  1.00  0.00     0.093 A 
HETATM    7  C5  UNK     1      13.757   9.054   9.189  1.00  0.00     0.187 A 
HETATM    8  C6  UNK     1      12.442   8.703   8.616  1.00  0.00     0.094 A 
HETATM    9  C7  UNK     1      15.962   8.163   9.940  1.00  0.00     0.060 A 
HETATM   10  C8  UNK     1      15.163   5.574   9.244  1.00  0.00     0.041 A 
HETATM   11  C11 UNK     1      16.829   7.087  10.130  1.00  0.00     0.117 A 
HETATM   12  C12 UNK     1      16.431   5.795   9.782  1.00  0.00     0.045 A 
ENDROOT
BRANCH   6  13
HETATM   13  C4  UNK     1      10.918   7.031   7.765  1.00  0.00     0.036 A 
HETATM   14  C10 UNK     1       9.746   7.183   8.510  1.00  0.00     0.017 A 
HETATM   15  C14 UNK     1       8.517   6.806   7.966  1.00  0.00     0.001 A 
HETATM   16  C15 UNK     1       8.457   6.276   6.677  1.00  0.00     0.003 A 
HETATM   17  C13 UNK     1       9.625   6.124   5.931  1.00  0.00     0.043 A 
HETATM   18  C9  UNK     1      10.854   6.501   6.474  1.00  0.00     0.129 A 
HETATM   19  F1  UNK     1      11.968   6.348   5.742  1.00  0.00    -0.205 F 
ENDBRANCH   6  13
TORSDOF 1
ENDMDL
MODEL 9
REMARK VINA RESULT:      -7.9      8.021     10.298
REMARK  1 active torsions:
REMARK  status: ('A' for Active; 'I' for Inactive)
REMARK    1  A    between atoms: C3_7  and  C4_8 
ROOT
HETATM    1  F2  UNK     1      12.750  11.322  34.305  1.00  0.00    -0.206 F 
HETATM    2  O1  UNK     1      17.351   8.674  32.866  1.00  0.00    -0.309 OA
HETATM    3  O2  UNK     1      13.784   6.920  31.965  1.00  0.00    -0.287 OA
HETATM    4  C1  UNK     1      14.923   8.752  32.929  1.00  0.00     0.051 A 
HETATM    5  C2  UNK     1      16.177   9.297  33.206  1.00  0.00     0.090 A 
HETATM    6  C3  UNK     1      17.281   7.449  32.224  1.00  0.00     0.093 A 
HETATM    7  C5  UNK     1      14.849   7.453  32.241  1.00  0.00     0.187 A 
HETATM    8  C6  UNK     1      16.139   6.822  31.898  1.00  0.00     0.094 A 
HETATM    9  C7  UNK     1      13.761   9.432  33.298  1.00  0.00     0.060 A 
HETATM   10  C8  UNK     1      16.274  10.527  33.856  1.00  0.00     0.041 A 
HETATM   11  C11 UNK     1      13.861  10.663  33.949  1.00  0.00     0.117 A 
HETATM   12  C12 UNK     1      15.114  11.210  34.227  1.00  0.00     0.045 A 
ENDROOT
BRANCH   6  13
HETATM   13  C4  UNK     1      18.556   6.877  31.907  1.00  0.00     0.036 A 
HETATM   14  C10 UNK     1      18.783   6.336  30.640  1.00  0.00     0.017 A 
HETATM   15  C14 UNK     1      20.023   5.778  30.328  1.00  0.00     0.001 A 
HETATM   16  C15 UNK     1      21.040   5.760  31.282  1.00  0.00     0.003 A 
HETATM   17  C13 UNK     1      20.816   6.299  32.549  1.00  0.00     0.043 A 
HETATM   18  C9  UNK     1      19.577   6.857  32.861  1.00  0.00     0.129 A 
HETATM   19  F1  UNK     1      19.379   7.372  34.084  1.00  0.00    -0.205 F 
ENDBRANCH   6  13
TORSDOF 1
ENDMDL
MODEL 10
REMARK VINA RESULT:      -7.9      3.308      4.129
REMARK  1 active torsions:
REMARK  status: ('A' for Active; 'I' for Inactive)
REMARK    1  A    between atoms: C3_7  and  C4_8 
ROOT
HETATM    1  F2  UNK     1      19.297   6.421  29.293  1.00  0.00    -0.206 F 
HETATM    2  O1  UNK     1      17.950   3.408  33.692  1.00  0.00    -0.309 OA
HETATM    3  O2  UNK     1      19.196   1.441  30.347  1.00  0.00    -0.287 OA
HETATM    4  C1  UNK     1      18.728   3.508  31.392  1.00  0.00     0.051 A 
HETATM    5  C2  UNK     1      18.296   4.117  32.570  1.00  0.00     0.090 A 
HETATM    6  C3  UNK     1      18.032   2.025  33.645  1.00  0.00     0.093 A 
HETATM    7  C5  UNK     1      18.822   2.040  31.345  1.00  0.00     0.187 A 
HETATM    8  C6  UNK     1      18.437   1.321  32.576  1.00  0.00     0.094 A 
HETATM    9  C7  UNK     1      19.068   4.282  30.281  1.00  0.00     0.060 A 
HETATM   10  C8  UNK     1      18.199   5.507  32.641  1.00  0.00     0.041 A 
HETATM   11  C11 UNK     1      18.971   5.672  30.354  1.00  0.00     0.117 A 
HETATM   12  C12 UNK     1      18.538   6.283  31.532  1.00  0.00     0.045 A 
ENDROOT
BRANCH   6  13
HETATM   13  C4  UNK     1      17.653   1.372  34.862  1.00  0.00     0.036 A 
HETATM   14  C10 UNK     1      16.552   0.513  34.879  1.00  0.00     0.017 A 
HETATM   15  C14 UNK     1      16.179  -0.125  36.063  1.00  0.00     0.001 A 
HETATM   16  C15 UNK     1      16.906   0.095  37.232  1.00  0.00     0.003 A 
HETATM   17  C13 UNK     1      18.005   0.952  37.219  1.00  0.00     0.043 A 
HETATM   18  C9  UNK     1      18.379   1.590  36.036  1.00  0.00     0.129 A 
HETATM   19  F1  UNK     1      19.439   2.412  36.041  1.00  0.00    -0.205 F 
ENDBRANCH   6  13
TORSDOF 1
ENDMDL
