MODEL 1
REMARK VINA RESULT:     -10.0      0.000      0.000
REMARK  4 active torsions:
REMARK  status: ('A' for Active; 'I' for Inactive)
REMARK    1  A    between atoms: C12_19  and  N1_6 
REMARK       I    between atoms: C14_21  and  N1_6 
REMARK       I    between atoms: C13_20  and  N2_7 
REMARK    2  A    between atoms: C1_8  and  C2_9 
REMARK    3  A    between atoms: C11_18  and  C13_20 
REMARK    4  A    between atoms: C14_21  and  C15_22 
ROOT
HETATM    1  S1  UNK     1      16.246   6.649  31.641  1.00  0.00    -0.075 SA
HETATM    2  C1  UNK     1      15.693   9.963  34.010  1.00  0.00    -0.002 C 
HETATM    3  C3  UNK     1      17.193  10.314  34.125  1.00  0.00     0.010 C 
HETATM    4  C4  UNK     1      15.424   9.078  32.771  1.00  0.00     0.052 C 
HETATM    5  C5  UNK     1      18.061   9.057  34.286  1.00  0.00     0.041 C 
HETATM    6  C6  UNK     1      16.454   7.996  32.661  1.00  0.00    -0.008 A 
HETATM    7  C7  UNK     1      17.666   7.981  33.323  1.00  0.00    -0.026 A 
HETATM    8  C11 UNK     1      18.430   6.825  32.984  1.00  0.00     0.073 A 
HETATM    9  C12 UNK     1      17.776   6.016  32.078  1.00  0.00     0.093 A 
ENDROOT
BRANCH   9  10
HETATM   10  N1  UNK     1      18.139   4.832  31.497  1.00  0.00    -0.316 N 
HETATM   11  C14 UNK     1      18.140   3.535  32.059  1.00  0.00     0.262 C 
HETATM   12  O2  UNK     1      17.811   3.216  33.195  1.00  0.00    -0.267 OA
HETATM   13  H17 UNK     1      18.427   4.922  30.526  1.00  0.00     0.169 HD
BRANCH  11  14
HETATM   14  C15 UNK     1      18.599   2.490  31.119  1.00  0.00     0.108 A 
HETATM   15  C16 UNK     1      18.981   1.330  31.665  1.00  0.00     0.037 A 
HETATM   16  C18 UNK     1      19.449   0.242  30.821  1.00  0.00    -0.001 A 
HETATM   17  C19 UNK     1      19.492   0.429  29.444  1.00  0.00     0.089 A 
HETATM   18  C20 UNK     1      19.858  -0.986  31.348  1.00  0.00     0.014 A 
HETATM   19  O3  UNK     1      19.089   1.653  28.874  1.00  0.00    -0.274 OA
HETATM   20  C21 UNK     1      19.931  -0.574  28.580  1.00  0.00     0.038 A 
HETATM   21  C17 UNK     1      18.636   2.712  29.656  1.00  0.00     0.304 A 
HETATM   22  O4  UNK     1      18.287   3.774  29.152  1.00  0.00    -0.259 OA
HETATM   23  C23 UNK     1      20.336  -1.795  29.113  1.00  0.00     0.003 A 
HETATM   24  C22 UNK     1      20.300  -2.001  30.494  1.00  0.00     0.001 A 
ENDBRANCH  11  14
ENDBRANCH   9  10
BRANCH   8  25
HETATM   25  C13 UNK     1      19.734   6.499  33.507  1.00  0.00     0.252 C 
HETATM   26  O1  UNK     1      20.784   7.022  33.088  1.00  0.00    -0.268 OA
HETATM   27  N2  UNK     1      19.796   5.573  34.544  1.00  0.00    -0.366 N 
HETATM   28  H18 UNK     1      18.964   5.131  34.923  1.00  0.00     0.159 HD
HETATM   29  H19 UNK     1      20.684   5.311  34.958  1.00  0.00     0.159 HD
ENDBRANCH   8  25
BRANCH   2  30
HETATM   30  C2  UNK     1      14.842  11.229  33.955  1.00  0.00    -0.047 C 
HETATM   31  C10 UNK     1      15.752  12.463  33.832  1.00  0.00     0.015 C 
HETATM   32  C8  UNK     1      13.903  11.172  32.739  1.00  0.00     0.015 C 
HETATM   33  C9  UNK     1      14.001  11.348  35.238  1.00  0.00     0.015 C 
ENDBRANCH   2  30
TORSDOF 4
ENDMDL
MODEL 2
REMARK VINA RESULT:      -9.7      1.284      2.124
REMARK  4 active torsions:
REMARK  status: ('A' for Active; 'I' for Inactive)
REMARK    1  A    between atoms: C12_19  and  N1_6 
REMARK       I    between atoms: C14_21  and  N1_6 
REMARK       I    between atoms: C13_20  and  N2_7 
REMARK    2  A    between atoms: C1_8  and  C2_9 
REMARK    3  A    between atoms: C11_18  and  C13_20 
REMARK    4  A    between atoms: C14_21  and  C15_22 
ROOT
HETATM    1  S1  UNK     1      15.395   6.664  32.532  1.00  0.00    -0.075 SA
HETATM    2  C1  UNK     1      14.646  10.421  34.024  1.00  0.00    -0.002 C 
HETATM    3  C3  UNK     1      16.101  10.924  33.896  1.00  0.00     0.010 C 
HETATM    4  C4  UNK     1      14.389   9.221  33.084  1.00  0.00     0.052 C 
HETATM    5  C5  UNK     1      17.114   9.836  34.285  1.00  0.00     0.041 C 
HETATM    6  C6  UNK     1      15.524   8.245  33.151  1.00  0.00    -0.008 A 
HETATM    7  C7  UNK     1      16.774   8.514  33.671  1.00  0.00    -0.026 A 
HETATM    8  C11 UNK     1      17.637   7.383  33.562  1.00  0.00     0.073 A 
HETATM    9  C12 UNK     1      17.014   6.309  32.961  1.00  0.00     0.093 A 
ENDROOT
BRANCH   9  10
HETATM   10  N1  UNK     1      17.465   5.051  32.667  1.00  0.00    -0.316 N 
HETATM   11  C14 UNK     1      18.174   4.612  31.524  1.00  0.00     0.262 C 
HETATM   12  O2  UNK     1      18.525   5.283  30.563  1.00  0.00    -0.267 OA
HETATM   13  H17 UNK     1      17.267   4.363  33.388  1.00  0.00     0.169 HD
BRANCH  11  14
HETATM   14  C15 UNK     1      18.497   3.170  31.557  1.00  0.00     0.108 A 
HETATM   15  C16 UNK     1      18.959   2.641  30.418  1.00  0.00     0.037 A 
HETATM   16  C18 UNK     1      19.305   1.229  30.352  1.00  0.00    -0.001 A 
HETATM   17  C19 UNK     1      19.147   0.444  31.488  1.00  0.00     0.089 A 
HETATM   18  C20 UNK     1      19.790   0.636  29.183  1.00  0.00     0.014 A 
HETATM   19  O3  UNK     1      18.660   1.006  32.685  1.00  0.00    -0.274 OA
HETATM   20  C21 UNK     1      19.459  -0.915  31.490  1.00  0.00     0.038 A 
HETATM   21  C17 UNK     1      18.322   2.352  32.779  1.00  0.00     0.304 A 
HETATM   22  O4  UNK     1      17.899   2.833  33.825  1.00  0.00    -0.259 OA
HETATM   23  C23 UNK     1      19.942  -1.499  30.322  1.00  0.00     0.003 A 
HETATM   24  C22 UNK     1      20.108  -0.725  29.170  1.00  0.00     0.001 A 
ENDBRANCH  11  14
ENDBRANCH   9  10
BRANCH   8  25
HETATM   25  C13 UNK     1      19.004   7.325  34.018  1.00  0.00     0.252 C 
HETATM   26  O1  UNK     1      19.975   7.225  33.245  1.00  0.00    -0.268 OA
HETATM   27  N2  UNK     1      19.227   7.412  35.390  1.00  0.00    -0.366 N 
HETATM   28  H18 UNK     1      18.465   7.505  36.055  1.00  0.00     0.159 HD
HETATM   29  H19 UNK     1      20.166   7.385  35.769  1.00  0.00     0.159 HD
ENDBRANCH   8  25
BRANCH   2  30
HETATM   30  C2  UNK     1      13.655  11.547  33.735  1.00  0.00    -0.047 C 
HETATM   31  C10 UNK     1      12.915  11.933  35.026  1.00  0.00     0.015 C 
HETATM   32  C8  UNK     1      14.408  12.776  33.198  1.00  0.00     0.015 C 
HETATM   33  C9  UNK     1      12.632  11.083  32.685  1.00  0.00     0.015 C 
ENDBRANCH   2  30
TORSDOF 4
ENDMDL
MODEL 3
REMARK VINA RESULT:      -9.1     15.751     21.269
REMARK  4 active torsions:
REMARK  status: ('A' for Active; 'I' for Inactive)
REMARK    1  A    between atoms: C12_19  and  N1_6 
REMARK       I    between atoms: C14_21  and  N1_6 
REMARK       I    between atoms: C13_20  and  N2_7 
REMARK    2  A    between atoms: C1_8  and  C2_9 
REMARK    3  A    between atoms: C11_18  and  C13_20 
REMARK    4  A    between atoms: C14_21  and  C15_22 
ROOT
HETATM    1  S1  UNK     1      19.484  -1.676  12.087  1.00  0.00    -0.075 SA
HETATM    2  C1  UNK     1      20.319  -4.676   9.403  1.00  0.00    -0.002 C 
HETATM    3  C3  UNK     1      19.989  -5.835  10.370  1.00  0.00     0.010 C 
HETATM    4  C4  UNK     1      19.636  -3.365   9.856  1.00  0.00     0.052 C 
HETATM    5  C5  UNK     1      20.490  -5.547  11.794  1.00  0.00     0.041 C 
HETATM    6  C6  UNK     1      19.792  -3.171  11.333  1.00  0.00    -0.008 A 
HETATM    7  C7  UNK     1      20.155  -4.155  12.231  1.00  0.00    -0.026 A 
HETATM    8  C11 UNK     1      20.188  -3.654  13.566  1.00  0.00     0.073 A 
HETATM    9  C12 UNK     1      19.843  -2.321  13.631  1.00  0.00     0.093 A 
ENDROOT
BRANCH   9  10
HETATM   10  N1  UNK     1      19.749  -1.463  14.692  1.00  0.00    -0.316 N 
HETATM   11  C14 UNK     1      18.806  -1.460  15.746  1.00  0.00     0.262 C 
HETATM   12  O2  UNK     1      17.876  -2.239  15.915  1.00  0.00    -0.267 OA
HETATM   13  H17 UNK     1      20.474  -0.750  14.711  1.00  0.00     0.169 HD
BRANCH  11  14
HETATM   14  C15 UNK     1      19.022  -0.371  16.722  1.00  0.00     0.108 A 
HETATM   15  C16 UNK     1      19.009  -0.721  18.013  1.00  0.00     0.037 A 
HETATM   16  C18 UNK     1      19.213   0.282  19.047  1.00  0.00    -0.001 A 
HETATM   17  C19 UNK     1      19.420   1.604  18.670  1.00  0.00     0.089 A 
HETATM   18  C20 UNK     1      19.206  -0.040  20.407  1.00  0.00     0.014 A 
HETATM   19  O3  UNK     1      19.434   1.967  17.310  1.00  0.00    -0.274 OA
HETATM   20  C21 UNK     1      19.621   2.612  19.612  1.00  0.00     0.038 A 
HETATM   21  C17 UNK     1      19.242   1.031  16.298  1.00  0.00     0.304 A 
HETATM   22  O4  UNK     1      19.255   1.356  15.115  1.00  0.00    -0.259 OA
HETATM   23  C23 UNK     1      19.613   2.284  20.966  1.00  0.00     0.003 A 
HETATM   24  C22 UNK     1      19.406   0.961  21.362  1.00  0.00     0.001 A 
ENDBRANCH  11  14
ENDBRANCH   9  10
BRANCH   8  25
HETATM   25  C13 UNK     1      20.540  -4.418  14.738  1.00  0.00     0.252 C 
HETATM   26  O1  UNK     1      21.715  -4.584  15.114  1.00  0.00    -0.268 OA
HETATM   27  N2  UNK     1      19.499  -4.966  15.483  1.00  0.00    -0.366 N 
HETATM   28  H18 UNK     1      18.526  -4.847  15.218  1.00  0.00     0.159 HD
HETATM   29  H19 UNK     1      19.684  -5.506  16.321  1.00  0.00     0.159 HD
ENDBRANCH   8  25
BRANCH   2  30
HETATM   30  C2  UNK     1      19.907  -5.027   7.975  1.00  0.00    -0.047 C 
HETATM   31  C10 UNK     1      20.862  -4.350   6.978  1.00  0.00     0.015 C 
HETATM   32  C8  UNK     1      19.967  -6.550   7.776  1.00  0.00     0.015 C 
HETATM   33  C9  UNK     1      18.472  -4.539   7.712  1.00  0.00     0.015 C 
ENDBRANCH   2  30
TORSDOF 4
ENDMDL
MODEL 4
REMARK VINA RESULT:      -8.9     15.818     21.945
REMARK  4 active torsions:
REMARK  status: ('A' for Active; 'I' for Inactive)
REMARK    1  A    between atoms: C12_19  and  N1_6 
REMARK       I    between atoms: C14_21  and  N1_6 
REMARK       I    between atoms: C13_20  and  N2_7 
REMARK    2  A    between atoms: C1_8  and  C2_9 
REMARK    3  A    between atoms: C11_18  and  C13_20 
REMARK    4  A    between atoms: C14_21  and  C15_22 
ROOT
HETATM    1  S1  UNK     1      20.760  -5.319  14.905  1.00  0.00    -0.075 SA
HETATM    2  C1  UNK     1      20.948  -8.411  12.203  1.00  0.00    -0.002 C 
HETATM    3  C3  UNK     1      21.275  -7.521  10.983  1.00  0.00     0.010 C 
HETATM    4  C4  UNK     1      21.309  -7.694  13.524  1.00  0.00     0.052 C 
HETATM    5  C5  UNK     1      20.474  -6.210  11.005  1.00  0.00     0.041 C 
HETATM    6  C6  UNK     1      20.848  -6.270  13.496  1.00  0.00    -0.008 A 
HETATM    7  C7  UNK     1      20.487  -5.573  12.359  1.00  0.00    -0.026 A 
HETATM    8  C11 UNK     1      20.122  -4.229  12.668  1.00  0.00     0.073 A 
HETATM    9  C12 UNK     1      20.225  -3.957  14.015  1.00  0.00     0.093 A 
ENDROOT
BRANCH   9  10
HETATM   10  N1  UNK     1      19.976  -2.817  14.730  1.00  0.00    -0.316 N 
HETATM   11  C14 UNK     1      18.838  -2.490  15.503  1.00  0.00     0.262 C 
HETATM   12  O2  UNK     1      17.840  -3.175  15.685  1.00  0.00    -0.267 OA
HETATM   13  H17 UNK     1      20.731  -2.137  14.697  1.00  0.00     0.169 HD
BRANCH  11  14
HETATM   14  C15 UNK     1      18.926  -1.158  16.138  1.00  0.00     0.108 A 
HETATM   15  C16 UNK     1      18.695  -1.113  17.455  1.00  0.00     0.037 A 
HETATM   16  C18 UNK     1      18.759   0.153  18.168  1.00  0.00    -0.001 A 
HETATM   17  C19 UNK     1      19.063   1.310  17.460  1.00  0.00     0.089 A 
HETATM   18  C20 UNK     1      18.524   0.245  19.543  1.00  0.00     0.014 A 
HETATM   19  O3  UNK     1      19.306   1.258  16.073  1.00  0.00    -0.274 OA
HETATM   20  C21 UNK     1      19.139   2.554  18.084  1.00  0.00     0.038 A 
HETATM   21  C17 UNK     1      19.252   0.062  15.363  1.00  0.00     0.304 A 
HETATM   22  O4  UNK     1      19.465   0.025  14.156  1.00  0.00    -0.259 OA
HETATM   23  C23 UNK     1      18.904   2.638  19.455  1.00  0.00     0.003 A 
HETATM   24  C22 UNK     1      18.597   1.486  20.183  1.00  0.00     0.001 A 
ENDBRANCH  11  14
ENDBRANCH   9  10
BRANCH   8  25
HETATM   25  C13 UNK     1      19.685  -3.240  11.713  1.00  0.00     0.252 C 
HETATM   26  O1  UNK     1      18.532  -3.211  11.243  1.00  0.00    -0.268 OA
HETATM   27  N2  UNK     1      20.604  -2.266  11.332  1.00  0.00    -0.366 N 
HETATM   28  H18 UNK     1      21.551  -2.246  11.698  1.00  0.00     0.159 HD
HETATM   29  H19 UNK     1      20.352  -1.541  10.670  1.00  0.00     0.159 HD
ENDBRANCH   8  25
BRANCH   2  30
HETATM   30  C2  UNK     1      21.674  -9.751  12.107  1.00  0.00    -0.047 C 
HETATM   31  C10 UNK     1      20.822 -10.852  12.760  1.00  0.00     0.015 C 
HETATM   32  C8  UNK     1      21.913 -10.108  10.630  1.00  0.00     0.015 C 
HETATM   33  C9  UNK     1      23.028  -9.663  12.831  1.00  0.00     0.015 C 
ENDBRANCH   2  30
TORSDOF 4
ENDMDL
MODEL 5
REMARK VINA RESULT:      -8.6     15.327     18.784
REMARK  4 active torsions:
REMARK  status: ('A' for Active; 'I' for Inactive)
REMARK    1  A    between atoms: C12_19  and  N1_6 
REMARK       I    between atoms: C14_21  and  N1_6 
REMARK       I    between atoms: C13_20  and  N2_7 
REMARK    2  A    between atoms: C1_8  and  C2_9 
REMARK    3  A    between atoms: C11_18  and  C13_20 
REMARK    4  A    between atoms: C14_21  and  C15_22 
ROOT
HETATM    1  S1  UNK     1      29.928  -7.666  35.571  1.00  0.00    -0.075 SA
HETATM    2  C1  UNK     1      33.675  -6.870  34.079  1.00  0.00    -0.002 C 
HETATM    3  C3  UNK     1      34.169  -6.099  35.322  1.00  0.00     0.010 C 
HETATM    4  C4  UNK     1      32.486  -7.792  34.434  1.00  0.00     0.052 C 
HETATM    5  C5  UNK     1      33.070  -5.195  35.904  1.00  0.00     0.041 C 
HETATM    6  C6  UNK     1      31.502  -7.074  35.305  1.00  0.00    -0.008 A 
HETATM    7  C7  UNK     1      31.757  -5.907  35.998  1.00  0.00    -0.026 A 
HETATM    8  C11 UNK     1      30.620  -5.494  36.755  1.00  0.00     0.073 A 
HETATM    9  C12 UNK     1      29.558  -6.360  36.615  1.00  0.00     0.093 A 
ENDROOT
BRANCH   9  10
HETATM   10  N1  UNK     1      28.300  -6.343  37.153  1.00  0.00    -0.316 N 
HETATM   11  C14 UNK     1      27.804  -7.063  38.264  1.00  0.00     0.262 C 
HETATM   12  O2  UNK     1      28.415  -7.855  38.971  1.00  0.00    -0.267 OA
HETATM   13  H17 UNK     1      27.660  -5.708  36.683  1.00  0.00     0.169 HD
BRANCH  11  14
HETATM   14  C15 UNK     1      26.382  -6.784  38.554  1.00  0.00     0.108 A 
HETATM   15  C16 UNK     1      25.563  -7.842  38.574  1.00  0.00     0.037 A 
HETATM   16  C18 UNK     1      24.145  -7.667  38.851  1.00  0.00    -0.001 A 
HETATM   17  C19 UNK     1      23.660  -6.386  39.092  1.00  0.00     0.089 A 
HETATM   18  C20 UNK     1      23.255  -8.743  38.881  1.00  0.00     0.014 A 
HETATM   19  O3  UNK     1      24.526  -5.276  39.070  1.00  0.00    -0.274 OA
HETATM   20  C21 UNK     1      22.313  -6.151  39.363  1.00  0.00     0.038 A 
HETATM   21  C17 UNK     1      25.887  -5.412  38.809  1.00  0.00     0.304 A 
HETATM   22  O4  UNK     1      26.634  -4.439  38.791  1.00  0.00    -0.259 OA
HETATM   23  C23 UNK     1      21.431  -7.229  39.391  1.00  0.00     0.003 A 
HETATM   24  C22 UNK     1      21.901  -8.523  39.152  1.00  0.00     0.001 A 
ENDBRANCH  11  14
ENDBRANCH   9  10
BRANCH   8  25
HETATM   25  C13 UNK     1      30.549  -4.313  37.580  1.00  0.00     0.252 C 
HETATM   26  O1  UNK     1      30.331  -4.352  38.806  1.00  0.00    -0.268 OA
HETATM   27  N2  UNK     1      30.760  -3.084  36.961  1.00  0.00    -0.366 N 
HETATM   28  H18 UNK     1      30.951  -3.007  35.967  1.00  0.00     0.159 HD
HETATM   29  H19 UNK     1      30.729  -2.220  37.491  1.00  0.00     0.159 HD
ENDBRANCH   8  25
BRANCH   2  30
HETATM   30  C2  UNK     1      34.811  -7.679  33.456  1.00  0.00    -0.047 C 
HETATM   31  C10 UNK     1      34.549  -9.182  33.656  1.00  0.00     0.015 C 
HETATM   32  C8  UNK     1      34.899  -7.378  31.951  1.00  0.00     0.015 C 
HETATM   33  C9  UNK     1      36.144  -7.306  34.125  1.00  0.00     0.015 C 
ENDBRANCH   2  30
TORSDOF 4
ENDMDL
MODEL 6
REMARK VINA RESULT:      -8.6      1.802      2.350
REMARK  4 active torsions:
REMARK  status: ('A' for Active; 'I' for Inactive)
REMARK    1  A    between atoms: C12_19  and  N1_6 
REMARK       I    between atoms: C14_21  and  N1_6 
REMARK       I    between atoms: C13_20  and  N2_7 
REMARK    2  A    between atoms: C1_8  and  C2_9 
REMARK    3  A    between atoms: C11_18  and  C13_20 
REMARK    4  A    between atoms: C14_21  and  C15_22 
ROOT
HETATM    1  S1  UNK     1      15.104   7.005  32.595  1.00  0.00    -0.075 SA
HETATM    2  C1  UNK     1      14.364  10.803  33.985  1.00  0.00    -0.002 C 
HETATM    3  C3  UNK     1      15.828  11.283  33.891  1.00  0.00     0.010 C 
HETATM    4  C4  UNK     1      14.118   9.587  33.063  1.00  0.00     0.052 C 
HETATM    5  C5  UNK     1      16.814  10.190  34.333  1.00  0.00     0.041 C 
HETATM    6  C6  UNK     1      15.236   8.597  33.185  1.00  0.00    -0.008 A 
HETATM    7  C7  UNK     1      16.474   8.860  33.737  1.00  0.00    -0.026 A 
HETATM    8  C11 UNK     1      17.323   7.715  33.678  1.00  0.00     0.073 A 
HETATM    9  C12 UNK     1      16.704   6.638  33.081  1.00  0.00     0.093 A 
ENDROOT
BRANCH   9  10
HETATM   10  N1  UNK     1      17.145   5.368  32.827  1.00  0.00    -0.316 N 
HETATM   11  C14 UNK     1      18.020   4.924  31.808  1.00  0.00     0.262 C 
HETATM   12  O2  UNK     1      18.559   5.602  30.943  1.00  0.00    -0.267 OA
HETATM   13  H17 UNK     1      16.797   4.672  33.480  1.00  0.00     0.169 HD
BRANCH  11  14
HETATM   14  C15 UNK     1      18.272   3.468  31.848  1.00  0.00     0.108 A 
HETATM   15  C16 UNK     1      18.157   2.880  33.045  1.00  0.00     0.037 A 
HETATM   16  C18 UNK     1      18.386   1.450  33.184  1.00  0.00    -0.001 A 
HETATM   17  C19 UNK     1      18.726   0.710  32.057  1.00  0.00     0.089 A 
HETATM   18  C20 UNK     1      18.277   0.796  34.414  1.00  0.00     0.014 A 
HETATM   19  O3  UNK     1      18.846   1.334  30.800  1.00  0.00    -0.274 OA
HETATM   20  C21 UNK     1      18.959  -0.663  32.124  1.00  0.00     0.038 A 
HETATM   21  C17 UNK     1      18.632   2.699  30.635  1.00  0.00     0.304 A 
HETATM   22  O4  UNK     1      18.739   3.234  29.536  1.00  0.00    -0.259 OA
HETATM   23  C23 UNK     1      18.848  -1.308  33.354  1.00  0.00     0.003 A 
HETATM   24  C22 UNK     1      18.508  -0.580  34.496  1.00  0.00     0.001 A 
ENDBRANCH  11  14
ENDBRANCH   9  10
BRANCH   8  25
HETATM   25  C13 UNK     1      18.675   7.648  34.177  1.00  0.00     0.252 C 
HETATM   26  O1  UNK     1      18.955   7.686  35.389  1.00  0.00    -0.268 OA
HETATM   27  N2  UNK     1      19.697   7.512  33.242  1.00  0.00    -0.366 N 
HETATM   28  H18 UNK     1      19.513   7.466  32.245  1.00  0.00     0.159 HD
HETATM   29  H19 UNK     1      20.667   7.452  33.533  1.00  0.00     0.159 HD
ENDBRANCH   8  25
BRANCH   2  30
HETATM   30  C2  UNK     1      13.398  11.936  33.642  1.00  0.00    -0.047 C 
HETATM   31  C10 UNK     1      14.172  13.104  33.007  1.00  0.00     0.015 C 
HETATM   32  C8  UNK     1      12.339  11.433  32.648  1.00  0.00     0.015 C 
HETATM   33  C9  UNK     1      12.699  12.429  34.920  1.00  0.00     0.015 C 
ENDBRANCH   2  30
TORSDOF 4
ENDMDL
MODEL 7
REMARK VINA RESULT:      -8.5     15.408     21.309
REMARK  4 active torsions:
REMARK  status: ('A' for Active; 'I' for Inactive)
REMARK    1  A    between atoms: C12_19  and  N1_6 
REMARK       I    between atoms: C14_21  and  N1_6 
REMARK       I    between atoms: C13_20  and  N2_7 
REMARK    2  A    between atoms: C1_8  and  C2_9 
REMARK    3  A    between atoms: C11_18  and  C13_20 
REMARK    4  A    between atoms: C14_21  and  C15_22 
ROOT
HETATM    1  S1  UNK     1      20.467  -4.497  14.751  1.00  0.00    -0.075 SA
HETATM    2  C1  UNK     1      20.484  -6.950  11.452  1.00  0.00    -0.002 C 
HETATM    3  C3  UNK     1      20.963  -5.865  10.463  1.00  0.00     0.010 C 
HETATM    4  C4  UNK     1      20.845  -6.573  12.907  1.00  0.00     0.052 C 
HETATM    5  C5  UNK     1      20.300  -4.507  10.744  1.00  0.00     0.041 C 
HETATM    6  C6  UNK     1      20.533  -5.133  13.173  1.00  0.00    -0.008 A 
HETATM    7  C7  UNK     1      20.306  -4.176  12.203  1.00  0.00    -0.026 A 
HETATM    8  C11 UNK     1      20.063  -2.895  12.783  1.00  0.00     0.073 A 
HETATM    9  C12 UNK     1      20.121  -2.927  14.160  1.00  0.00     0.093 A 
ENDROOT
BRANCH   9  10
HETATM   10  N1  UNK     1      19.951  -1.943  15.096  1.00  0.00    -0.316 N 
HETATM   11  C14 UNK     1      18.833  -1.697  15.926  1.00  0.00     0.262 C 
HETATM   12  O2  UNK     1      17.784  -2.327  15.967  1.00  0.00    -0.267 OA
HETATM   13  H17 UNK     1      20.756  -1.331  15.200  1.00  0.00     0.169 HD
BRANCH  11  14
HETATM   14  C15 UNK     1      19.015  -0.535  16.821  1.00  0.00     0.108 A 
HETATM   15  C16 UNK     1      19.015  -0.794  18.134  1.00  0.00     0.037 A 
HETATM   16  C18 UNK     1      19.188   0.285  19.094  1.00  0.00    -0.001 A 
HETATM   17  C19 UNK     1      19.351   1.583  18.625  1.00  0.00     0.089 A 
HETATM   18  C20 UNK     1      19.193   0.060  20.474  1.00  0.00     0.014 A 
HETATM   19  O3  UNK     1      19.351   1.851  17.242  1.00  0.00    -0.274 OA
HETATM   20  C21 UNK     1      19.521   2.661  19.493  1.00  0.00     0.038 A 
HETATM   21  C17 UNK     1      19.189   0.840  16.299  1.00  0.00     0.304 A 
HETATM   22  O4  UNK     1      19.189   1.082  15.097  1.00  0.00    -0.259 OA
HETATM   23  C23 UNK     1      19.525   2.429  20.866  1.00  0.00     0.003 A 
HETATM   24  C22 UNK     1      19.362   1.131  21.356  1.00  0.00     0.001 A 
ENDBRANCH  11  14
ENDBRANCH   9  10
BRANCH   8  25
HETATM   25  C13 UNK     1      19.780  -1.685  12.052  1.00  0.00     0.252 C 
HETATM   26  O1  UNK     1      20.466  -1.297  11.088  1.00  0.00    -0.268 OA
HETATM   27  N2  UNK     1      18.669  -0.943  12.443  1.00  0.00    -0.366 N 
HETATM   28  H18 UNK     1      18.076  -1.228  13.217  1.00  0.00     0.159 HD
HETATM   29  H19 UNK     1      18.415  -0.088  11.962  1.00  0.00     0.159 HD
ENDBRANCH   8  25
BRANCH   2  30
HETATM   30  C2  UNK     1      21.074  -8.311  11.091  1.00  0.00    -0.047 C 
HETATM   31  C10 UNK     1      22.610  -8.227  11.086  1.00  0.00     0.015 C 
HETATM   32  C8  UNK     1      20.631  -9.360  12.125  1.00  0.00     0.015 C 
HETATM   33  C9  UNK     1      20.587  -8.738   9.697  1.00  0.00     0.015 C 
ENDBRANCH   2  30
TORSDOF 4
ENDMDL
MODEL 8
REMARK VINA RESULT:      -8.5     23.334     25.158
REMARK  4 active torsions:
REMARK  status: ('A' for Active; 'I' for Inactive)
REMARK    1  A    between atoms: C12_19  and  N1_6 
REMARK       I    between atoms: C14_21  and  N1_6 
REMARK       I    between atoms: C13_20  and  N2_7 
REMARK    2  A    between atoms: C1_8  and  C2_9 
REMARK    3  A    between atoms: C11_18  and  C13_20 
REMARK    4  A    between atoms: C14_21  and  C15_22 
ROOT
HETATM    1  S1  UNK     1      15.636  11.759   7.254  1.00  0.00    -0.075 SA
HETATM    2  C1  UNK     1      19.317  13.487   7.863  1.00  0.00    -0.002 C 
HETATM    3  C3  UNK     1      19.993  12.208   8.401  1.00  0.00     0.010 C 
HETATM    4  C4  UNK     1      18.063  13.142   7.027  1.00  0.00     0.052 C 
HETATM    5  C5  UNK     1      19.056  11.412   9.322  1.00  0.00     0.041 C 
HETATM    6  C6  UNK     1      17.240  12.096   7.715  1.00  0.00    -0.008 A 
HETATM    7  C7  UNK     1      17.682  11.286   8.742  1.00  0.00    -0.026 A 
HETATM    8  C11 UNK     1      16.665  10.377   9.161  1.00  0.00     0.073 A 
HETATM    9  C12 UNK     1      15.502  10.526   8.435  1.00  0.00     0.093 A 
ENDROOT
BRANCH   9  10
HETATM   10  N1  UNK     1      14.302   9.873   8.506  1.00  0.00    -0.316 N 
HETATM   11  C14 UNK     1      14.056   8.482   8.586  1.00  0.00     0.262 C 
HETATM   12  O2  UNK     1      14.884   7.580   8.607  1.00  0.00    -0.267 OA
HETATM   13  H17 UNK     1      13.496  10.492   8.517  1.00  0.00     0.169 HD
BRANCH  11  14
HETATM   14  C15 UNK     1      12.618   8.146   8.650  1.00  0.00     0.108 A 
HETATM   15  C16 UNK     1      12.119   7.479   7.603  1.00  0.00     0.037 A 
HETATM   16  C18 UNK     1      10.714   7.104   7.574  1.00  0.00    -0.001 A 
HETATM   17  C19 UNK     1       9.903   7.450   8.649  1.00  0.00     0.089 A 
HETATM   18  C20 UNK     1      10.151   6.408   6.501  1.00  0.00     0.014 A 
HETATM   19  O3  UNK     1      10.433   8.153   9.749  1.00  0.00    -0.274 OA
HETATM   20  C21 UNK     1       8.549   7.121   8.683  1.00  0.00     0.038 A 
HETATM   21  C17 UNK     1      11.773   8.525   9.805  1.00  0.00     0.304 A 
HETATM   22  O4  UNK     1      12.226   9.137  10.767  1.00  0.00    -0.259 OA
HETATM   23  C23 UNK     1       7.995   6.427   7.610  1.00  0.00     0.003 A 
HETATM   24  C22 UNK     1       8.795   6.070   6.521  1.00  0.00     0.001 A 
ENDBRANCH  11  14
ENDBRANCH   9  10
BRANCH   8  25
HETATM   25  C13 UNK     1      16.795   9.404  10.217  1.00  0.00     0.252 C 
HETATM   26  O1  UNK     1      16.170   9.480  11.292  1.00  0.00    -0.268 OA
HETATM   27  N2  UNK     1      17.646   8.325   9.995  1.00  0.00    -0.366 N 
HETATM   28  H18 UNK     1      18.166   8.219   9.130  1.00  0.00     0.159 HD
HETATM   29  H19 UNK     1      17.772   7.606  10.698  1.00  0.00     0.159 HD
ENDBRANCH   8  25
BRANCH   2  30
HETATM   30  C2  UNK     1      20.298  14.314   7.036  1.00  0.00    -0.047 C 
HETATM   31  C10 UNK     1      19.843  14.347   5.567  1.00  0.00     0.015 C 
HETATM   32  C8  UNK     1      20.353  15.752   7.579  1.00  0.00     0.015 C 
HETATM   33  C9  UNK     1      21.701  13.690   7.115  1.00  0.00     0.015 C 
ENDBRANCH   2  30
TORSDOF 4
ENDMDL
MODEL 9
REMARK VINA RESULT:      -8.5     15.979     18.077
REMARK  4 active torsions:
REMARK  status: ('A' for Active; 'I' for Inactive)
REMARK    1  A    between atoms: C12_19  and  N1_6 
REMARK       I    between atoms: C14_21  and  N1_6 
REMARK       I    between atoms: C13_20  and  N2_7 
REMARK    2  A    between atoms: C1_8  and  C2_9 
REMARK    3  A    between atoms: C11_18  and  C13_20 
REMARK    4  A    between atoms: C14_21  and  C15_22 
ROOT
HETATM    1  S1  UNK     1      29.343  -7.645  35.312  1.00  0.00    -0.075 SA
HETATM    2  C1  UNK     1      32.565  -5.136  35.783  1.00  0.00    -0.002 C 
HETATM    3  C3  UNK     1      32.431  -5.009  37.316  1.00  0.00     0.010 C 
HETATM    4  C4  UNK     1      31.858  -6.410  35.268  1.00  0.00     0.052 C 
HETATM    5  C5  UNK     1      30.961  -4.904  37.752  1.00  0.00     0.041 C 
HETATM    6  C6  UNK     1      30.517  -6.569  35.914  1.00  0.00    -0.008 A 
HETATM    7  C7  UNK     1      30.101  -5.911  37.055  1.00  0.00    -0.026 A 
HETATM    8  C11 UNK     1      28.780  -6.301  37.428  1.00  0.00     0.073 A 
HETATM    9  C12 UNK     1      28.252  -7.239  36.567  1.00  0.00     0.093 A 
ENDROOT
BRANCH   9  10
HETATM   10  N1  UNK     1      27.038  -7.871  36.553  1.00  0.00    -0.316 N 
HETATM   11  C14 UNK     1      26.529  -8.827  37.463  1.00  0.00     0.262 C 
HETATM   12  O2  UNK     1      27.086  -9.281  38.454  1.00  0.00    -0.267 OA
HETATM   13  H17 UNK     1      26.435  -7.587  35.786  1.00  0.00     0.169 HD
BRANCH  11  14
HETATM   14  C15 UNK     1      25.167  -9.290  37.123  1.00  0.00     0.108 A 
HETATM   15  C16 UNK     1      24.162  -8.478  37.474  1.00  0.00     0.037 A 
HETATM   16  C18 UNK     1      22.786  -8.848  37.181  1.00  0.00    -0.001 A 
HETATM   17  C19 UNK     1      22.535 -10.053  36.535  1.00  0.00     0.089 A 
HETATM   18  C20 UNK     1      21.706  -8.031  37.530  1.00  0.00     0.014 A 
HETATM   19  O3  UNK     1      23.597 -10.903  36.168  1.00  0.00    -0.274 OA
HETATM   20  C21 UNK     1      21.239 -10.465  36.227  1.00  0.00     0.038 A 
HETATM   21  C17 UNK     1      24.924 -10.577  36.434  1.00  0.00     0.304 A 
HETATM   22  O4  UNK     1      25.841 -11.324  36.111  1.00  0.00    -0.259 OA
HETATM   23  C23 UNK     1      20.169  -9.646  36.578  1.00  0.00     0.003 A 
HETATM   24  C22 UNK     1      20.402  -8.431  37.227  1.00  0.00     0.001 A 
ENDBRANCH  11  14
ENDBRANCH   9  10
BRANCH   8  25
HETATM   25  C13 UNK     1      28.047  -5.796  38.562  1.00  0.00     0.252 C 
HETATM   26  O1  UNK     1      28.194  -6.236  39.718  1.00  0.00    -0.268 OA
HETATM   27  N2  UNK     1      27.156  -4.750  38.336  1.00  0.00    -0.366 N 
HETATM   28  H18 UNK     1      27.013  -4.355  37.412  1.00  0.00     0.159 HD
HETATM   29  H19 UNK     1      26.618  -4.349  39.096  1.00  0.00     0.159 HD
ENDBRANCH   8  25
BRANCH   2  30
HETATM   30  C2  UNK     1      34.034  -5.134  35.365  1.00  0.00    -0.047 C 
HETATM   31  C10 UNK     1      34.447  -3.720  34.921  1.00  0.00     0.015 C 
HETATM   32  C8  UNK     1      34.912  -5.567  36.550  1.00  0.00     0.015 C 
HETATM   33  C9  UNK     1      34.244  -6.111  34.196  1.00  0.00     0.015 C 
ENDBRANCH   2  30
TORSDOF 4
ENDMDL
MODEL 10
REMARK VINA RESULT:      -8.4     16.571     18.241
REMARK  4 active torsions:
REMARK  status: ('A' for Active; 'I' for Inactive)
REMARK    1  A    between atoms: C12_19  and  N1_6 
REMARK       I    between atoms: C14_21  and  N1_6 
REMARK       I    between atoms: C13_20  and  N2_7 
REMARK    2  A    between atoms: C1_8  and  C2_9 
REMARK    3  A    between atoms: C11_18  and  C13_20 
REMARK    4  A    between atoms: C14_21  and  C15_22 
ROOT
HETATM    1  S1  UNK     1      29.416  -7.340  35.456  1.00  0.00    -0.075 SA
HETATM    2  C1  UNK     1      32.973  -5.290  35.683  1.00  0.00    -0.002 C 
HETATM    3  C3  UNK     1      33.039  -5.278  37.225  1.00  0.00     0.010 C 
HETATM    4  C4  UNK     1      32.049  -6.421  35.175  1.00  0.00     0.052 C 
HETATM    5  C5  UNK     1      31.657  -5.032  37.852  1.00  0.00     0.041 C 
HETATM    6  C6  UNK     1      30.784  -6.469  35.976  1.00  0.00    -0.008 A 
HETATM    7  C7  UNK     1      30.596  -5.864  37.203  1.00  0.00    -0.026 A 
HETATM    8  C11 UNK     1      29.289  -6.122  37.714  1.00  0.00     0.073 A 
HETATM    9  C12 UNK     1      28.544  -6.912  36.865  1.00  0.00     0.093 A 
ENDROOT
BRANCH   9  10
HETATM   10  N1  UNK     1      27.265  -7.388  36.963  1.00  0.00    -0.316 N 
HETATM   11  C14 UNK     1      26.822  -8.637  37.459  1.00  0.00     0.262 C 
HETATM   12  O2  UNK     1      27.511  -9.547  37.902  1.00  0.00    -0.267 OA
HETATM   13  H17 UNK     1      26.556  -6.733  36.646  1.00  0.00     0.169 HD
BRANCH  11  14
HETATM   14  C15 UNK     1      25.354  -8.798  37.409  1.00  0.00     0.108 A 
HETATM   15  C16 UNK     1      24.892  -9.770  36.614  1.00  0.00     0.037 A 
HETATM   16  C18 UNK     1      23.461 -10.005  36.500  1.00  0.00    -0.001 A 
HETATM   17  C19 UNK     1      22.587  -9.205  37.227  1.00  0.00     0.089 A 
HETATM   18  C20 UNK     1      22.935 -11.008  35.681  1.00  0.00     0.014 A 
HETATM   19  O3  UNK     1      23.079  -8.183  38.063  1.00  0.00    -0.274 OA
HETATM   20  C21 UNK     1      21.205  -9.379  37.161  1.00  0.00     0.038 A 
HETATM   21  C17 UNK     1      24.442  -7.934  38.193  1.00  0.00     0.304 A 
HETATM   22  O4  UNK     1      24.861  -7.042  38.923  1.00  0.00    -0.259 OA
HETATM   23  C23 UNK     1      20.688 -10.381  36.343  1.00  0.00     0.003 A 
HETATM   24  C22 UNK     1      21.551 -11.195  35.605  1.00  0.00     0.001 A 
ENDBRANCH  11  14
ENDBRANCH   9  10
BRANCH   8  25
HETATM   25  C13 UNK     1      28.767  -5.628  38.965  1.00  0.00     0.252 C 
HETATM   26  O1  UNK     1      28.177  -6.352  39.788  1.00  0.00    -0.268 OA
HETATM   27  N2  UNK     1      28.965  -4.281  39.256  1.00  0.00    -0.366 N 
HETATM   28  H18 UNK     1      29.450  -3.658  38.618  1.00  0.00     0.159 HD
HETATM   29  H19 UNK     1      28.628  -3.879  40.123  1.00  0.00     0.159 HD
ENDBRANCH   8  25
BRANCH   2  30
HETATM   30  C2  UNK     1      34.369  -5.432  35.081  1.00  0.00    -0.047 C 
HETATM   31  C10 UNK     1      35.388  -5.725  36.195  1.00  0.00     0.015 C 
HETATM   32  C8  UNK     1      34.384  -6.589  34.068  1.00  0.00     0.015 C 
HETATM   33  C9  UNK     1      34.763  -4.128  34.366  1.00  0.00     0.015 C 
ENDBRANCH   2  30
TORSDOF 4
ENDMDL
