MODEL 1
REMARK VINA RESULT:      -8.8      0.000      0.000
REMARK  4 active torsions:
REMARK  status: ('A' for Active; 'I' for Inactive)
REMARK    1  A    between atoms: C13_13  and  C3_3 
REMARK    2  A    between atoms: C14_14  and  C4_4 
REMARK    3  A    between atoms: C15_15  and  C17_17 
REMARK    4  A    between atoms: C16_16  and  C18_18 
ROOT
HETATM    1  C1  UNK     1      16.928   8.208  33.391  1.00  0.00    -0.026 A 
HETATM    2  C2  UNK     1      17.472   7.057  32.702  1.00  0.00    -0.026 A 
HETATM    3  C3  UNK     1      15.878  10.426  34.717  1.00  0.00    -0.036 A 
HETATM    4  C4  UNK     1      18.522   4.839  31.376  1.00  0.00    -0.036 A 
HETATM    5  C5  UNK     1      15.694   8.115  34.035  1.00  0.00     0.013 A 
HETATM    6  C6  UNK     1      17.171   5.770  33.149  1.00  0.00     0.013 A 
HETATM    7  C7  UNK     1      17.636   9.409  33.410  1.00  0.00     0.013 A 
HETATM    8  C8  UNK     1      18.298   7.235  31.593  1.00  0.00     0.013 A 
HETATM    9  C9  UNK     1      15.169   9.225  34.698  1.00  0.00     0.012 A 
HETATM   10  C10 UNK     1      17.696   4.661  32.485  1.00  0.00     0.012 A 
HETATM   11  C11 UNK     1      17.112  10.517  34.073  1.00  0.00     0.012 A 
HETATM   12  C12 UNK     1      18.823   6.125  30.929  1.00  0.00     0.012 A 
ENDROOT
BRANCH   3  13
HETATM   13  C13 UNK     1      15.330  11.583  35.408  1.00  0.00     0.012 C 
HETATM   14  C15 UNK     1      14.218  11.575  36.180  1.00  0.00     0.012 C 
BRANCH  14  15
HETATM   15  C17 UNK     1      13.673  12.741  36.897  1.00  0.00    -0.036 A 
HETATM   16  C19 UNK     1      12.377  12.694  37.385  1.00  0.00     0.011 A 
HETATM   17  C23 UNK     1      11.863  13.798  38.065  1.00  0.00     0.001 A 
HETATM   18  C27 UNK     1      12.651  14.934  38.248  1.00  0.00     0.000 A 
HETATM   19  C25 UNK     1      13.954  14.967  37.750  1.00  0.00     0.001 A 
HETATM   20  C21 UNK     1      14.468  13.862  37.070  1.00  0.00     0.011 A 
ENDBRANCH  14  15
ENDBRANCH   3  13
BRANCH   4  21
HETATM   21  C14 UNK     1      19.070   3.683  30.685  1.00  0.00     0.012 C 
HETATM   22  C16 UNK     1      18.566   2.427  30.742  1.00  0.00     0.012 C 
BRANCH  22  23
HETATM   23  C18 UNK     1      19.109   1.259  30.026  1.00  0.00    -0.036 A 
HETATM   24  C20 UNK     1      20.122   0.516  30.610  1.00  0.00     0.011 A 
HETATM   25  C24 UNK     1      20.634  -0.590  29.932  1.00  0.00     0.001 A 
HETATM   26  C28 UNK     1      20.128  -0.938  28.680  1.00  0.00     0.000 A 
HETATM   27  C26 UNK     1      19.108  -0.179  28.105  1.00  0.00     0.001 A 
HETATM   28  C22 UNK     1      18.595   0.928  28.783  1.00  0.00     0.011 A 
ENDBRANCH  22  23
ENDBRANCH   4  21
TORSDOF 4
ENDMDL
MODEL 2
REMARK VINA RESULT:      -8.7      0.104      1.584
REMARK  4 active torsions:
REMARK  status: ('A' for Active; 'I' for Inactive)
REMARK    1  A    between atoms: C13_13  and  C3_3 
REMARK    2  A    between atoms: C14_14  and  C4_4 
REMARK    3  A    between atoms: C15_15  and  C17_17 
REMARK    4  A    between atoms: C16_16  and  C18_18 
ROOT
HETATM    1  C1  UNK     1      16.952   8.248  33.347  1.00  0.00    -0.026 A 
HETATM    2  C2  UNK     1      17.490   7.089  32.668  1.00  0.00    -0.026 A 
HETATM    3  C3  UNK     1      15.915  10.480  34.659  1.00  0.00    -0.036 A 
HETATM    4  C4  UNK     1      18.527   4.855  31.357  1.00  0.00    -0.036 A 
HETATM    5  C5  UNK     1      17.697   9.425  33.414  1.00  0.00     0.013 A 
HETATM    6  C6  UNK     1      18.370   7.254  31.597  1.00  0.00     0.013 A 
HETATM    7  C7  UNK     1      15.689   8.187  33.936  1.00  0.00     0.013 A 
HETATM    8  C8  UNK     1      17.130   5.807  33.083  1.00  0.00     0.013 A 
HETATM    9  C9  UNK     1      17.178  10.541  34.070  1.00  0.00     0.012 A 
HETATM   10  C10 UNK     1      18.888   6.137  30.942  1.00  0.00     0.012 A 
HETATM   11  C11 UNK     1      15.170   9.303  34.591  1.00  0.00     0.012 A 
HETATM   12  C12 UNK     1      17.648   4.690  32.427  1.00  0.00     0.012 A 
ENDROOT
BRANCH   3  13
HETATM   13  C13 UNK     1      15.374  11.645  35.343  1.00  0.00     0.012 C 
HETATM   14  C15 UNK     1      14.284  11.642  36.146  1.00  0.00     0.012 C 
BRANCH  14  15
HETATM   15  C17 UNK     1      13.748  12.817  36.854  1.00  0.00    -0.036 A 
HETATM   16  C19 UNK     1      12.513  12.729  37.476  1.00  0.00     0.011 A 
HETATM   17  C23 UNK     1      12.007  13.842  38.149  1.00  0.00     0.001 A 
HETATM   18  C27 UNK     1      12.742  15.027  38.191  1.00  0.00     0.000 A 
HETATM   19  C25 UNK     1      13.984  15.099  37.559  1.00  0.00     0.001 A 
HETATM   20  C21 UNK     1      14.491  13.986  36.886  1.00  0.00     0.011 A 
ENDBRANCH  14  15
ENDBRANCH   3  13
BRANCH   4  21
HETATM   21  C14 UNK     1      19.067   3.690  30.673  1.00  0.00     0.012 C 
HETATM   22  C16 UNK     1      18.559   2.437  30.746  1.00  0.00     0.012 C 
BRANCH  22  23
HETATM   23  C18 UNK     1      19.094   1.261  30.038  1.00  0.00    -0.036 A 
HETATM   24  C20 UNK     1      18.601   0.939  28.784  1.00  0.00     0.011 A 
HETATM   25  C24 UNK     1      19.110  -0.172  28.115  1.00  0.00     0.001 A 
HETATM   26  C28 UNK     1      20.105  -0.949  28.708  1.00  0.00     0.000 A 
HETATM   27  C26 UNK     1      20.591  -0.614  29.971  1.00  0.00     0.001 A 
HETATM   28  C22 UNK     1      20.082   0.499  30.641  1.00  0.00     0.011 A 
ENDBRANCH  22  23
ENDBRANCH   4  21
TORSDOF 4
ENDMDL
MODEL 3
REMARK VINA RESULT:      -8.7      0.286     12.467
REMARK  4 active torsions:
REMARK  status: ('A' for Active; 'I' for Inactive)
REMARK    1  A    between atoms: C13_13  and  C3_3 
REMARK    2  A    between atoms: C14_14  and  C4_4 
REMARK    3  A    between atoms: C15_15  and  C17_17 
REMARK    4  A    between atoms: C16_16  and  C18_18 
ROOT
HETATM    1  C1  UNK     1      17.524   7.080  32.628  1.00  0.00    -0.026 A 
HETATM    2  C2  UNK     1      17.007   8.235  33.330  1.00  0.00    -0.026 A 
HETATM    3  C3  UNK     1      18.524   4.854  31.276  1.00  0.00    -0.036 A 
HETATM    4  C4  UNK     1      16.009  10.462  34.682  1.00  0.00    -0.036 A 
HETATM    5  C5  UNK     1      17.115   5.799  32.996  1.00  0.00     0.013 A 
HETATM    6  C6  UNK     1      15.729   8.197  33.888  1.00  0.00     0.013 A 
HETATM    7  C7  UNK     1      18.433   7.249  31.583  1.00  0.00     0.013 A 
HETATM    8  C8  UNK     1      17.786   9.386  33.448  1.00  0.00     0.013 A 
HETATM    9  C9  UNK     1      17.615   4.686  32.320  1.00  0.00     0.012 A 
HETATM   10  C10 UNK     1      15.230   9.311  34.564  1.00  0.00     0.012 A 
HETATM   11  C11 UNK     1      18.932   6.136  30.907  1.00  0.00     0.012 A 
HETATM   12  C12 UNK     1      17.287  10.500  34.124  1.00  0.00     0.012 A 
ENDROOT
BRANCH   3  13
HETATM   13  C13 UNK     1      19.044   3.693  30.571  1.00  0.00     0.012 C 
HETATM   14  C15 UNK     1      18.593   2.425  30.716  1.00  0.00     0.012 C 
BRANCH  14  15
HETATM   15  C17 UNK     1      19.106   1.252  29.989  1.00  0.00    -0.036 A 
HETATM   16  C19 UNK     1      18.540   0.906  28.772  1.00  0.00     0.011 A 
HETATM   17  C23 UNK     1      19.029  -0.204  28.083  1.00  0.00     0.001 A 
HETATM   18  C27 UNK     1      20.075  -0.954  28.619  1.00  0.00     0.000 A 
HETATM   19  C25 UNK     1      20.634  -0.594  29.846  1.00  0.00     0.001 A 
HETATM   20  C21 UNK     1      20.146   0.517  30.536  1.00  0.00     0.011 A 
ENDBRANCH  14  15
ENDBRANCH   3  13
BRANCH   4  21
HETATM   21  C14 UNK     1      15.488  11.623  35.387  1.00  0.00     0.012 C 
HETATM   22  C16 UNK     1      14.336  11.653  36.097  1.00  0.00     0.012 C 
BRANCH  22  23
HETATM   23  C18 UNK     1      13.818  12.824  36.827  1.00  0.00    -0.036 A 
HETATM   24  C20 UNK     1      12.465  13.116  36.770  1.00  0.00     0.011 A 
HETATM   25  C24 UNK     1      11.976  14.222  37.463  1.00  0.00     0.001 A 
HETATM   26  C28 UNK     1      12.846  15.024  38.202  1.00  0.00     0.000 A 
HETATM   27  C26 UNK     1      14.206  14.717  38.249  1.00  0.00     0.001 A 
HETATM   28  C22 UNK     1      14.695  13.609  37.556  1.00  0.00     0.011 A 
ENDBRANCH  22  23
ENDBRANCH   4  21
TORSDOF 4
ENDMDL
MODEL 4
REMARK VINA RESULT:      -8.7      0.247     12.535
REMARK  4 active torsions:
REMARK  status: ('A' for Active; 'I' for Inactive)
REMARK    1  A    between atoms: C13_13  and  C3_3 
REMARK    2  A    between atoms: C14_14  and  C4_4 
REMARK    3  A    between atoms: C15_15  and  C17_17 
REMARK    4  A    between atoms: C16_16  and  C18_18 
ROOT
HETATM    1  C1  UNK     1      17.532   7.069  32.636  1.00  0.00    -0.026 A 
HETATM    2  C2  UNK     1      17.002   8.230  33.319  1.00  0.00    -0.026 A 
HETATM    3  C3  UNK     1      18.553   4.832  31.320  1.00  0.00    -0.036 A 
HETATM    4  C4  UNK     1      15.980  10.467  34.636  1.00  0.00    -0.036 A 
HETATM    5  C5  UNK     1      18.433   7.230  31.584  1.00  0.00     0.013 A 
HETATM    6  C6  UNK     1      17.766   9.394  33.412  1.00  0.00     0.013 A 
HETATM    7  C7  UNK     1      17.142   5.790  33.031  1.00  0.00     0.013 A 
HETATM    8  C8  UNK     1      15.728   8.185  33.884  1.00  0.00     0.013 A 
HETATM    9  C9  UNK     1      18.943   6.111  30.926  1.00  0.00     0.012 A 
HETATM   10  C10 UNK     1      17.254  10.513  34.070  1.00  0.00     0.012 A 
HETATM   11  C11 UNK     1      17.653   4.671  32.374  1.00  0.00     0.012 A 
HETATM   12  C12 UNK     1      15.217   9.304  34.543  1.00  0.00     0.012 A 
ENDROOT
BRANCH   3  13
HETATM   13  C13 UNK     1      19.085   3.665  30.633  1.00  0.00     0.012 C 
HETATM   14  C15 UNK     1      18.581   2.411  30.719  1.00  0.00     0.012 C 
BRANCH  14  15
HETATM   15  C17 UNK     1      19.108   1.233  30.009  1.00  0.00    -0.036 A 
HETATM   16  C19 UNK     1      20.096   0.467  30.604  1.00  0.00     0.011 A 
HETATM   17  C23 UNK     1      20.592  -0.650  29.931  1.00  0.00     0.001 A 
HETATM   18  C27 UNK     1      20.094  -0.985  28.672  1.00  0.00     0.000 A 
HETATM   19  C25 UNK     1      19.099  -0.203  28.086  1.00  0.00     0.001 A 
HETATM   20  C21 UNK     1      18.602   0.914  28.759  1.00  0.00     0.011 A 
ENDBRANCH  14  15
ENDBRANCH   3  13
BRANCH   4  21
HETATM   21  C14 UNK     1      15.448  11.633  35.323  1.00  0.00     0.012 C 
HETATM   22  C16 UNK     1      14.234  11.701  35.920  1.00  0.00     0.012 C 
BRANCH  22  23
HETATM   23  C18 UNK     1      13.702  12.876  36.632  1.00  0.00    -0.036 A 
HETATM   24  C20 UNK     1      12.331  13.049  36.730  1.00  0.00     0.011 A 
HETATM   25  C24 UNK     1      11.830  14.160  37.406  1.00  0.00     0.001 A 
HETATM   26  C28 UNK     1      12.705  15.085  37.976  1.00  0.00     0.000 A 
HETATM   27  C26 UNK     1      14.083  14.898  37.868  1.00  0.00     0.001 A 
HETATM   28  C22 UNK     1      14.585  13.786  37.192  1.00  0.00     0.011 A 
ENDBRANCH  22  23
ENDBRANCH   4  21
TORSDOF 4
ENDMDL
MODEL 5
REMARK VINA RESULT:      -8.7      1.573     12.483
REMARK  4 active torsions:
REMARK  status: ('A' for Active; 'I' for Inactive)
REMARK    1  A    between atoms: C13_13  and  C3_3 
REMARK    2  A    between atoms: C14_14  and  C4_4 
REMARK    3  A    between atoms: C15_15  and  C17_17 
REMARK    4  A    between atoms: C16_16  and  C18_18 
ROOT
HETATM    1  C1  UNK     1      17.937   6.819  32.404  1.00  0.00    -0.026 A 
HETATM    2  C2  UNK     1      17.526   8.058  33.028  1.00  0.00    -0.026 A 
HETATM    3  C3  UNK     1      18.731   4.430  31.202  1.00  0.00    -0.036 A 
HETATM    4  C4  UNK     1      16.732  10.447  34.230  1.00  0.00    -0.036 A 
HETATM    5  C5  UNK     1      17.146   5.677  32.532  1.00  0.00     0.013 A 
HETATM    6  C6  UNK     1      16.169   8.336  33.199  1.00  0.00     0.013 A 
HETATM    7  C7  UNK     1      19.125   6.766  31.675  1.00  0.00     0.013 A 
HETATM    8  C8  UNK     1      18.485   8.974  33.458  1.00  0.00     0.013 A 
HETATM    9  C9  UNK     1      17.543   4.483  31.931  1.00  0.00     0.012 A 
HETATM   10  C10 UNK     1      15.773   9.531  33.800  1.00  0.00     0.012 A 
HETATM   11  C11 UNK     1      19.521   5.572  31.074  1.00  0.00     0.012 A 
HETATM   12  C12 UNK     1      18.088  10.169  34.059  1.00  0.00     0.012 A 
ENDROOT
BRANCH   3  13
HETATM   13  C13 UNK     1      19.145   3.184  30.576  1.00  0.00     0.012 C 
HETATM   14  C15 UNK     1      19.002   1.952  31.120  1.00  0.00     0.012 C 
BRANCH  14  15
HETATM   15  C17 UNK     1      19.402   0.688  30.479  1.00  0.00    -0.036 A 
HETATM   16  C19 UNK     1      19.765  -0.390  31.270  1.00  0.00     0.011 A 
HETATM   17  C23 UNK     1      20.142  -1.587  30.661  1.00  0.00     0.001 A 
HETATM   18  C27 UNK     1      20.152  -1.691  29.271  1.00  0.00     0.000 A 
HETATM   19  C25 UNK     1      19.784  -0.596  28.488  1.00  0.00     0.001 A 
HETATM   20  C21 UNK     1      19.406   0.602  29.096  1.00  0.00     0.011 A 
ENDBRANCH  14  15
ENDBRANCH   3  13
BRANCH   4  21
HETATM   21  C14 UNK     1      16.319  11.693  34.856  1.00  0.00     0.012 C 
HETATM   22  C16 UNK     1      16.892  12.902  34.643  1.00  0.00     0.012 C 
BRANCH  22  23
HETATM   23  C18 UNK     1      16.461  14.167  35.263  1.00  0.00    -0.036 A 
HETATM   24  C20 UNK     1      15.673  14.133  36.402  1.00  0.00     0.011 A 
HETATM   25  C24 UNK     1      15.268  15.331  36.988  1.00  0.00     0.001 A 
HETATM   26  C28 UNK     1      15.654  16.549  36.427  1.00  0.00     0.000 A 
HETATM   27  C26 UNK     1      16.446  16.567  35.279  1.00  0.00     0.001 A 
HETATM   28  C22 UNK     1      16.853  15.368  34.693  1.00  0.00     0.011 A 
ENDBRANCH  22  23
ENDBRANCH   4  21
TORSDOF 4
ENDMDL
MODEL 6
REMARK VINA RESULT:      -8.1     23.034     24.942
REMARK  4 active torsions:
REMARK  status: ('A' for Active; 'I' for Inactive)
REMARK    1  A    between atoms: C13_13  and  C3_3 
REMARK    2  A    between atoms: C14_14  and  C4_4 
REMARK    3  A    between atoms: C15_15  and  C17_17 
REMARK    4  A    between atoms: C16_16  and  C18_18 
ROOT
HETATM    1  C1  UNK     1      17.314  11.145  10.310  1.00  0.00    -0.026 A 
HETATM    2  C2  UNK     1      16.021  10.587   9.978  1.00  0.00    -0.026 A 
HETATM    3  C3  UNK     1      19.807  12.222  10.948  1.00  0.00    -0.036 A 
HETATM    4  C4  UNK     1      13.529   9.510   9.339  1.00  0.00    -0.036 A 
HETATM    5  C5  UNK     1      17.416  12.138  11.284  1.00  0.00     0.013 A 
HETATM    6  C6  UNK     1      15.020  10.522  10.948  1.00  0.00     0.013 A 
HETATM    7  C7  UNK     1      18.459  10.690   9.656  1.00  0.00     0.013 A 
HETATM    8  C8  UNK     1      15.776  10.114   8.690  1.00  0.00     0.013 A 
HETATM    9  C9  UNK     1      18.663  12.677  11.603  1.00  0.00     0.012 A 
HETATM   10  C10 UNK     1      13.773   9.983  10.628  1.00  0.00     0.012 A 
HETATM   11  C11 UNK     1      19.705  11.228   9.975  1.00  0.00     0.012 A 
HETATM   12  C12 UNK     1      14.529   9.575   8.369  1.00  0.00     0.012 A 
ENDROOT
BRANCH   3  13
HETATM   13  C13 UNK     1      21.107  12.784  11.282  1.00  0.00     0.012 C 
HETATM   14  C15 UNK     1      22.207  12.066  11.607  1.00  0.00     0.012 C 
BRANCH  14  15
HETATM   15  C17 UNK     1      23.529  12.633  11.925  1.00  0.00    -0.036 A 
HETATM   16  C19 UNK     1      24.605  12.352  11.099  1.00  0.00     0.011 A 
HETATM   17  C23 UNK     1      25.856  12.892  11.400  1.00  0.00     0.001 A 
HETATM   18  C27 UNK     1      26.014  13.704  12.523  1.00  0.00     0.000 A 
HETATM   19  C25 UNK     1      24.921  13.977  13.346  1.00  0.00     0.001 A 
HETATM   20  C21 UNK     1      23.669  13.437  13.044  1.00  0.00     0.011 A 
ENDBRANCH  14  15
ENDBRANCH   3  13
BRANCH   4  21
HETATM   21  C14 UNK     1      12.229   8.947   9.005  1.00  0.00     0.012 C 
HETATM   22  C16 UNK     1      12.022   7.904   8.167  1.00  0.00     0.012 C 
BRANCH  22  23
HETATM   23  C18 UNK     1      10.707   7.322   7.844  1.00  0.00    -0.036 A 
HETATM   24  C20 UNK     1      10.519   6.707   6.618  1.00  0.00     0.011 A 
HETATM   25  C24 UNK     1       9.275   6.155   6.314  1.00  0.00     0.001 A 
HETATM   26  C28 UNK     1       8.235   6.226   7.241  1.00  0.00     0.000 A 
HETATM   27  C26 UNK     1       8.439   6.850   8.472  1.00  0.00     0.001 A 
HETATM   28  C22 UNK     1       9.684   7.402   8.776  1.00  0.00     0.011 A 
ENDBRANCH  22  23
ENDBRANCH   4  21
TORSDOF 4
ENDMDL
MODEL 7
REMARK VINA RESULT:      -8.1     22.987     25.238
REMARK  4 active torsions:
REMARK  status: ('A' for Active; 'I' for Inactive)
REMARK    1  A    between atoms: C13_13  and  C3_3 
REMARK    2  A    between atoms: C14_14  and  C4_4 
REMARK    3  A    between atoms: C15_15  and  C17_17 
REMARK    4  A    between atoms: C16_16  and  C18_18 
ROOT
HETATM    1  C1  UNK     1      16.031  10.569   9.971  1.00  0.00    -0.026 A 
HETATM    2  C2  UNK     1      17.318  11.134  10.312  1.00  0.00    -0.026 A 
HETATM    3  C3  UNK     1      13.547   9.483   9.312  1.00  0.00    -0.036 A 
HETATM    4  C4  UNK     1      19.802  12.221  10.972  1.00  0.00    -0.036 A 
HETATM    5  C5  UNK     1      15.782  10.138   8.668  1.00  0.00     0.013 A 
HETATM    6  C6  UNK     1      18.465  10.717   9.634  1.00  0.00     0.013 A 
HETATM    7  C7  UNK     1      15.038  10.458  10.944  1.00  0.00     0.013 A 
HETATM    8  C8  UNK     1      17.414  12.094  11.319  1.00  0.00     0.013 A 
HETATM    9  C9  UNK     1      14.540   9.595   8.339  1.00  0.00     0.012 A 
HETATM   10  C10 UNK     1      19.706  11.261   9.964  1.00  0.00     0.012 A 
HETATM   11  C11 UNK     1      13.797   9.914  10.615  1.00  0.00     0.012 A 
HETATM   12  C12 UNK     1      18.656  12.638  11.649  1.00  0.00     0.012 A 
ENDROOT
BRANCH   3  13
HETATM   13  C13 UNK     1      12.252   8.917   8.968  1.00  0.00     0.012 C 
HETATM   14  C15 UNK     1      12.058   7.854   8.152  1.00  0.00     0.012 C 
BRANCH  14  15
HETATM   15  C17 UNK     1      10.748   7.268   7.818  1.00  0.00    -0.036 A 
HETATM   16  C19 UNK     1      10.559   6.694   6.571  1.00  0.00     0.011 A 
HETATM   17  C23 UNK     1       9.319   6.137   6.257  1.00  0.00     0.001 A 
HETATM   18  C27 UNK     1       8.286   6.161   7.193  1.00  0.00     0.000 A 
HETATM   19  C25 UNK     1       8.492   6.743   8.444  1.00  0.00     0.001 A 
HETATM   20  C21 UNK     1       9.732   7.300   8.759  1.00  0.00     0.011 A 
ENDBRANCH  14  15
ENDBRANCH   3  13
BRANCH   4  21
HETATM   21  C14 UNK     1      21.097  12.787  11.316  1.00  0.00     0.012 C 
HETATM   22  C16 UNK     1      22.205  12.072  11.622  1.00  0.00     0.012 C 
BRANCH  22  23
HETATM   23  C18 UNK     1      23.522  12.645  11.952  1.00  0.00    -0.036 A 
HETATM   24  C20 UNK     1      23.659  13.422  13.091  1.00  0.00     0.011 A 
HETATM   25  C24 UNK     1      24.906  13.962  13.403  1.00  0.00     0.001 A 
HETATM   26  C28 UNK     1      26.000  13.719  12.571  1.00  0.00     0.000 A 
HETATM   27  C26 UNK     1      25.845  12.936  11.427  1.00  0.00     0.001 A 
HETATM   28  C22 UNK     1      24.598  12.395  11.115  1.00  0.00     0.011 A 
ENDBRANCH  22  23
ENDBRANCH   4  21
TORSDOF 4
ENDMDL
MODEL 8
REMARK VINA RESULT:      -8.0      1.622      2.426
REMARK  4 active torsions:
REMARK  status: ('A' for Active; 'I' for Inactive)
REMARK    1  A    between atoms: C13_13  and  C3_3 
REMARK    2  A    between atoms: C14_14  and  C4_4 
REMARK    3  A    between atoms: C15_15  and  C17_17 
REMARK    4  A    between atoms: C16_16  and  C18_18 
ROOT
HETATM    1  C1  UNK     1      17.901   8.639  33.307  1.00  0.00    -0.026 A 
HETATM    2  C2  UNK     1      18.097   7.293  32.812  1.00  0.00    -0.026 A 
HETATM    3  C3  UNK     1      17.525  11.234  34.257  1.00  0.00    -0.036 A 
HETATM    4  C4  UNK     1      18.474   4.698  31.860  1.00  0.00    -0.036 A 
HETATM    5  C5  UNK     1      16.624   9.200  33.314  1.00  0.00     0.013 A 
HETATM    6  C6  UNK     1      17.074   6.351  32.930  1.00  0.00     0.013 A 
HETATM    7  C7  UNK     1      18.990   9.374  33.774  1.00  0.00     0.013 A 
HETATM    8  C8  UNK     1      19.307   6.937  32.218  1.00  0.00     0.013 A 
HETATM    9  C9  UNK     1      16.437  10.498  33.790  1.00  0.00     0.012 A 
HETATM   10  C10 UNK     1      17.263   5.053  32.454  1.00  0.00     0.012 A 
HETATM   11  C11 UNK     1      18.802  10.671  34.250  1.00  0.00     0.012 A 
HETATM   12  C12 UNK     1      19.496   5.639  31.742  1.00  0.00     0.012 A 
ENDROOT
BRANCH   3  13
HETATM   13  C13 UNK     1      17.329  12.587  34.753  1.00  0.00     0.012 C 
HETATM   14  C15 UNK     1      16.134  13.216  34.851  1.00  0.00     0.012 C 
BRANCH  14  15
HETATM   15  C17 UNK     1      15.931  14.579  35.372  1.00  0.00    -0.036 A 
HETATM   16  C19 UNK     1      16.696  15.619  34.868  1.00  0.00     0.011 A 
HETATM   17  C23 UNK     1      16.501  16.910  35.360  1.00  0.00     0.001 A 
HETATM   18  C27 UNK     1      15.545  17.144  36.348  1.00  0.00     0.000 A 
HETATM   19  C25 UNK     1      14.784  16.086  36.846  1.00  0.00     0.001 A 
HETATM   20  C21 UNK     1      14.978  14.794  36.354  1.00  0.00     0.011 A 
ENDBRANCH  14  15
ENDBRANCH   3  13
BRANCH   4  21
HETATM   21  C14 UNK     1      18.671   3.344  31.365  1.00  0.00     0.012 C 
HETATM   22  C16 UNK     1      18.913   3.013  30.074  1.00  0.00     0.012 C 
BRANCH  22  23
HETATM   23  C18 UNK     1      19.132   1.644  29.575  1.00  0.00    -0.036 A 
HETATM   24  C20 UNK     1      18.428   1.205  28.466  1.00  0.00     0.011 A 
HETATM   25  C24 UNK     1      18.637  -0.090  27.993  1.00  0.00     0.001 A 
HETATM   26  C28 UNK     1      19.547  -0.930  28.636  1.00  0.00     0.000 A 
HETATM   27  C26 UNK     1      20.248  -0.473  29.753  1.00  0.00     0.001 A 
HETATM   28  C22 UNK     1      20.039   0.823  30.225  1.00  0.00     0.011 A 
ENDBRANCH  22  23
ENDBRANCH   4  21
TORSDOF 4
ENDMDL
MODEL 9
REMARK VINA RESULT:      -7.9      7.433     10.596
REMARK  4 active torsions:
REMARK  status: ('A' for Active; 'I' for Inactive)
REMARK    1  A    between atoms: C13_13  and  C3_3 
REMARK    2  A    between atoms: C14_14  and  C4_4 
REMARK    3  A    between atoms: C15_15  and  C17_17 
REMARK    4  A    between atoms: C16_16  and  C18_18 
ROOT
HETATM    1  C1  UNK     1      18.655  -0.499  35.714  1.00  0.00    -0.026 A 
HETATM    2  C2  UNK     1      18.952  -1.859  36.112  1.00  0.00    -0.026 A 
HETATM    3  C3  UNK     1      18.081   2.121  34.950  1.00  0.00    -0.036 A 
HETATM    4  C4  UNK     1      19.525  -4.480  36.876  1.00  0.00    -0.036 A 
HETATM    5  C5  UNK     1      19.495   0.542  36.109  1.00  0.00     0.013 A 
HETATM    6  C6  UNK     1      20.275  -2.254  36.309  1.00  0.00     0.013 A 
HETATM    7  C7  UNK     1      17.528  -0.230  34.937  1.00  0.00     0.013 A 
HETATM    8  C8  UNK     1      17.916  -2.774  36.297  1.00  0.00     0.013 A 
HETATM    9  C9  UNK     1      19.208   1.852  35.726  1.00  0.00     0.012 A 
HETATM   10  C10 UNK     1      20.561  -3.565  36.691  1.00  0.00     0.012 A 
HETATM   11  C11 UNK     1      17.242   1.079  34.555  1.00  0.00     0.012 A 
HETATM   12  C12 UNK     1      18.202  -4.084  36.679  1.00  0.00     0.012 A 
ENDROOT
BRANCH   3  13
HETATM   13  C13 UNK     1      17.782   3.488  34.551  1.00  0.00     0.012 C 
HETATM   14  C15 UNK     1      18.617   4.299  33.860  1.00  0.00     0.012 C 
BRANCH  14  15
HETATM   15  C17 UNK     1      18.308   5.676  33.439  1.00  0.00    -0.036 A 
HETATM   16  C19 UNK     1      17.287   5.895  32.527  1.00  0.00     0.011 A 
HETATM   17  C23 UNK     1      16.994   7.200  32.131  1.00  0.00     0.001 A 
HETATM   18  C27 UNK     1      17.725   8.269  32.651  1.00  0.00     0.000 A 
HETATM   19  C25 UNK     1      18.749   8.032  33.568  1.00  0.00     0.001 A 
HETATM   20  C21 UNK     1      19.043   6.727  33.964  1.00  0.00     0.011 A 
ENDBRANCH  14  15
ENDBRANCH   3  13
BRANCH   4  21
HETATM   21  C14 UNK     1      19.823  -5.847  37.274  1.00  0.00     0.012 C 
HETATM   22  C16 UNK     1      18.908  -6.833  37.425  1.00  0.00     0.012 C 
BRANCH  22  23
HETATM   23  C18 UNK     1      19.213  -8.223  37.810  1.00  0.00    -0.036 A 
HETATM   24  C20 UNK     1      19.725  -8.483  39.070  1.00  0.00     0.011 A 
HETATM   25  C24 UNK     1      20.011  -9.798  39.434  1.00  0.00     0.001 A 
HETATM   26  C28 UNK     1      19.782 -10.837  38.532  1.00  0.00     0.000 A 
HETATM   27  C26 UNK     1      19.266 -10.560  37.266  1.00  0.00     0.001 A 
HETATM   28  C22 UNK     1      18.980  -9.243  36.902  1.00  0.00     0.011 A 
ENDBRANCH  22  23
ENDBRANCH   4  21
TORSDOF 4
ENDMDL
MODEL 10
REMARK VINA RESULT:      -7.8      7.449     10.668
REMARK  4 active torsions:
REMARK  status: ('A' for Active; 'I' for Inactive)
REMARK    1  A    between atoms: C13_13  and  C3_3 
REMARK    2  A    between atoms: C14_14  and  C4_4 
REMARK    3  A    between atoms: C15_15  and  C17_17 
REMARK    4  A    between atoms: C16_16  and  C18_18 
ROOT
HETATM    1  C1  UNK     1      18.678  -0.533  35.739  1.00  0.00    -0.026 A 
HETATM    2  C2  UNK     1      18.967  -1.889  36.156  1.00  0.00    -0.026 A 
HETATM    3  C3  UNK     1      18.123   2.078  34.931  1.00  0.00    -0.036 A 
HETATM    4  C4  UNK     1      19.523  -4.500  36.964  1.00  0.00    -0.036 A 
HETATM    5  C5  UNK     1      17.565  -0.272  34.939  1.00  0.00     0.013 A 
HETATM    6  C6  UNK     1      17.926  -2.800  36.335  1.00  0.00     0.013 A 
HETATM    7  C7  UNK     1      19.513   0.511  36.134  1.00  0.00     0.013 A 
HETATM    8  C8  UNK     1      20.285  -2.283  36.381  1.00  0.00     0.013 A 
HETATM    9  C9  UNK     1      17.288   1.034  34.536  1.00  0.00     0.012 A 
HETATM   10  C10 UNK     1      18.204  -4.106  36.739  1.00  0.00     0.012 A 
HETATM   11  C11 UNK     1      19.235   1.816  35.731  1.00  0.00     0.012 A 
HETATM   12  C12 UNK     1      20.564  -3.589  36.785  1.00  0.00     0.012 A 
ENDROOT
BRANCH   3  13
HETATM   13  C13 UNK     1      17.833   3.440  34.510  1.00  0.00     0.012 C 
HETATM   14  C15 UNK     1      18.202   3.986  33.327  1.00  0.00     0.012 C 
BRANCH  14  15
HETATM   15  C17 UNK     1      17.892   5.358  32.891  1.00  0.00    -0.036 A 
HETATM   16  C19 UNK     1      18.080   5.708  31.564  1.00  0.00     0.011 A 
HETATM   17  C23 UNK     1      17.783   7.007  31.152  1.00  0.00     0.001 A 
HETATM   18  C27 UNK     1      17.304   7.940  32.071  1.00  0.00     0.000 A 
HETATM   19  C25 UNK     1      17.121   7.573  33.405  1.00  0.00     0.001 A 
HETATM   20  C21 UNK     1      17.417   6.273  33.818  1.00  0.00     0.011 A 
ENDBRANCH  14  15
ENDBRANCH   3  13
BRANCH   4  21
HETATM   21  C14 UNK     1      19.813  -5.862  37.385  1.00  0.00     0.012 C 
HETATM   22  C16 UNK     1      18.924  -6.883  37.392  1.00  0.00     0.012 C 
BRANCH  22  23
HETATM   23  C18 UNK     1      19.223  -8.267  37.801  1.00  0.00    -0.036 A 
HETATM   24  C20 UNK     1      19.713  -8.509  39.073  1.00  0.00     0.011 A 
HETATM   25  C24 UNK     1      19.993  -9.819  39.459  1.00  0.00     0.001 A 
HETATM   26  C28 UNK     1      19.780 -10.871  38.567  1.00  0.00     0.000 A 
HETATM   27  C26 UNK     1      19.287 -10.611  37.289  1.00  0.00     0.001 A 
HETATM   28  C22 UNK     1      19.006  -9.300  36.903  1.00  0.00     0.011 A 
ENDBRANCH  22  23
ENDBRANCH   4  21
TORSDOF 4
ENDMDL
