MODEL 1
REMARK VINA RESULT:      -9.0      0.000      0.000
REMARK  4 active torsions:
REMARK  status: ('A' for Active; 'I' for Inactive)
REMARK    1  A    between atoms: C1_6  and  N1_5 
REMARK       I    between atoms: C12_17  and  N1_5 
REMARK    2  A    between atoms: C1_6  and  C3_8 
REMARK    3  A    between atoms: C2_7  and  C4_9 
REMARK    4  A    between atoms: C12_17  and  C13_18 
ROOT
HETATM    1  O2  UNK     1      20.862  -4.135  37.814  1.00  0.00    -0.267 OA
HETATM    2  N1  UNK     1      19.310  -3.997  36.081  1.00  0.00    -0.348 N 
HETATM    3  C12 UNK     1      20.107  -4.658  36.996  1.00  0.00     0.258 C 
HETATM    4  H7  UNK     1      18.677  -4.533  35.494  1.00  0.00     0.163 HD
ENDROOT
BRANCH   3   5
HETATM    5  C13 UNK     1      19.978  -6.119  36.918  1.00  0.00     0.108 A 
HETATM    6  C15 UNK     1      21.105  -6.801  36.685  1.00  0.00     0.037 A 
HETATM    7  C14 UNK     1      21.078  -8.252  36.590  1.00  0.00     0.001 A 
HETATM    8  C16 UNK     1      19.864  -8.914  36.746  1.00  0.00     0.089 A 
HETATM    9  C18 UNK     1      22.229  -9.005  36.347  1.00  0.00     0.038 A 
HETATM   10  O1  UNK     1      18.680  -8.191  36.992  1.00  0.00    -0.274 OA
HETATM   11  C19 UNK     1      19.769 -10.302  36.667  1.00  0.00     0.040 A 
HETATM   12  C17 UNK     1      18.676  -6.802  37.088  1.00  0.00     0.304 A 
HETATM   13  O3  UNK     1      17.640  -6.180  37.302  1.00  0.00    -0.259 OA
HETATM   14  C21 UNK     1      20.922 -11.045  36.425  1.00  0.00     0.026 A 
HETATM   15  C20 UNK     1      22.150 -10.398  36.266  1.00  0.00     0.035 A 
HETATM   16 Cl1  UNK     1      23.572 -11.322  35.967  1.00  0.00    -0.084 Cl
ENDBRANCH   3   5
BRANCH   2  17
HETATM   17  C1  UNK     1      19.264  -2.557  35.971  1.00  0.00     0.114 C 
HETATM   18  C9  UNK     1      17.911  -2.042  36.466  1.00  0.00     0.037 C 
BRANCH  17  19
HETATM   19  C3  UNK     1      19.554  -2.099  34.555  1.00  0.00    -0.036 A 
HETATM   20  C5  UNK     1      20.599  -2.679  33.861  1.00  0.00     0.010 A 
HETATM   21  C7  UNK     1      20.865  -2.257  32.558  1.00  0.00     0.008 A 
HETATM   22  C4  UNK     1      20.082  -1.263  31.973  1.00  0.00    -0.055 A 
HETATM   23  C8  UNK     1      19.032  -0.690  32.690  1.00  0.00     0.008 A 
HETATM   24  C6  UNK     1      18.766  -1.112  33.993  1.00  0.00     0.010 A 
BRANCH  22  25
HETATM   25  C2  UNK     1      20.366  -0.812  30.580  1.00  0.00     0.010 C 
HETATM   26  C10 UNK     1      19.483   0.376  30.154  1.00  0.00     0.015 C 
HETATM   27  C11 UNK     1      20.239  -1.952  29.553  1.00  0.00     0.015 C 
ENDBRANCH  22  25
ENDBRANCH  17  19
ENDBRANCH   2  17
TORSDOF 4
ENDMDL
MODEL 2
REMARK VINA RESULT:      -9.0      6.909     10.177
REMARK  4 active torsions:
REMARK  status: ('A' for Active; 'I' for Inactive)
REMARK    1  A    between atoms: C1_6  and  N1_5 
REMARK       I    between atoms: C12_17  and  N1_5 
REMARK    2  A    between atoms: C1_6  and  C3_8 
REMARK    3  A    between atoms: C2_7  and  C4_9 
REMARK    4  A    between atoms: C12_17  and  C13_18 
ROOT
HETATM    1  O2  UNK     1      18.254   3.101  28.925  1.00  0.00    -0.267 OA
HETATM    2  N1  UNK     1      18.965   4.255  30.821  1.00  0.00    -0.348 N 
HETATM    3  C12 UNK     1      18.661   3.125  30.085  1.00  0.00     0.258 C 
HETATM    4  H7  UNK     1      19.354   4.151  31.754  1.00  0.00     0.163 HD
ENDROOT
BRANCH   3   5
HETATM    5  C13 UNK     1      18.872   1.880  30.835  1.00  0.00     0.108 A 
HETATM    6  C15 UNK     1      19.545   0.914  30.199  1.00  0.00     0.037 A 
HETATM    7  C14 UNK     1      19.805  -0.355  30.860  1.00  0.00     0.001 A 
HETATM    8  C16 UNK     1      19.343  -0.545  32.159  1.00  0.00     0.089 A 
HETATM    9  C18 UNK     1      20.501  -1.392  30.235  1.00  0.00     0.038 A 
HETATM   10  O1  UNK     1      18.636   0.477  32.824  1.00  0.00    -0.274 OA
HETATM   11  C19 UNK     1      19.558  -1.737  32.848  1.00  0.00     0.040 A 
HETATM   12  C17 UNK     1      18.373   1.701  32.217  1.00  0.00     0.304 A 
HETATM   13  O3  UNK     1      17.756   2.585  32.803  1.00  0.00    -0.259 OA
HETATM   14  C21 UNK     1      20.254  -2.765  32.217  1.00  0.00     0.026 A 
HETATM   15  C20 UNK     1      20.725  -2.594  30.914  1.00  0.00     0.035 A 
HETATM   16 Cl1  UNK     1      21.586  -3.868  30.139  1.00  0.00    -0.084 Cl
ENDBRANCH   3   5
BRANCH   2  17
HETATM   17  C1  UNK     1      18.839   5.595  30.296  1.00  0.00     0.114 C 
HETATM   18  C9  UNK     1      20.168   6.037  29.679  1.00  0.00     0.037 C 
BRANCH  17  19
HETATM   19  C3  UNK     1      18.365   6.566  31.359  1.00  0.00    -0.036 A 
HETATM   20  C5  UNK     1      17.166   7.231  31.177  1.00  0.00     0.010 A 
HETATM   21  C7  UNK     1      16.730   8.124  32.156  1.00  0.00     0.008 A 
HETATM   22  C4  UNK     1      17.500   8.337  33.299  1.00  0.00    -0.055 A 
HETATM   23  C8  UNK     1      18.706   7.656  33.464  1.00  0.00     0.008 A 
HETATM   24  C6  UNK     1      19.142   6.763  32.485  1.00  0.00     0.010 A 
BRANCH  22  25
HETATM   25  C2  UNK     1      17.034   9.292  34.346  1.00  0.00     0.010 C 
HETATM   26  C10 UNK     1      15.499   9.310  34.485  1.00  0.00     0.015 C 
HETATM   27  C11 UNK     1      17.554  10.722  34.112  1.00  0.00     0.015 C 
ENDBRANCH  22  25
ENDBRANCH  17  19
ENDBRANCH   2  17
TORSDOF 4
ENDMDL
MODEL 3
REMARK VINA RESULT:      -8.9      3.858      8.885
REMARK  4 active torsions:
REMARK  status: ('A' for Active; 'I' for Inactive)
REMARK    1  A    between atoms: C1_6  and  N1_5 
REMARK       I    between atoms: C12_17  and  N1_5 
REMARK    2  A    between atoms: C1_6  and  C3_8 
REMARK    3  A    between atoms: C2_7  and  C4_9 
REMARK    4  A    between atoms: C12_17  and  C13_18 
ROOT
HETATM    1  O2  UNK     1      19.002  -1.324  35.508  1.00  0.00    -0.267 OA
HETATM    2  N1  UNK     1      19.819  -3.463  35.072  1.00  0.00    -0.348 N 
HETATM    3  C12 UNK     1      19.484  -2.162  34.748  1.00  0.00     0.258 C 
HETATM    4  H7  UNK     1      20.270  -4.049  34.375  1.00  0.00     0.163 HD
ENDROOT
BRANCH   3   5
HETATM    5  C13 UNK     1      19.763  -1.832  33.344  1.00  0.00     0.108 A 
HETATM    6  C15 UNK     1      19.143  -0.752  32.856  1.00  0.00     0.037 A 
HETATM    7  C14 UNK     1      19.357  -0.345  31.476  1.00  0.00     0.001 A 
HETATM    8  C16 UNK     1      20.215  -1.097  30.678  1.00  0.00     0.089 A 
HETATM    9  C18 UNK     1      18.731   0.774  30.923  1.00  0.00     0.038 A 
HETATM   10  O1  UNK     1      20.866  -2.233  31.198  1.00  0.00    -0.274 OA
HETATM   11  C19 UNK     1      20.463  -0.761  29.348  1.00  0.00     0.040 A 
HETATM   12  C17 UNK     1      20.680  -2.646  32.515  1.00  0.00     0.304 A 
HETATM   13  O3  UNK     1      21.251  -3.636  32.959  1.00  0.00    -0.259 OA
HETATM   14  C21 UNK     1      19.834   0.357  28.805  1.00  0.00     0.026 A 
HETATM   15  C20 UNK     1      18.971   1.123  29.591  1.00  0.00     0.035 A 
HETATM   16 Cl1  UNK     1      18.197   2.505  28.914  1.00  0.00    -0.084 Cl
ENDBRANCH   3   5
BRANCH   2  17
HETATM   17  C1  UNK     1      19.639  -4.017  36.395  1.00  0.00     0.114 C 
HETATM   18  C9  UNK     1      20.581  -3.322  37.380  1.00  0.00     0.037 C 
BRANCH  17  19
HETATM   19  C3  UNK     1      19.834  -5.520  36.398  1.00  0.00    -0.036 A 
HETATM   20  C5  UNK     1      19.857  -6.193  37.606  1.00  0.00     0.010 A 
HETATM   21  C7  UNK     1      20.036  -7.577  37.609  1.00  0.00     0.008 A 
HETATM   22  C4  UNK     1      20.188  -8.263  36.404  1.00  0.00    -0.055 A 
HETATM   23  C8  UNK     1      20.162  -7.566  35.197  1.00  0.00     0.008 A 
HETATM   24  C6  UNK     1      19.983  -6.183  35.194  1.00  0.00     0.010 A 
BRANCH  22  25
HETATM   25  C2  UNK     1      20.380  -9.742  36.407  1.00  0.00     0.010 C 
HETATM   26  C10 UNK     1      19.597 -10.435  37.538  1.00  0.00     0.015 C 
HETATM   27  C11 UNK     1      21.865 -10.144  36.477  1.00  0.00     0.015 C 
ENDBRANCH  22  25
ENDBRANCH  17  19
ENDBRANCH   2  17
TORSDOF 4
ENDMDL
MODEL 4
REMARK VINA RESULT:      -8.9      1.750      2.149
REMARK  4 active torsions:
REMARK  status: ('A' for Active; 'I' for Inactive)
REMARK    1  A    between atoms: C1_6  and  N1_5 
REMARK       I    between atoms: C12_17  and  N1_5 
REMARK    2  A    between atoms: C1_6  and  C3_8 
REMARK    3  A    between atoms: C2_7  and  C4_9 
REMARK    4  A    between atoms: C12_17  and  C13_18 
ROOT
HETATM    1  O2  UNK     1      21.107  -4.157  37.766  1.00  0.00    -0.267 OA
HETATM    2  N1  UNK     1      19.663  -3.987  35.943  1.00  0.00    -0.348 N 
HETATM    3  C12 UNK     1      20.399  -4.665  36.897  1.00  0.00     0.258 C 
HETATM    4  H7  UNK     1      19.063  -4.511  35.312  1.00  0.00     0.163 HD
ENDROOT
BRANCH   3   5
HETATM    5  C13 UNK     1      20.264  -6.123  36.793  1.00  0.00     0.108 A 
HETATM    6  C15 UNK     1      20.037  -6.779  37.936  1.00  0.00     0.037 A 
HETATM    7  C14 UNK     1      19.888  -8.226  37.935  1.00  0.00     0.001 A 
HETATM    8  C16 UNK     1      19.987  -8.911  36.727  1.00  0.00     0.089 A 
HETATM    9  C18 UNK     1      19.652  -8.953  39.104  1.00  0.00     0.038 A 
HETATM   10  O1  UNK     1      20.226  -8.215  35.526  1.00  0.00    -0.274 OA
HETATM   11  C19 UNK     1      19.855 -10.297  36.657  1.00  0.00     0.040 A 
HETATM   12  C17 UNK     1      20.372  -6.831  35.497  1.00  0.00     0.304 A 
HETATM   13  O3  UNK     1      20.580  -6.233  34.447  1.00  0.00    -0.259 OA
HETATM   14  C21 UNK     1      19.618 -11.013  37.828  1.00  0.00     0.026 A 
HETATM   15  C20 UNK     1      19.516 -10.343  39.048  1.00  0.00     0.035 A 
HETATM   16 Cl1  UNK     1      19.222 -11.234  40.493  1.00  0.00    -0.084 Cl
ENDBRANCH   3   5
BRANCH   2  17
HETATM   17  C1  UNK     1      19.635  -2.545  35.848  1.00  0.00     0.114 C 
HETATM   18  C9  UNK     1      18.425  -1.999  36.609  1.00  0.00     0.037 C 
BRANCH  17  19
HETATM   19  C3  UNK     1      19.643  -2.084  34.404  1.00  0.00    -0.036 A 
HETATM   20  C5  UNK     1      20.529  -2.666  33.516  1.00  0.00     0.010 A 
HETATM   21  C7  UNK     1      20.536  -2.242  32.187  1.00  0.00     0.008 A 
HETATM   22  C4  UNK     1      19.657  -1.243  31.769  1.00  0.00    -0.055 A 
HETATM   23  C8  UNK     1      18.771  -0.668  32.680  1.00  0.00     0.008 A 
HETATM   24  C6  UNK     1      18.764  -1.093  34.009  1.00  0.00     0.010 A 
BRANCH  22  25
HETATM   25  C2  UNK     1      19.664  -0.789  30.349  1.00  0.00     0.010 C 
HETATM   26  C10 UNK     1      20.923  -1.251  29.589  1.00  0.00     0.015 C 
HETATM   27  C11 UNK     1      19.506   0.737  30.217  1.00  0.00     0.015 C 
ENDBRANCH  22  25
ENDBRANCH  17  19
ENDBRANCH   2  17
TORSDOF 4
ENDMDL
MODEL 5
REMARK VINA RESULT:      -8.8      7.273     10.479
REMARK  4 active torsions:
REMARK  status: ('A' for Active; 'I' for Inactive)
REMARK    1  A    between atoms: C1_6  and  N1_5 
REMARK       I    between atoms: C12_17  and  N1_5 
REMARK    2  A    between atoms: C1_6  and  C3_8 
REMARK    3  A    between atoms: C2_7  and  C4_9 
REMARK    4  A    between atoms: C12_17  and  C13_18 
ROOT
HETATM    1  O2  UNK     1      18.286   2.892  29.572  1.00  0.00    -0.267 OA
HETATM    2  N1  UNK     1      18.767   4.279  31.382  1.00  0.00    -0.348 N 
HETATM    3  C12 UNK     1      18.541   3.064  30.763  1.00  0.00     0.258 C 
HETATM    4  H7  UNK     1      19.031   4.295  32.364  1.00  0.00     0.163 HD
ENDROOT
BRANCH   3   5
HETATM    5  C13 UNK     1      18.635   1.925  31.685  1.00  0.00     0.108 A 
HETATM    6  C15 UNK     1      18.198   2.135  32.931  1.00  0.00     0.037 A 
HETATM    7  C14 UNK     1      18.250   1.067  33.917  1.00  0.00     0.001 A 
HETATM    8  C16 UNK     1      18.761  -0.172  33.540  1.00  0.00     0.089 A 
HETATM    9  C18 UNK     1      17.806   1.241  35.230  1.00  0.00     0.038 A 
HETATM   10  O1  UNK     1      19.219  -0.388  32.225  1.00  0.00    -0.274 OA
HETATM   11  C19 UNK     1      18.839  -1.237  34.435  1.00  0.00     0.040 A 
HETATM   12  C17 UNK     1      19.181   0.616  31.261  1.00  0.00     0.304 A 
HETATM   13  O3  UNK     1      19.583   0.419  30.119  1.00  0.00    -0.259 OA
HETATM   14  C21 UNK     1      18.393  -1.054  35.742  1.00  0.00     0.026 A 
HETATM   15  C20 UNK     1      17.877   0.181  36.139  1.00  0.00     0.035 A 
HETATM   16 Cl1  UNK     1      17.327   0.401  37.756  1.00  0.00    -0.084 Cl
ENDBRANCH   3   5
BRANCH   2  17
HETATM   17  C1  UNK     1      18.730   5.541  30.680  1.00  0.00     0.114 C 
HETATM   18  C9  UNK     1      20.105   5.839  30.078  1.00  0.00     0.037 C 
BRANCH  17  19
HETATM   19  C3  UNK     1      18.258   6.665  31.581  1.00  0.00    -0.036 A 
HETATM   20  C5  UNK     1      17.066   7.304  31.291  1.00  0.00     0.010 A 
HETATM   21  C7  UNK     1      16.631   8.338  32.120  1.00  0.00     0.008 A 
HETATM   22  C4  UNK     1      17.396   8.715  33.225  1.00  0.00    -0.055 A 
HETATM   23  C8  UNK     1      18.594   8.058  33.500  1.00  0.00     0.008 A 
HETATM   24  C6  UNK     1      19.029   7.024  32.670  1.00  0.00     0.010 A 
BRANCH  22  25
HETATM   25  C2  UNK     1      16.931   9.820  34.111  1.00  0.00     0.010 C 
HETATM   26  C10 UNK     1      15.499  10.279  33.779  1.00  0.00     0.015 C 
HETATM   27  C11 UNK     1      17.885  11.029  34.095  1.00  0.00     0.015 C 
ENDBRANCH  22  25
ENDBRANCH  17  19
ENDBRANCH   2  17
TORSDOF 4
ENDMDL
MODEL 6
REMARK VINA RESULT:      -8.6     27.943     29.738
REMARK  4 active torsions:
REMARK  status: ('A' for Active; 'I' for Inactive)
REMARK    1  A    between atoms: C1_6  and  N1_5 
REMARK       I    between atoms: C12_17  and  N1_5 
REMARK    2  A    between atoms: C1_6  and  C3_8 
REMARK    3  A    between atoms: C2_7  and  C4_9 
REMARK    4  A    between atoms: C12_17  and  C13_18 
ROOT
HETATM    1  O2  UNK     1       7.101   7.162   8.824  1.00  0.00    -0.267 OA
HETATM    2  N1  UNK     1       8.901   5.697   8.605  1.00  0.00    -0.348 N 
HETATM    3  C12 UNK     1       7.662   6.095   9.071  1.00  0.00     0.258 C 
HETATM    4  H7  UNK     1       9.239   4.764   8.825  1.00  0.00     0.163 HD
ENDROOT
BRANCH   3   5
HETATM    5  C13 UNK     1       7.024   5.091   9.932  1.00  0.00     0.108 A 
HETATM    6  C15 UNK     1       6.700   5.490  11.166  1.00  0.00     0.037 A 
HETATM    7  C14 UNK     1       6.063   4.567  12.092  1.00  0.00     0.001 A 
HETATM    8  C16 UNK     1       5.800   3.266  11.672  1.00  0.00     0.089 A 
HETATM    9  C18 UNK     1       5.708   4.939  13.391  1.00  0.00     0.038 A 
HETATM   10  O1  UNK     1       6.144   2.852  10.370  1.00  0.00    -0.274 OA
HETATM   11  C19 UNK     1       5.194   2.332  12.509  1.00  0.00     0.040 A 
HETATM   12  C17 UNK     1       6.753   3.713   9.462  1.00  0.00     0.304 A 
HETATM   13  O3  UNK     1       7.049   3.344   8.331  1.00  0.00    -0.259 OA
HETATM   14  C21 UNK     1       4.842   2.713  13.802  1.00  0.00     0.026 A 
HETATM   15  C20 UNK     1       5.098   4.013  14.242  1.00  0.00     0.035 A 
HETATM   16 Cl1  UNK     1       4.660   4.478  15.842  1.00  0.00    -0.084 Cl
ENDBRANCH   3   5
BRANCH   2  17
HETATM   17  C1  UNK     1       9.718   6.516   7.739  1.00  0.00     0.114 C 
HETATM   18  C9  UNK     1       9.533   6.076   6.285  1.00  0.00     0.037 C 
BRANCH  17  19
HETATM   19  C3  UNK     1      11.175   6.480   8.154  1.00  0.00    -0.036 A 
HETATM   20  C5  UNK     1      11.945   5.382   7.818  1.00  0.00     0.010 A 
HETATM   21  C7  UNK     1      13.286   5.350   8.199  1.00  0.00     0.008 A 
HETATM   22  C4  UNK     1      13.835   6.417   8.910  1.00  0.00    -0.055 A 
HETATM   23  C8  UNK     1      13.042   7.516   9.240  1.00  0.00     0.008 A 
HETATM   24  C6  UNK     1      11.701   7.548   8.858  1.00  0.00     0.010 A 
BRANCH  22  25
HETATM   25  C2  UNK     1      15.269   6.382   9.319  1.00  0.00     0.010 C 
HETATM   26  C10 UNK     1      15.723   4.977   9.755  1.00  0.00     0.015 C 
HETATM   27  C11 UNK     1      15.591   7.404  10.425  1.00  0.00     0.015 C 
ENDBRANCH  22  25
ENDBRANCH  17  19
ENDBRANCH   2  17
TORSDOF 4
ENDMDL
MODEL 7
REMARK VINA RESULT:      -8.6     10.988     15.362
REMARK  4 active torsions:
REMARK  status: ('A' for Active; 'I' for Inactive)
REMARK    1  A    between atoms: C1_6  and  N1_5 
REMARK       I    between atoms: C12_17  and  N1_5 
REMARK    2  A    between atoms: C1_6  and  C3_8 
REMARK    3  A    between atoms: C2_7  and  C4_9 
REMARK    4  A    between atoms: C12_17  and  C13_18 
ROOT
HETATM    1  O2  UNK     1      16.509   6.673  34.921  1.00  0.00    -0.267 OA
HETATM    2  N1  UNK     1      17.977   7.436  33.279  1.00  0.00    -0.348 N 
HETATM    3  C12 UNK     1      16.814   7.459  34.025  1.00  0.00     0.258 C 
HETATM    4  H7  UNK     1      18.151   8.177  32.605  1.00  0.00     0.163 HD
ENDROOT
BRANCH   3   5
HETATM    5  C13 UNK     1      15.916   8.559  33.651  1.00  0.00     0.108 A 
HETATM    6  C15 UNK     1      15.340   9.222  34.660  1.00  0.00     0.037 A 
HETATM    7  C14 UNK     1      14.435  10.328  34.389  1.00  0.00     0.001 A 
HETATM    8  C16 UNK     1      14.180  10.680  33.067  1.00  0.00     0.089 A 
HETATM    9  C18 UNK     1      13.811  11.048  35.410  1.00  0.00     0.038 A 
HETATM   10  O1  UNK     1      14.790   9.979  32.008  1.00  0.00    -0.274 OA
HETATM   11  C19 UNK     1      13.323  11.729  32.739  1.00  0.00     0.040 A 
HETATM   12  C17 UNK     1      15.660   8.917  32.238  1.00  0.00     0.304 A 
HETATM   13  O3  UNK     1      16.187   8.311  31.310  1.00  0.00    -0.259 OA
HETATM   14  C21 UNK     1      12.706  12.442  33.764  1.00  0.00     0.026 A 
HETATM   15  C20 UNK     1      12.949  12.103  35.097  1.00  0.00     0.035 A 
HETATM   16 Cl1  UNK     1      12.184  12.989  36.359  1.00  0.00    -0.084 Cl
ENDBRANCH   3   5
BRANCH   2  17
HETATM   17  C1  UNK     1      19.015   6.448  33.467  1.00  0.00     0.114 C 
HETATM   18  C9  UNK     1      20.387   7.089  33.243  1.00  0.00     0.037 C 
BRANCH  17  19
HETATM   19  C3  UNK     1      18.806   5.245  32.569  1.00  0.00    -0.036 A 
HETATM   20  C5  UNK     1      19.143   5.336  31.231  1.00  0.00     0.010 A 
HETATM   21  C7  UNK     1      18.951   4.228  30.406  1.00  0.00     0.008 A 
HETATM   22  C4  UNK     1      18.424   3.049  30.932  1.00  0.00    -0.055 A 
HETATM   23  C8  UNK     1      18.090   2.977  32.285  1.00  0.00     0.008 A 
HETATM   24  C6  UNK     1      18.283   4.085  33.110  1.00  0.00     0.010 A 
BRANCH  22  25
HETATM   25  C2  UNK     1      18.218   1.864  30.050  1.00  0.00     0.010 C 
HETATM   26  C10 UNK     1      19.389   0.866  30.121  1.00  0.00     0.015 C 
HETATM   27  C11 UNK     1      17.955   2.259  28.585  1.00  0.00     0.015 C 
ENDBRANCH  22  25
ENDBRANCH  17  19
ENDBRANCH   2  17
TORSDOF 4
ENDMDL
MODEL 8
REMARK VINA RESULT:      -8.5      7.993     12.625
REMARK  4 active torsions:
REMARK  status: ('A' for Active; 'I' for Inactive)
REMARK    1  A    between atoms: C1_6  and  N1_5 
REMARK       I    between atoms: C12_17  and  N1_5 
REMARK    2  A    between atoms: C1_6  and  C3_8 
REMARK    3  A    between atoms: C2_7  and  C4_9 
REMARK    4  A    between atoms: C12_17  and  C13_18 
ROOT
HETATM    1  O2  UNK     1      19.638   5.197  30.135  1.00  0.00    -0.267 OA
HETATM    2  N1  UNK     1      18.404   3.336  30.806  1.00  0.00    -0.348 N 
HETATM    3  C12 UNK     1      18.809   4.656  30.866  1.00  0.00     0.258 C 
HETATM    4  H7  UNK     1      17.663   3.014  31.424  1.00  0.00     0.163 HD
ENDROOT
BRANCH   3   5
HETATM    5  C13 UNK     1      18.136   5.413  31.929  1.00  0.00     0.108 A 
HETATM    6  C15 UNK     1      17.470   6.508  31.546  1.00  0.00     0.037 A 
HETATM    7  C14 UNK     1      16.771   7.323  32.527  1.00  0.00     0.001 A 
HETATM    8  C16 UNK     1      16.808   6.944  33.866  1.00  0.00     0.089 A 
HETATM    9  C18 UNK     1      16.065   8.475  32.173  1.00  0.00     0.038 A 
HETATM   10  O1  UNK     1      17.510   5.789  34.264  1.00  0.00    -0.274 OA
HETATM   11  C19 UNK     1      16.160   7.680  34.855  1.00  0.00     0.040 A 
HETATM   12  C17 UNK     1      18.188   4.990  33.347  1.00  0.00     0.304 A 
HETATM   13  O3  UNK     1      18.797   3.987  33.703  1.00  0.00    -0.259 OA
HETATM   14  C21 UNK     1      15.457   8.827  34.493  1.00  0.00     0.026 A 
HETATM   15  C20 UNK     1      15.409   9.223  33.154  1.00  0.00     0.035 A 
HETATM   16 Cl1  UNK     1      14.537  10.641  32.712  1.00  0.00    -0.084 Cl
ENDBRANCH   3   5
BRANCH   2  17
HETATM   17  C1  UNK     1      18.923   2.396  29.840  1.00  0.00     0.114 C 
HETATM   18  C9  UNK     1      17.932   2.238  28.685  1.00  0.00     0.037 C 
BRANCH  17  19
HETATM   19  C3  UNK     1      19.251   1.063  30.483  1.00  0.00    -0.036 A 
HETATM   20  C5  UNK     1      20.015   0.147  29.783  1.00  0.00     0.010 A 
HETATM   21  C7  UNK     1      20.316  -1.080  30.375  1.00  0.00     0.008 A 
HETATM   22  C4  UNK     1      19.848  -1.369  31.657  1.00  0.00    -0.055 A 
HETATM   23  C8  UNK     1      19.079  -0.432  32.347  1.00  0.00     0.008 A 
HETATM   24  C6  UNK     1      18.778   0.794  31.754  1.00  0.00     0.010 A 
BRANCH  22  25
HETATM   25  C2  UNK     1      20.170  -2.680  32.290  1.00  0.00     0.010 C 
HETATM   26  C10 UNK     1      20.603  -2.533  33.761  1.00  0.00     0.015 C 
HETATM   27  C11 UNK     1      21.237  -3.467  31.507  1.00  0.00     0.015 C 
ENDBRANCH  22  25
ENDBRANCH  17  19
ENDBRANCH   2  17
TORSDOF 4
ENDMDL
MODEL 9
REMARK VINA RESULT:      -8.4      6.381      9.536
REMARK  4 active torsions:
REMARK  status: ('A' for Active; 'I' for Inactive)
REMARK    1  A    between atoms: C1_6  and  N1_5 
REMARK       I    between atoms: C12_17  and  N1_5 
REMARK    2  A    between atoms: C1_6  and  C3_8 
REMARK    3  A    between atoms: C2_7  and  C4_9 
REMARK    4  A    between atoms: C12_17  and  C13_18 
ROOT
HETATM    1  O2  UNK     1      27.148 -10.082  36.131  1.00  0.00    -0.267 OA
HETATM    2  N1  UNK     1      26.563 -10.029  38.387  1.00  0.00    -0.348 N 
HETATM    3  C12 UNK     1      26.308 -10.070  37.029  1.00  0.00     0.258 C 
HETATM    4  H7  UNK     1      25.787 -10.086  39.041  1.00  0.00     0.163 HD
ENDROOT
BRANCH   3   5
HETATM    5  C13 UNK     1      24.873 -10.103  36.717  1.00  0.00     0.108 A 
HETATM    6  C15 UNK     1      24.154  -9.054  37.130  1.00  0.00     0.037 A 
HETATM    7  C14 UNK     1      22.724  -8.996  36.867  1.00  0.00     0.001 A 
HETATM    8  C16 UNK     1      22.122 -10.047  36.183  1.00  0.00     0.089 A 
HETATM    9  C18 UNK     1      21.934  -7.921  37.280  1.00  0.00     0.038 A 
HETATM   10  O1  UNK     1      22.885 -11.150  35.750  1.00  0.00    -0.274 OA
HETATM   11  C19 UNK     1      20.758 -10.053  35.900  1.00  0.00     0.040 A 
HETATM   12  C17 UNK     1      24.255 -11.233  35.987  1.00  0.00     0.304 A 
HETATM   13  O3  UNK     1      24.911 -12.196  35.606  1.00  0.00    -0.259 OA
HETATM   14  C21 UNK     1      19.977  -8.977  36.314  1.00  0.00     0.026 A 
HETATM   15  C20 UNK     1      20.563  -7.913  37.003  1.00  0.00     0.035 A 
HETATM   16 Cl1  UNK     1      19.594  -6.584  37.512  1.00  0.00    -0.084 Cl
ENDBRANCH   3   5
BRANCH   2  17
HETATM   17  C1  UNK     1      27.899  -9.994  38.936  1.00  0.00     0.114 C 
HETATM   18  C9  UNK     1      27.870 -10.448  40.398  1.00  0.00     0.037 C 
BRANCH  17  19
HETATM   19  C3  UNK     1      28.525  -8.621  38.788  1.00  0.00    -0.036 A 
HETATM   20  C5  UNK     1      29.745  -8.503  38.148  1.00  0.00     0.010 A 
HETATM   21  C7  UNK     1      30.320  -7.240  38.012  1.00  0.00     0.008 A 
HETATM   22  C4  UNK     1      29.666  -6.117  38.518  1.00  0.00    -0.055 A 
HETATM   23  C8  UNK     1      28.436  -6.257  39.160  1.00  0.00     0.008 A 
HETATM   24  C6  UNK     1      27.861  -7.520  39.297  1.00  0.00     0.010 A 
BRANCH  22  25
HETATM   25  C2  UNK     1      30.281  -4.766  38.373  1.00  0.00     0.010 C 
HETATM   26  C10 UNK     1      31.820  -4.808  38.449  1.00  0.00     0.015 C 
HETATM   27  C11 UNK     1      29.735  -3.756  39.398  1.00  0.00     0.015 C 
ENDBRANCH  22  25
ENDBRANCH  17  19
ENDBRANCH   2  17
TORSDOF 4
ENDMDL
MODEL 10
REMARK VINA RESULT:      -8.4     28.673     31.601
REMARK  4 active torsions:
REMARK  status: ('A' for Active; 'I' for Inactive)
REMARK    1  A    between atoms: C1_6  and  N1_5 
REMARK       I    between atoms: C12_17  and  N1_5 
REMARK    2  A    between atoms: C1_6  and  C3_8 
REMARK    3  A    between atoms: C2_7  and  C4_9 
REMARK    4  A    between atoms: C12_17  and  C13_18 
ROOT
HETATM    1  O2  UNK     1      14.068   8.896  10.683  1.00  0.00    -0.267 OA
HETATM    2  N1  UNK     1      15.118   7.240   9.423  1.00  0.00    -0.348 N 
HETATM    3  C12 UNK     1      14.929   8.529   9.885  1.00  0.00     0.258 C 
HETATM    4  H7  UNK     1      15.904   7.042   8.810  1.00  0.00     0.163 HD
ENDROOT
BRANCH   3   5
HETATM    5  C13 UNK     1      15.890   9.486   9.322  1.00  0.00     0.108 A 
HETATM    6  C15 UNK     1      15.370  10.530   8.668  1.00  0.00     0.037 A 
HETATM    7  C14 UNK     1      16.242  11.532   8.075  1.00  0.00     0.001 A 
HETATM    8  C16 UNK     1      17.620  11.384   8.200  1.00  0.00     0.089 A 
HETATM    9  C18 UNK     1      15.744  12.638   7.383  1.00  0.00     0.038 A 
HETATM   10  O1  UNK     1      18.162  10.282   8.891  1.00  0.00    -0.274 OA
HETATM   11  C19 UNK     1      18.511  12.307   7.656  1.00  0.00     0.040 A 
HETATM   12  C17 UNK     1      17.352   9.308   9.468  1.00  0.00     0.304 A 
HETATM   13  O3  UNK     1      17.832   8.351  10.068  1.00  0.00    -0.259 OA
HETATM   14  C21 UNK     1      18.005  13.408   6.968  1.00  0.00     0.026 A 
HETATM   15  C20 UNK     1      16.625  13.574   6.832  1.00  0.00     0.035 A 
HETATM   16 Cl1  UNK     1      16.006  14.937   5.980  1.00  0.00    -0.084 Cl
ENDBRANCH   3   5
BRANCH   2  17
HETATM   17  C1  UNK     1      14.297   6.125   9.838  1.00  0.00     0.114 C 
HETATM   18  C9  UNK     1      15.095   4.824   9.725  1.00  0.00     0.037 C 
BRANCH  17  19
HETATM   19  C3  UNK     1      13.006   6.062   9.046  1.00  0.00    -0.036 A 
HETATM   20  C5  UNK     1      12.999   6.499   7.734  1.00  0.00     0.010 A 
HETATM   21  C7  UNK     1      11.811   6.439   7.005  1.00  0.00     0.008 A 
HETATM   22  C4  UNK     1      10.651   5.945   7.601  1.00  0.00    -0.055 A 
HETATM   23  C8  UNK     1      10.679   5.509   8.926  1.00  0.00     0.008 A 
HETATM   24  C6  UNK     1      11.867   5.568   9.654  1.00  0.00     0.010 A 
BRANCH  22  25
HETATM   25  C2  UNK     1       9.380   5.882   6.823  1.00  0.00     0.010 C 
HETATM   26  C10 UNK     1       9.505   6.544   5.438  1.00  0.00     0.015 C 
HETATM   27  C11 UNK     1       8.190   6.489   7.587  1.00  0.00     0.015 C 
ENDBRANCH  22  25
ENDBRANCH  17  19
ENDBRANCH   2  17
TORSDOF 4
ENDMDL
