MODEL 1
REMARK VINA RESULT:      -7.1      0.000      0.000
REMARK  2 active torsions:
REMARK  status: ('A' for Active; 'I' for Inactive)
REMARK    1  A    between atoms: C1_3  and  C3_5 
REMARK    2  A    between atoms: C2_4  and  C4_6 
ROOT
HETATM    1  N1  UNK     1      20.147   9.287  34.582  1.00  0.00    -0.191 NA
HETATM    2  C3  UNK     1      18.912   7.356  33.354  1.00  0.00     0.055 C 
HETATM    3  C4  UNK     1      19.658   6.305  32.922  1.00  0.00     0.036 C 
HETATM    4  C15 UNK     1      19.605   8.420  34.033  1.00  0.00     0.100 C 
ENDROOT
BRANCH   2   5
HETATM    5  C1  UNK     1      17.474   7.462  33.164  1.00  0.00    -0.015 A 
HETATM    6  C7  UNK     1      16.612   7.296  34.249  1.00  0.00     0.013 A 
HETATM    7  C11 UNK     1      15.234   7.400  34.065  1.00  0.00     0.001 A 
HETATM    8  C14 UNK     1      14.716   7.670  32.799  1.00  0.00     0.000 A 
HETATM    9  C12 UNK     1      15.578   7.836  31.715  1.00  0.00     0.001 A 
HETATM   10  C8  UNK     1      16.957   7.733  31.898  1.00  0.00     0.013 A 
ENDBRANCH   2   5
BRANCH   3  11
HETATM   11  C2  UNK     1      19.141   5.114  32.231  1.00  0.00    -0.013 A 
HETATM   12  C5  UNK     1      19.319   4.925  30.867  1.00  0.00     0.044 A 
HETATM   13 Cl1  UNK     1      20.160   6.067  29.876  1.00  0.00    -0.083 Cl
HETATM   14  C9  UNK     1      18.808   3.778  30.258  1.00  0.00     0.024 A 
HETATM   15  C13 UNK     1      18.124   2.831  31.019  1.00  0.00     0.002 A 
HETATM   16  C10 UNK     1      17.950   3.030  32.388  1.00  0.00     0.001 A 
HETATM   17  C6  UNK     1      18.460   4.176  32.997  1.00  0.00     0.013 A 
ENDBRANCH   3  11
TORSDOF 2
ENDMDL
MODEL 2
REMARK VINA RESULT:      -7.0      1.275      2.101
REMARK  2 active torsions:
REMARK  status: ('A' for Active; 'I' for Inactive)
REMARK    1  A    between atoms: C1_3  and  C3_5 
REMARK    2  A    between atoms: C2_4  and  C4_6 
ROOT
HETATM    1  N1  UNK     1      20.159   9.240  34.651  1.00  0.00    -0.191 NA
HETATM    2  C3  UNK     1      18.972   7.441  33.196  1.00  0.00     0.055 C 
HETATM    3  C4  UNK     1      19.750   6.492  32.609  1.00  0.00     0.036 C 
HETATM    4  C15 UNK     1      19.639   8.433  34.000  1.00  0.00     0.100 C 
ENDROOT
BRANCH   2   5
HETATM    5  C1  UNK     1      17.526   7.508  33.052  1.00  0.00    -0.015 A 
HETATM    6  C7  UNK     1      16.962   7.811  31.813  1.00  0.00     0.013 A 
HETATM    7  C11 UNK     1      15.576   7.872  31.675  1.00  0.00     0.001 A 
HETATM    8  C14 UNK     1      14.754   7.630  32.775  1.00  0.00     0.000 A 
HETATM    9  C12 UNK     1      15.318   7.327  34.014  1.00  0.00     0.001 A 
HETATM   10  C8  UNK     1      16.705   7.265  34.152  1.00  0.00     0.013 A 
ENDBRANCH   2   5
BRANCH   3  11
HETATM   11  C2  UNK     1      19.264   5.385  31.773  1.00  0.00    -0.013 A 
HETATM   12  C5  UNK     1      18.633   4.276  32.321  1.00  0.00     0.044 A 
HETATM   13 Cl1  UNK     1      18.370   4.108  34.022  1.00  0.00    -0.083 Cl
HETATM   14  C9  UNK     1      18.191   3.251  31.484  1.00  0.00     0.024 A 
HETATM   15  C13 UNK     1      18.382   3.346  30.106  1.00  0.00     0.002 A 
HETATM   16  C10 UNK     1      19.015   4.463  29.564  1.00  0.00     0.001 A 
HETATM   17  C6  UNK     1      19.459   5.487  30.401  1.00  0.00     0.013 A 
ENDBRANCH   3  11
TORSDOF 2
ENDMDL
MODEL 3
REMARK VINA RESULT:      -6.9     23.290     24.907
REMARK  2 active torsions:
REMARK  status: ('A' for Active; 'I' for Inactive)
REMARK    1  A    between atoms: C1_3  and  C3_5 
REMARK    2  A    between atoms: C2_4  and  C4_6 
ROOT
HETATM    1  N1  UNK     1      16.025   4.529   9.570  1.00  0.00    -0.191 NA
HETATM    2  C3  UNK     1      13.873   5.769   8.800  1.00  0.00     0.055 C 
HETATM    3  C4  UNK     1      12.958   5.060   8.087  1.00  0.00     0.036 C 
HETATM    4  C15 UNK     1      15.061   5.074   9.222  1.00  0.00     0.100 C 
ENDROOT
BRANCH   2   5
HETATM    5  C1  UNK     1      13.718   7.173   9.148  1.00  0.00    -0.015 A 
HETATM    6  C7  UNK     1      12.965   7.536  10.265  1.00  0.00     0.013 A 
HETATM    7  C11 UNK     1      12.819   8.882  10.599  1.00  0.00     0.001 A 
HETATM    8  C14 UNK     1      13.426   9.865   9.818  1.00  0.00     0.000 A 
HETATM    9  C12 UNK     1      14.180   9.502   8.701  1.00  0.00     0.001 A 
HETATM   10  C8  UNK     1      14.326   8.155   8.367  1.00  0.00     0.013 A 
ENDBRANCH   2   5
BRANCH   3  11
HETATM   11  C2  UNK     1      11.676   5.577   7.585  1.00  0.00    -0.013 A 
HETATM   12  C5  UNK     1      10.502   5.460   8.318  1.00  0.00     0.044 A 
HETATM   13 Cl1  UNK     1      10.454   4.702   9.873  1.00  0.00    -0.083 Cl
HETATM   14  C9  UNK     1       9.311   5.967   7.798  1.00  0.00     0.024 A 
HETATM   15  C13 UNK     1       9.305   6.587   6.549  1.00  0.00     0.002 A 
HETATM   16  C10 UNK     1      10.488   6.700   5.820  1.00  0.00     0.001 A 
HETATM   17  C6  UNK     1      11.679   6.192   6.340  1.00  0.00     0.013 A 
ENDBRANCH   3  11
TORSDOF 2
ENDMDL
MODEL 4
REMARK VINA RESULT:      -6.7      2.836      5.283
REMARK  2 active torsions:
REMARK  status: ('A' for Active; 'I' for Inactive)
REMARK    1  A    between atoms: C1_3  and  C3_5 
REMARK    2  A    between atoms: C2_4  and  C4_6 
ROOT
HETATM    1  N1  UNK     1      13.729   6.885  31.929  1.00  0.00    -0.191 NA
HETATM    2  C3  UNK     1      16.230   7.360  32.456  1.00  0.00     0.055 C 
HETATM    3  C4  UNK     1      16.513   8.405  33.280  1.00  0.00     0.036 C 
HETATM    4  C15 UNK     1      14.842   7.105  32.170  1.00  0.00     0.100 C 
ENDROOT
BRANCH   2   5
HETATM    5  C1  UNK     1      17.241   6.505  31.855  1.00  0.00    -0.015 A 
HETATM    6  C7  UNK     1      17.519   5.255  32.410  1.00  0.00     0.013 A 
HETATM    7  C11 UNK     1      18.487   4.436  31.832  1.00  0.00     0.001 A 
HETATM    8  C14 UNK     1      19.177   4.863  30.698  1.00  0.00     0.000 A 
HETATM    9  C12 UNK     1      18.900   6.113  30.143  1.00  0.00     0.001 A 
HETATM   10  C8  UNK     1      17.931   6.933  30.722  1.00  0.00     0.013 A 
ENDBRANCH   2   5
BRANCH   3  11
HETATM   11  C2  UNK     1      17.857   8.815  33.711  1.00  0.00    -0.013 A 
HETATM   12  C5  UNK     1      18.163  10.140  33.991  1.00  0.00     0.044 A 
HETATM   13 Cl1  UNK     1      16.994  11.408  33.857  1.00  0.00    -0.083 Cl
HETATM   14  C9  UNK     1      19.455  10.479  34.396  1.00  0.00     0.024 A 
HETATM   15  C13 UNK     1      20.429   9.488  34.518  1.00  0.00     0.002 A 
HETATM   16  C10 UNK     1      20.112   8.160  34.235  1.00  0.00     0.001 A 
HETATM   17  C6  UNK     1      18.822   7.822  33.829  1.00  0.00     0.013 A 
ENDBRANCH   3  11
TORSDOF 2
ENDMDL
MODEL 5
REMARK VINA RESULT:      -6.7     14.239     16.093
REMARK  2 active torsions:
REMARK  status: ('A' for Active; 'I' for Inactive)
REMARK    1  A    between atoms: C1_3  and  C3_5 
REMARK    2  A    between atoms: C2_4  and  C4_6 
ROOT
HETATM    1  N1  UNK     1      16.867  -7.358  35.261  1.00  0.00    -0.191 NA
HETATM    2  C3  UNK     1      19.156  -7.598  36.472  1.00  0.00     0.055 C 
HETATM    3  C4  UNK     1      19.472  -6.667  37.412  1.00  0.00     0.036 C 
HETATM    4  C15 UNK     1      17.886  -7.457  35.807  1.00  0.00     0.100 C 
ENDROOT
BRANCH   2   5
HETATM    5  C1  UNK     1      20.023  -8.707  36.105  1.00  0.00    -0.015 A 
HETATM    6  C7  UNK     1      20.990  -8.539  35.114  1.00  0.00     0.013 A 
HETATM    7  C11 UNK     1      21.821  -9.602  34.765  1.00  0.00     0.001 A 
HETATM    8  C14 UNK     1      21.688 -10.833  35.407  1.00  0.00     0.000 A 
HETATM    9  C12 UNK     1      20.721 -11.001  36.399  1.00  0.00     0.001 A 
HETATM   10  C8  UNK     1      19.889  -9.937  36.748  1.00  0.00     0.013 A 
ENDBRANCH   2   5
BRANCH   3  11
HETATM   11  C2  UNK     1      20.704  -6.646  38.215  1.00  0.00    -0.013 A 
HETATM   12  C5  UNK     1      20.897  -7.513  39.282  1.00  0.00     0.044 A 
HETATM   13 Cl1  UNK     1      19.710  -8.682  39.750  1.00  0.00    -0.083 Cl
HETATM   14  C9  UNK     1      22.083  -7.453  40.013  1.00  0.00     0.024 A 
HETATM   15  C13 UNK     1      23.067  -6.526  39.670  1.00  0.00     0.002 A 
HETATM   16  C10 UNK     1      22.865  -5.660  38.596  1.00  0.00     0.001 A 
HETATM   17  C6  UNK     1      21.678  -5.719  37.866  1.00  0.00     0.013 A 
ENDBRANCH   3  11
TORSDOF 2
ENDMDL
MODEL 6
REMARK VINA RESULT:      -6.5     13.978     15.859
REMARK  2 active torsions:
REMARK  status: ('A' for Active; 'I' for Inactive)
REMARK    1  A    between atoms: C1_3  and  C3_5 
REMARK    2  A    between atoms: C2_4  and  C4_6 
ROOT
HETATM    1  N1  UNK     1      16.854  -7.462  35.277  1.00  0.00    -0.191 NA
HETATM    2  C3  UNK     1      19.123  -7.690  36.525  1.00  0.00     0.055 C 
HETATM    3  C4  UNK     1      19.432  -6.742  37.450  1.00  0.00     0.036 C 
HETATM    4  C15 UNK     1      17.864  -7.555  35.839  1.00  0.00     0.100 C 
ENDROOT
BRANCH   2   5
HETATM    5  C1  UNK     1      19.988  -8.812  36.194  1.00  0.00    -0.015 A 
HETATM    6  C7  UNK     1      19.836 -10.029  36.858  1.00  0.00     0.013 A 
HETATM    7  C11 UNK     1      20.665 -11.104  36.538  1.00  0.00     0.001 A 
HETATM    8  C14 UNK     1      21.643 -10.963  35.555  1.00  0.00     0.000 A 
HETATM    9  C12 UNK     1      21.795  -9.746  34.891  1.00  0.00     0.001 A 
HETATM   10  C8  UNK     1      20.966  -8.670  35.211  1.00  0.00     0.013 A 
ENDBRANCH   2   5
BRANCH   3  11
HETATM   11  C2  UNK     1      20.652  -6.712  38.270  1.00  0.00    -0.013 A 
HETATM   12  C5  UNK     1      21.549  -5.654  38.208  1.00  0.00     0.044 A 
HETATM   13 Cl1  UNK     1      21.306  -4.294  37.167  1.00  0.00    -0.083 Cl
HETATM   14  C9  UNK     1      22.693  -5.673  39.007  1.00  0.00     0.024 A 
HETATM   15  C13 UNK     1      22.928  -6.750  39.862  1.00  0.00     0.002 A 
HETATM   16  C10 UNK     1      22.021  -7.807  39.918  1.00  0.00     0.001 A 
HETATM   17  C6  UNK     1      20.879  -7.789  39.118  1.00  0.00     0.013 A 
ENDBRANCH   3  11
TORSDOF 2
ENDMDL
MODEL 7
REMARK VINA RESULT:      -6.4     16.832     18.852
REMARK  2 active torsions:
REMARK  status: ('A' for Active; 'I' for Inactive)
REMARK    1  A    between atoms: C1_3  and  C3_5 
REMARK    2  A    between atoms: C2_4  and  C4_6 
ROOT
HETATM    1  N1  UNK     1      26.184  -4.707  38.788  1.00  0.00    -0.191 NA
HETATM    2  C3  UNK     1      27.980  -6.513  38.267  1.00  0.00     0.055 C 
HETATM    3  C4  UNK     1      29.178  -6.089  37.783  1.00  0.00     0.036 C 
HETATM    4  C15 UNK     1      26.992  -5.505  38.553  1.00  0.00     0.100 C 
ENDROOT
BRANCH   2   5
HETATM    5  C1  UNK     1      27.650  -7.910  38.503  1.00  0.00    -0.015 A 
HETATM    6  C7  UNK     1      27.878  -8.479  39.756  1.00  0.00     0.013 A 
HETATM    7  C11 UNK     1      27.558  -9.817  39.981  1.00  0.00     0.001 A 
HETATM    8  C14 UNK     1      27.010 -10.587  38.955  1.00  0.00     0.000 A 
HETATM    9  C12 UNK     1      26.782 -10.017  37.702  1.00  0.00     0.001 A 
HETATM   10  C8  UNK     1      27.101  -8.678  37.477  1.00  0.00     0.013 A 
ENDBRANCH   2   5
BRANCH   3  11
HETATM   11  C2  UNK     1      30.321  -6.952  37.451  1.00  0.00    -0.013 A 
HETATM   12  C5  UNK     1      30.457  -7.539  36.200  1.00  0.00     0.044 A 
HETATM   13 Cl1  UNK     1      29.299  -7.301  34.937  1.00  0.00    -0.083 Cl
HETATM   14  C9  UNK     1      31.560  -8.351  35.935  1.00  0.00     0.024 A 
HETATM   15  C13 UNK     1      32.519  -8.568  36.924  1.00  0.00     0.002 A 
HETATM   16  C10 UNK     1      32.374  -7.975  38.177  1.00  0.00     0.001 A 
HETATM   17  C6  UNK     1      31.271  -7.165  38.443  1.00  0.00     0.013 A 
ENDBRANCH   3  11
TORSDOF 2
ENDMDL
MODEL 8
REMARK VINA RESULT:      -6.3     17.246     18.783
REMARK  2 active torsions:
REMARK  status: ('A' for Active; 'I' for Inactive)
REMARK    1  A    between atoms: C1_3  and  C3_5 
REMARK    2  A    between atoms: C2_4  and  C4_6 
ROOT
HETATM    1  N1  UNK     1      29.490  -3.635  39.960  1.00  0.00    -0.191 NA
HETATM    2  C3  UNK     1      29.743  -5.541  38.209  1.00  0.00     0.055 C 
HETATM    3  C4  UNK     1      28.605  -6.064  37.679  1.00  0.00     0.036 C 
HETATM    4  C15 UNK     1      29.593  -4.486  39.178  1.00  0.00     0.100 C 
ENDROOT
BRANCH   2   5
HETATM    5  C1  UNK     1      31.082  -5.988  37.858  1.00  0.00    -0.015 A 
HETATM    6  C7  UNK     1      31.581  -7.179  38.386  1.00  0.00     0.013 A 
HETATM    7  C11 UNK     1      32.863  -7.607  38.046  1.00  0.00     0.001 A 
HETATM    8  C14 UNK     1      33.647  -6.847  37.179  1.00  0.00     0.000 A 
HETATM    9  C12 UNK     1      33.148  -5.657  36.651  1.00  0.00     0.001 A 
HETATM   10  C8  UNK     1      31.864  -5.228  36.990  1.00  0.00     0.013 A 
ENDBRANCH   2   5
BRANCH   3  11
HETATM   11  C2  UNK     1      28.544  -7.127  36.665  1.00  0.00    -0.013 A 
HETATM   12  C5  UNK     1      28.440  -8.467  37.013  1.00  0.00     0.044 A 
HETATM   13 Cl1  UNK     1      28.374  -8.992  38.661  1.00  0.00    -0.083 Cl
HETATM   14  C9  UNK     1      28.386  -9.438  36.013  1.00  0.00     0.024 A 
HETATM   15  C13 UNK     1      28.435  -9.059  34.672  1.00  0.00     0.002 A 
HETATM   16  C10 UNK     1      28.540  -7.711  34.331  1.00  0.00     0.001 A 
HETATM   17  C6  UNK     1      28.595  -6.741  35.331  1.00  0.00     0.013 A 
ENDBRANCH   3  11
TORSDOF 2
ENDMDL
MODEL 9
REMARK VINA RESULT:      -6.3     17.453     19.126
REMARK  2 active torsions:
REMARK  status: ('A' for Active; 'I' for Inactive)
REMARK    1  A    between atoms: C1_3  and  C3_5 
REMARK    2  A    between atoms: C2_4  and  C4_6 
ROOT
HETATM    1  N1  UNK     1      29.460  -3.744  39.823  1.00  0.00    -0.191 NA
HETATM    2  C3  UNK     1      30.764  -5.101  38.028  1.00  0.00     0.055 C 
HETATM    3  C4  UNK     1      31.409  -4.402  37.055  1.00  0.00     0.036 C 
HETATM    4  C15 UNK     1      30.044  -4.340  39.017  1.00  0.00     0.100 C 
ENDROOT
BRANCH   2   5
HETATM    5  C1  UNK     1      30.758  -6.552  38.115  1.00  0.00    -0.015 A 
HETATM    6  C7  UNK     1      31.959  -7.247  38.264  1.00  0.00     0.013 A 
HETATM    7  C11 UNK     1      31.951  -8.639  38.350  1.00  0.00     0.001 A 
HETATM    8  C14 UNK     1      30.746  -9.336  38.287  1.00  0.00     0.000 A 
HETATM    9  C12 UNK     1      29.545  -8.641  38.138  1.00  0.00     0.001 A 
HETATM   10  C8  UNK     1      29.552  -7.249  38.053  1.00  0.00     0.013 A 
ENDBRANCH   2   5
BRANCH   3  11
HETATM   11  C2  UNK     1      32.213  -4.987  35.972  1.00  0.00    -0.013 A 
HETATM   12  C5  UNK     1      31.629  -5.675  34.917  1.00  0.00     0.044 A 
HETATM   13 Cl1  UNK     1      29.918  -5.900  34.793  1.00  0.00    -0.083 Cl
HETATM   14  C9  UNK     1      32.436  -6.212  33.913  1.00  0.00     0.024 A 
HETATM   15  C13 UNK     1      33.820  -6.054  33.973  1.00  0.00     0.002 A 
HETATM   16  C10 UNK     1      34.397  -5.360  35.036  1.00  0.00     0.001 A 
HETATM   17  C6  UNK     1      33.591  -4.825  36.040  1.00  0.00     0.013 A 
ENDBRANCH   3  11
TORSDOF 2
ENDMDL
MODEL 10
REMARK VINA RESULT:      -6.3     23.179     24.753
REMARK  2 active torsions:
REMARK  status: ('A' for Active; 'I' for Inactive)
REMARK    1  A    between atoms: C1_3  and  C3_5 
REMARK    2  A    between atoms: C2_4  and  C4_6 
ROOT
HETATM    1  N1  UNK     1      15.617   4.314   9.714  1.00  0.00    -0.191 NA
HETATM    2  C3  UNK     1      13.456   5.642   9.139  1.00  0.00     0.055 C 
HETATM    3  C4  UNK     1      12.386   4.937   8.684  1.00  0.00     0.036 C 
HETATM    4  C15 UNK     1      14.648   4.897   9.455  1.00  0.00     0.100 C 
ENDROOT
BRANCH   2   5
HETATM    5  C1  UNK     1      13.461   7.085   9.316  1.00  0.00    -0.015 A 
HETATM    6  C7  UNK     1      12.888   7.651  10.455  1.00  0.00     0.013 A 
HETATM    7  C11 UNK     1      12.895   9.035  10.624  1.00  0.00     0.001 A 
HETATM    8  C14 UNK     1      13.475   9.854   9.656  1.00  0.00     0.000 A 
HETATM    9  C12 UNK     1      14.047   9.288   8.516  1.00  0.00     0.001 A 
HETATM   10  C8  UNK     1      14.041   7.903   8.347  1.00  0.00     0.013 A 
ENDBRANCH   2   5
BRANCH   3  11
HETATM   11  C2  UNK     1      11.076   5.504   8.329  1.00  0.00    -0.013 A 
HETATM   12  C5  UNK     1      10.840   6.082   7.089  1.00  0.00     0.044 A 
HETATM   13 Cl1  UNK     1      12.062   6.182   5.868  1.00  0.00    -0.083 Cl
HETATM   14  C9  UNK     1       9.580   6.606   6.801  1.00  0.00     0.024 A 
HETATM   15  C13 UNK     1       8.566   6.546   7.757  1.00  0.00     0.002 A 
HETATM   16  C10 UNK     1       8.811   5.963   8.999  1.00  0.00     0.001 A 
HETATM   17  C6  UNK     1      10.072   5.440   9.287  1.00  0.00     0.013 A 
ENDBRANCH   3  11
TORSDOF 2
ENDMDL
