MODEL 1
REMARK VINA RESULT:      -9.9      0.000      0.000
REMARK  6 active torsions:
REMARK  status: ('A' for Active; 'I' for Inactive)
REMARK    1  A    between atoms: C3_7  and  S1_1 
REMARK    2  A    between atoms: C8_12  and  S1_1 
REMARK       I    between atoms: C15_19  and  N1_3 
REMARK    3  A    between atoms: C4_8  and  N1_3 
REMARK    4  A    between atoms: C16_20  and  C5_9 
REMARK    5  A    between atoms: C15_19  and  C8_12 
REMARK    6  A    between atoms: C19_23  and  C20_24 
ROOT
HETATM    1  O1  UNK     1      20.909  -2.888  35.979  1.00  0.00    -0.272 OA
HETATM    2  N1  UNK     1      18.607  -2.429  36.073  1.00  0.00    -0.327 N 
HETATM    3  C15 UNK     1      19.754  -3.193  36.262  1.00  0.00     0.231 C 
HETATM    4  H9  UNK     1      17.718  -2.834  36.355  1.00  0.00     0.169 HD
ENDROOT
BRANCH   2   5
HETATM    5  C4  UNK     1      18.520  -1.124  35.532  1.00  0.00     0.034 A 
HETATM    6  C11 UNK     1      18.502  -0.035  36.388  1.00  0.00     0.030 A 
HETATM    7  C13 UNK     1      18.415   1.251  35.853  1.00  0.00     0.013 A 
HETATM    8  C5  UNK     1      18.347   1.429  34.472  1.00  0.00    -0.036 A 
HETATM    9  C14 UNK     1      18.365   0.321  33.624  1.00  0.00     0.013 A 
HETATM   10  C12 UNK     1      18.453  -0.964  34.157  1.00  0.00     0.030 A 
BRANCH   8  11
HETATM   11  C16 UNK     1      18.256   2.769  33.915  1.00  0.00     0.012 C 
HETATM   12  C20 UNK     1      18.369   3.077  32.601  1.00  0.00     0.012 C 
BRANCH  12  13
HETATM   13  C19 UNK     1      18.258   4.433  32.034  1.00  0.00    -0.036 A 
HETATM   14  C21 UNK     1      18.921   4.731  30.854  1.00  0.00     0.011 A 
HETATM   15  C23 UNK     1      18.815   6.014  30.317  1.00  0.00     0.001 A 
HETATM   16  C25 UNK     1      18.049   6.982  30.967  1.00  0.00     0.000 A 
HETATM   17  C24 UNK     1      17.388   6.665  32.154  1.00  0.00     0.001 A 
HETATM   18  C22 UNK     1      17.492   5.382  32.691  1.00  0.00     0.011 A 
ENDBRANCH  12  13
ENDBRANCH   8  11
ENDBRANCH   2   5
BRANCH   3  19
HETATM   19  C8  UNK     1      19.441  -4.543  36.869  1.00  0.00     0.182 C 
BRANCH  19  20
HETATM   20  S1  UNK     1      20.063  -5.838  35.764  1.00  0.00    -0.118 SA
BRANCH  20  21
HETATM   21  C3  UNK     1      20.164  -7.238  36.886  1.00  0.00     0.030 A 
HETATM   22  C1  UNK     1      20.701  -8.456  36.475  1.00  0.00     0.083 A 
HETATM   23  N2  UNK     1      21.156  -8.604  35.217  1.00  0.00    -0.259 NA
HETATM   24  C2  UNK     1      20.748  -9.510  37.412  1.00  0.00    -0.006 A 
HETATM   25  C18 UNK     1      21.669  -9.803  34.859  1.00  0.00     0.117 A 
HETATM   26  C17 UNK     1      21.758 -10.890  35.704  1.00  0.00     0.020 A 
HETATM   27  C9  UNK     1      21.288 -10.736  37.000  1.00  0.00     0.015 A 
HETATM   28  C6  UNK     1      20.264  -9.321  38.718  1.00  0.00     0.014 A 
HETATM   29  C10 UNK     1      19.733  -8.093  39.101  1.00  0.00     0.002 A 
HETATM   30  C7  UNK     1      19.684  -7.051  38.184  1.00  0.00     0.021 A 
ENDBRANCH  20  21
ENDBRANCH  19  20
ENDBRANCH   3  19
TORSDOF 6
ENDMDL
MODEL 2
REMARK VINA RESULT:      -9.6      1.334      2.205
REMARK  6 active torsions:
REMARK  status: ('A' for Active; 'I' for Inactive)
REMARK    1  A    between atoms: C3_7  and  S1_1 
REMARK    2  A    between atoms: C8_12  and  S1_1 
REMARK       I    between atoms: C15_19  and  N1_3 
REMARK    3  A    between atoms: C4_8  and  N1_3 
REMARK    4  A    between atoms: C16_20  and  C5_9 
REMARK    5  A    between atoms: C15_19  and  C8_12 
REMARK    6  A    between atoms: C19_23  and  C20_24 
ROOT
HETATM    1  O1  UNK     1      20.846  -2.820  36.158  1.00  0.00    -0.272 OA
HETATM    2  N1  UNK     1      18.531  -2.442  36.029  1.00  0.00    -0.327 N 
HETATM    3  C15 UNK     1      19.680  -3.165  36.329  1.00  0.00     0.231 C 
HETATM    4  H9  UNK     1      17.634  -2.878  36.225  1.00  0.00     0.169 HD
ENDROOT
BRANCH   2   5
HETATM    5  C4  UNK     1      18.452  -1.140  35.478  1.00  0.00     0.034 A 
HETATM    6  C11 UNK     1      18.487  -0.984  34.102  1.00  0.00     0.030 A 
HETATM    7  C13 UNK     1      18.410   0.299  33.559  1.00  0.00     0.013 A 
HETATM    8  C5  UNK     1      18.299   1.406  34.399  1.00  0.00    -0.036 A 
HETATM    9  C14 UNK     1      18.265   1.231  35.783  1.00  0.00     0.013 A 
HETATM   10  C12 UNK     1      18.341  -0.051  36.326  1.00  0.00     0.030 A 
BRANCH   8  11
HETATM   11  C16 UNK     1      18.218   2.743  33.834  1.00  0.00     0.012 C 
HETATM   12  C20 UNK     1      18.389   3.048  32.525  1.00  0.00     0.012 C 
BRANCH  12  13
HETATM   13  C19 UNK     1      18.289   4.401  31.948  1.00  0.00    -0.036 A 
HETATM   14  C21 UNK     1      17.497   5.349  32.575  1.00  0.00     0.011 A 
HETATM   15  C23 UNK     1      17.402   6.629  32.029  1.00  0.00     0.001 A 
HETATM   16  C25 UNK     1      18.099   6.944  30.863  1.00  0.00     0.000 A 
HETATM   17  C24 UNK     1      18.893   5.977  30.243  1.00  0.00     0.001 A 
HETATM   18  C22 UNK     1      18.989   4.698  30.790  1.00  0.00     0.011 A 
ENDBRANCH  12  13
ENDBRANCH   8  11
ENDBRANCH   2   5
BRANCH   3  19
HETATM   19  C8  UNK     1      19.358  -4.526  36.907  1.00  0.00     0.182 C 
BRANCH  19  20
HETATM   20  S1  UNK     1      19.933  -5.801  35.754  1.00  0.00    -0.118 SA
BRANCH  20  21
HETATM   21  C3  UNK     1      19.966  -7.248  36.819  1.00  0.00     0.030 A 
HETATM   22  C1  UNK     1      20.944  -7.401  37.799  1.00  0.00     0.083 A 
HETATM   23  N2  UNK     1      21.888  -6.457  37.965  1.00  0.00    -0.259 NA
HETATM   24  C2  UNK     1      20.906  -8.563  38.598  1.00  0.00    -0.006 A 
HETATM   25  C18 UNK     1      22.819  -6.644  38.928  1.00  0.00     0.117 A 
HETATM   26  C17 UNK     1      22.863  -7.746  39.757  1.00  0.00     0.020 A 
HETATM   27  C9  UNK     1      21.889  -8.718  39.585  1.00  0.00     0.015 A 
HETATM   28  C6  UNK     1      19.905  -9.529  38.399  1.00  0.00     0.014 A 
HETATM   29  C10 UNK     1      18.940  -9.350  37.412  1.00  0.00     0.002 A 
HETATM   30  C7  UNK     1      18.971  -8.208  36.622  1.00  0.00     0.021 A 
ENDBRANCH  20  21
ENDBRANCH  19  20
ENDBRANCH   3  19
TORSDOF 6
ENDMDL
MODEL 3
REMARK VINA RESULT:      -9.3      1.366      1.592
REMARK  6 active torsions:
REMARK  status: ('A' for Active; 'I' for Inactive)
REMARK    1  A    between atoms: C3_7  and  S1_1 
REMARK    2  A    between atoms: C8_12  and  S1_1 
REMARK       I    between atoms: C15_19  and  N1_3 
REMARK    3  A    between atoms: C4_8  and  N1_3 
REMARK    4  A    between atoms: C16_20  and  C5_9 
REMARK    5  A    between atoms: C15_19  and  C8_12 
REMARK    6  A    between atoms: C19_23  and  C20_24 
ROOT
HETATM    1  O1  UNK     1      20.651  -2.884  36.391  1.00  0.00    -0.272 OA
HETATM    2  N1  UNK     1      18.353  -2.460  36.149  1.00  0.00    -0.327 N 
HETATM    3  C15 UNK     1      19.473  -3.222  36.465  1.00  0.00     0.231 C 
HETATM    4  H9  UNK     1      17.440  -2.894  36.259  1.00  0.00     0.169 HD
ENDROOT
BRANCH   2   5
HETATM    5  C4  UNK     1      18.323  -1.123  35.688  1.00  0.00     0.034 A 
HETATM    6  C11 UNK     1      18.342  -0.088  36.609  1.00  0.00     0.030 A 
HETATM    7  C13 UNK     1      18.311   1.231  36.154  1.00  0.00     0.013 A 
HETATM    8  C5  UNK     1      18.262   1.496  34.786  1.00  0.00    -0.036 A 
HETATM    9  C14 UNK     1      18.244   0.442  33.871  1.00  0.00     0.013 A 
HETATM   10  C12 UNK     1      18.275  -0.876  34.325  1.00  0.00     0.030 A 
BRANCH   8  11
HETATM   11  C16 UNK     1      18.230   2.870  34.312  1.00  0.00     0.012 C 
HETATM   12  C20 UNK     1      18.202   3.246  33.011  1.00  0.00     0.012 C 
BRANCH  12  13
HETATM   13  C19 UNK     1      18.150   4.638  32.530  1.00  0.00    -0.036 A 
HETATM   14  C21 UNK     1      18.547   4.923  31.233  1.00  0.00     0.011 A 
HETATM   15  C23 UNK     1      18.498   6.241  30.778  1.00  0.00     0.001 A 
HETATM   16  C25 UNK     1      18.053   7.255  31.625  1.00  0.00     0.000 A 
HETATM   17  C24 UNK     1      17.656   6.951  32.928  1.00  0.00     0.001 A 
HETATM   18  C22 UNK     1      17.704   5.634  33.383  1.00  0.00     0.011 A 
ENDBRANCH  12  13
ENDBRANCH   8  11
ENDBRANCH   2   5
BRANCH   3  19
HETATM   19  C8  UNK     1      19.100  -4.614  36.925  1.00  0.00     0.182 C 
BRANCH  19  20
HETATM   20  S1  UNK     1      20.181  -5.811  36.098  1.00  0.00    -0.118 SA
BRANCH  20  21
HETATM   21  C3  UNK     1      20.836  -6.720  37.503  1.00  0.00     0.030 A 
HETATM   22  C1  UNK     1      20.339  -7.974  37.849  1.00  0.00     0.083 A 
HETATM   23  N2  UNK     1      19.348  -8.530  37.127  1.00  0.00    -0.259 NA
HETATM   24  C2  UNK     1      20.903  -8.628  38.964  1.00  0.00    -0.006 A 
HETATM   25  C18 UNK     1      18.893  -9.749  37.496  1.00  0.00     0.117 A 
HETATM   26  C17 UNK     1      19.382 -10.465  38.569  1.00  0.00     0.020 A 
HETATM   27  C9  UNK     1      20.403  -9.890  39.312  1.00  0.00     0.015 A 
HETATM   28  C6  UNK     1      21.937  -8.019  39.695  1.00  0.00     0.014 A 
HETATM   29  C10 UNK     1      22.415  -6.765  39.328  1.00  0.00     0.002 A 
HETATM   30  C7  UNK     1      21.864  -6.116  38.230  1.00  0.00     0.021 A 
ENDBRANCH  20  21
ENDBRANCH  19  20
ENDBRANCH   3  19
TORSDOF 6
ENDMDL
MODEL 4
REMARK VINA RESULT:      -9.3      3.532     10.886
REMARK  6 active torsions:
REMARK  status: ('A' for Active; 'I' for Inactive)
REMARK    1  A    between atoms: C3_7  and  S1_1 
REMARK    2  A    between atoms: C8_12  and  S1_1 
REMARK       I    between atoms: C15_19  and  N1_3 
REMARK    3  A    between atoms: C4_8  and  N1_3 
REMARK    4  A    between atoms: C16_20  and  C5_9 
REMARK    5  A    between atoms: C15_19  and  C8_12 
REMARK    6  A    between atoms: C19_23  and  C20_24 
ROOT
HETATM    1  O1  UNK     1      19.082   1.690  35.335  1.00  0.00    -0.272 OA
HETATM    2  N1  UNK     1      18.411  -0.290  34.262  1.00  0.00    -0.327 N 
HETATM    3  C15 UNK     1      18.501   1.087  34.436  1.00  0.00     0.231 C 
HETATM    4  H9  UNK     1      17.881  -0.632  33.465  1.00  0.00     0.169 HD
ENDROOT
BRANCH   2   5
HETATM    5  C4  UNK     1      18.983  -1.300  35.072  1.00  0.00     0.034 A 
HETATM    6  C11 UNK     1      18.575  -1.423  36.391  1.00  0.00     0.030 A 
HETATM    7  C13 UNK     1      19.141  -2.418  37.189  1.00  0.00     0.013 A 
HETATM    8  C5  UNK     1      20.104  -3.275  36.658  1.00  0.00    -0.036 A 
HETATM    9  C14 UNK     1      20.503  -3.138  35.328  1.00  0.00     0.013 A 
HETATM   10  C12 UNK     1      19.938  -2.144  34.529  1.00  0.00     0.030 A 
BRANCH   8  11
HETATM   11  C16 UNK     1      20.693  -4.313  37.489  1.00  0.00     0.012 C 
HETATM   12  C20 UNK     1      20.232  -5.582  37.596  1.00  0.00     0.012 C 
BRANCH  12  13
HETATM   13  C19 UNK     1      20.840  -6.639  38.424  1.00  0.00    -0.036 A 
HETATM   14  C21 UNK     1      22.144  -6.488  38.866  1.00  0.00     0.011 A 
HETATM   15  C23 UNK     1      22.719  -7.489  39.650  1.00  0.00     0.001 A 
HETATM   16  C25 UNK     1      21.983  -8.626  39.981  1.00  0.00     0.000 A 
HETATM   17  C24 UNK     1      20.670  -8.762  39.528  1.00  0.00     0.001 A 
HETATM   18  C22 UNK     1      20.095  -7.762  38.745  1.00  0.00     0.011 A 
ENDBRANCH  12  13
ENDBRANCH   8  11
ENDBRANCH   2   5
BRANCH   3  19
HETATM   19  C8  UNK     1      17.753   1.844  33.361  1.00  0.00     0.182 C 
BRANCH  19  20
HETATM   20  S1  UNK     1      18.946   2.787  32.374  1.00  0.00    -0.118 SA
BRANCH  20  21
HETATM   21  C3  UNK     1      18.783   1.990  30.772  1.00  0.00     0.030 A 
HETATM   22  C1  UNK     1      19.414   0.778  30.500  1.00  0.00     0.083 A 
HETATM   23  N2  UNK     1      20.163   0.180  31.444  1.00  0.00    -0.259 NA
HETATM   24  C2  UNK     1      19.240   0.212  29.219  1.00  0.00    -0.006 A 
HETATM   25  C18 UNK     1      20.758  -0.996  31.140  1.00  0.00     0.117 A 
HETATM   26  C17 UNK     1      20.646  -1.626  29.917  1.00  0.00     0.020 A 
HETATM   27  C9  UNK     1      19.874  -1.008  28.945  1.00  0.00     0.015 A 
HETATM   28  C6  UNK     1      18.450   0.864  28.257  1.00  0.00     0.014 A 
HETATM   29  C10 UNK     1      17.831   2.074  28.555  1.00  0.00     0.002 A 
HETATM   30  C7  UNK     1      17.998   2.637  29.815  1.00  0.00     0.021 A 
ENDBRANCH  20  21
ENDBRANCH  19  20
ENDBRANCH   3  19
TORSDOF 6
ENDMDL
MODEL 5
REMARK VINA RESULT:      -9.1      3.648     11.501
REMARK  6 active torsions:
REMARK  status: ('A' for Active; 'I' for Inactive)
REMARK    1  A    between atoms: C3_7  and  S1_1 
REMARK    2  A    between atoms: C8_12  and  S1_1 
REMARK       I    between atoms: C15_19  and  N1_3 
REMARK    3  A    between atoms: C4_8  and  N1_3 
REMARK    4  A    between atoms: C16_20  and  C5_9 
REMARK    5  A    between atoms: C15_19  and  C8_12 
REMARK    6  A    between atoms: C19_23  and  C20_24 
ROOT
HETATM    1  O1  UNK     1      21.264  -0.079  30.244  1.00  0.00    -0.272 OA
HETATM    2  N1  UNK     1      19.124  -0.191  31.205  1.00  0.00    -0.327 N 
HETATM    3  C15 UNK     1      20.065   0.183  30.253  1.00  0.00     0.231 C 
HETATM    4  H9  UNK     1      18.164   0.117  31.069  1.00  0.00     0.169 HD
ENDROOT
BRANCH   2   5
HETATM    5  C4  UNK     1      19.336  -0.973  32.366  1.00  0.00     0.034 A 
HETATM    6  C11 UNK     1      20.274  -1.993  32.333  1.00  0.00     0.030 A 
HETATM    7  C13 UNK     1      20.482  -2.764  33.477  1.00  0.00     0.013 A 
HETATM    8  C5  UNK     1      19.751  -2.505  34.636  1.00  0.00    -0.036 A 
HETATM    9  C14 UNK     1      18.811  -1.474  34.652  1.00  0.00     0.013 A 
HETATM   10  C12 UNK     1      18.603  -0.702  33.509  1.00  0.00     0.030 A 
BRANCH   8  11
HETATM   11  C16 UNK     1      19.968  -3.308  35.828  1.00  0.00     0.012 C 
HETATM   12  C20 UNK     1      19.998  -4.662  35.862  1.00  0.00     0.012 C 
BRANCH  12  13
HETATM   13  C19 UNK     1      20.237  -5.477  37.066  1.00  0.00    -0.036 A 
HETATM   14  C21 UNK     1      21.425  -5.325  37.762  1.00  0.00     0.011 A 
HETATM   15  C23 UNK     1      21.652  -6.096  38.903  1.00  0.00     0.001 A 
HETATM   16  C25 UNK     1      20.688  -7.009  39.331  1.00  0.00     0.000 A 
HETATM   17  C24 UNK     1      19.496  -7.150  38.618  1.00  0.00     0.001 A 
HETATM   18  C22 UNK     1      19.269  -6.378  37.479  1.00  0.00     0.011 A 
ENDBRANCH  12  13
ENDBRANCH   8  11
ENDBRANCH   2   5
BRANCH   3  19
HETATM   19  C8  UNK     1      19.453   1.023  29.152  1.00  0.00     0.182 C 
BRANCH  19  20
HETATM   20  S1  UNK     1      17.877   1.697  29.740  1.00  0.00    -0.118 SA
BRANCH  20  21
HETATM   21  C3  UNK     1      18.397   3.290  30.389  1.00  0.00     0.030 A 
HETATM   22  C1  UNK     1      18.402   3.546  31.758  1.00  0.00     0.083 A 
HETATM   23  N2  UNK     1      18.012   2.593  32.625  1.00  0.00    -0.259 NA
HETATM   24  C2  UNK     1      18.823   4.820  32.194  1.00  0.00    -0.006 A 
HETATM   25  C18 UNK     1      18.032   2.882  33.946  1.00  0.00     0.117 A 
HETATM   26  C17 UNK     1      18.428   4.097  34.466  1.00  0.00     0.020 A 
HETATM   27  C9  UNK     1      18.829   5.078  33.571  1.00  0.00     0.015 A 
HETATM   28  C6  UNK     1      19.224   5.792  31.261  1.00  0.00     0.014 A 
HETATM   29  C10 UNK     1      19.210   5.509  29.899  1.00  0.00     0.002 A 
HETATM   30  C7  UNK     1      18.796   4.256  29.463  1.00  0.00     0.021 A 
ENDBRANCH  20  21
ENDBRANCH  19  20
ENDBRANCH   3  19
TORSDOF 6
ENDMDL
MODEL 6
REMARK VINA RESULT:      -9.1      7.930     14.973
REMARK  6 active torsions:
REMARK  status: ('A' for Active; 'I' for Inactive)
REMARK    1  A    between atoms: C3_7  and  S1_1 
REMARK    2  A    between atoms: C8_12  and  S1_1 
REMARK       I    between atoms: C15_19  and  N1_3 
REMARK    3  A    between atoms: C4_8  and  N1_3 
REMARK    4  A    between atoms: C16_20  and  C5_9 
REMARK    5  A    between atoms: C15_19  and  C8_12 
REMARK    6  A    between atoms: C19_23  and  C20_24 
ROOT
HETATM    1  O1  UNK     1      19.037   8.503  33.917  1.00  0.00    -0.272 OA
HETATM    2  N1  UNK     1      17.258   7.793  32.556  1.00  0.00    -0.327 N 
HETATM    3  C15 UNK     1      17.922   8.653  33.425  1.00  0.00     0.231 C 
HETATM    4  H9  UNK     1      16.328   8.062  32.244  1.00  0.00     0.169 HD
ENDROOT
BRANCH   2   5
HETATM    5  C4  UNK     1      17.727   6.564  32.034  1.00  0.00     0.034 A 
HETATM    6  C11 UNK     1      18.375   6.552  30.809  1.00  0.00     0.030 A 
HETATM    7  C13 UNK     1      18.836   5.340  30.293  1.00  0.00     0.013 A 
HETATM    8  C5  UNK     1      18.644   4.159  31.010  1.00  0.00    -0.036 A 
HETATM    9  C14 UNK     1      17.990   4.189  32.242  1.00  0.00     0.013 A 
HETATM   10  C12 UNK     1      17.529   5.400  32.758  1.00  0.00     0.030 A 
BRANCH   8  11
HETATM   11  C16 UNK     1      19.124   2.897  30.473  1.00  0.00     0.012 C 
HETATM   12  C20 UNK     1      19.074   1.706  31.116  1.00  0.00     0.012 C 
BRANCH  12  13
HETATM   13  C19 UNK     1      19.544   0.422  30.565  1.00  0.00    -0.036 A 
HETATM   14  C21 UNK     1      19.668  -0.672  31.406  1.00  0.00     0.011 A 
HETATM   15  C23 UNK     1      20.112  -1.887  30.884  1.00  0.00     0.001 A 
HETATM   16  C25 UNK     1      20.427  -1.991  29.529  1.00  0.00     0.000 A 
HETATM   17  C24 UNK     1      20.297  -0.879  28.696  1.00  0.00     0.001 A 
HETATM   18  C22 UNK     1      19.852   0.335  29.217  1.00  0.00     0.011 A 
ENDBRANCH  12  13
ENDBRANCH   8  11
ENDBRANCH   2   5
BRANCH   3  19
HETATM   19  C8  UNK     1      17.092   9.873  33.759  1.00  0.00     0.182 C 
BRANCH  19  20
HETATM   20  S1  UNK     1      15.777   9.387  34.909  1.00  0.00    -0.118 SA
BRANCH  20  21
HETATM   21  C3  UNK     1      14.477  10.545  34.464  1.00  0.00     0.030 A 
HETATM   22  C1  UNK     1      13.799  11.278  35.435  1.00  0.00     0.083 A 
HETATM   23  N2  UNK     1      14.112  11.128  36.735  1.00  0.00    -0.259 NA
HETATM   24  C2  UNK     1      12.790  12.168  35.010  1.00  0.00    -0.006 A 
HETATM   25  C18 UNK     1      13.430  11.860  37.646  1.00  0.00     0.117 A 
HETATM   26  C17 UNK     1      12.429  12.755  37.327  1.00  0.00     0.020 A 
HETATM   27  C9  UNK     1      12.108  12.907  35.987  1.00  0.00     0.015 A 
HETATM   28  C6  UNK     1      12.489  12.300  33.644  1.00  0.00     0.014 A 
HETATM   29  C10 UNK     1      13.182  11.554  32.695  1.00  0.00     0.002 A 
HETATM   30  C7  UNK     1      14.177  10.676  33.106  1.00  0.00     0.021 A 
ENDBRANCH  20  21
ENDBRANCH  19  20
ENDBRANCH   3  19
TORSDOF 6
ENDMDL
MODEL 7
REMARK VINA RESULT:      -8.9      8.265     13.872
REMARK  6 active torsions:
REMARK  status: ('A' for Active; 'I' for Inactive)
REMARK    1  A    between atoms: C3_7  and  S1_1 
REMARK    2  A    between atoms: C8_12  and  S1_1 
REMARK       I    between atoms: C15_19  and  N1_3 
REMARK    3  A    between atoms: C4_8  and  N1_3 
REMARK    4  A    between atoms: C16_20  and  C5_9 
REMARK    5  A    between atoms: C15_19  and  C8_12 
REMARK    6  A    between atoms: C19_23  and  C20_24 
ROOT
HETATM    1  O1  UNK     1      14.267   7.266  32.048  1.00  0.00    -0.272 OA
HETATM    2  N1  UNK     1      16.511   7.950  31.932  1.00  0.00    -0.327 N 
HETATM    3  C15 UNK     1      15.144   8.123  32.113  1.00  0.00     0.231 C 
HETATM    4  H9  UNK     1      17.106   8.771  32.012  1.00  0.00     0.169 HD
ENDROOT
BRANCH   2   5
HETATM    5  C4  UNK     1      17.198   6.744  31.652  1.00  0.00     0.034 A 
HETATM    6  C11 UNK     1      17.954   6.649  30.494  1.00  0.00     0.030 A 
HETATM    7  C13 UNK     1      18.629   5.459  30.217  1.00  0.00     0.013 A 
HETATM    8  C5  UNK     1      18.538   4.384  31.100  1.00  0.00    -0.036 A 
HETATM    9  C14 UNK     1      17.772   4.497  32.261  1.00  0.00     0.013 A 
HETATM   10  C12 UNK     1      17.098   5.685  32.539  1.00  0.00     0.030 A 
BRANCH   8  11
HETATM   11  C16 UNK     1      19.242   3.145  30.812  1.00  0.00     0.012 C 
HETATM   12  C20 UNK     1      18.651   1.952  30.564  1.00  0.00     0.012 C 
BRANCH  12  13
HETATM   13  C19 UNK     1      19.363   0.699  30.252  1.00  0.00    -0.036 A 
HETATM   14  C21 UNK     1      19.575   0.352  28.928  1.00  0.00     0.011 A 
HETATM   15  C23 UNK     1      20.249  -0.834  28.632  1.00  0.00     0.001 A 
HETATM   16  C25 UNK     1      20.701  -1.655  29.665  1.00  0.00     0.000 A 
HETATM   17  C24 UNK     1      20.479  -1.290  30.994  1.00  0.00     0.001 A 
HETATM   18  C22 UNK     1      19.806  -0.105  31.289  1.00  0.00     0.011 A 
ENDBRANCH  12  13
ENDBRANCH   8  11
ENDBRANCH   2   5
BRANCH   3  19
HETATM   19  C8  UNK     1      14.788   9.567  32.397  1.00  0.00     0.182 C 
BRANCH  19  20
HETATM   20  S1  UNK     1      14.982   9.876  34.173  1.00  0.00    -0.118 SA
BRANCH  20  21
HETATM   21  C3  UNK     1      16.513  10.815  34.200  1.00  0.00     0.030 A 
HETATM   22  C1  UNK     1      17.749  10.180  34.301  1.00  0.00     0.083 A 
HETATM   23  N2  UNK     1      17.814   8.838  34.381  1.00  0.00    -0.259 NA
HETATM   24  C2  UNK     1      18.909  10.983  34.317  1.00  0.00    -0.006 A 
HETATM   25  C18 UNK     1      19.033   8.261  34.478  1.00  0.00     0.117 A 
HETATM   26  C17 UNK     1      20.222   8.962  34.500  1.00  0.00     0.020 A 
HETATM   27  C9  UNK     1      20.152  10.345  34.418  1.00  0.00     0.015 A 
HETATM   28  C6  UNK     1      18.804  12.382  34.231  1.00  0.00     0.014 A 
HETATM   29  C10 UNK     1      17.557  12.990  34.131  1.00  0.00     0.002 A 
HETATM   30  C7  UNK     1      16.410  12.205  34.115  1.00  0.00     0.021 A 
ENDBRANCH  20  21
ENDBRANCH  19  20
ENDBRANCH   3  19
TORSDOF 6
ENDMDL
MODEL 8
REMARK VINA RESULT:      -8.9      5.946      9.530
REMARK  6 active torsions:
REMARK  status: ('A' for Active; 'I' for Inactive)
REMARK    1  A    between atoms: C3_7  and  S1_1 
REMARK    2  A    between atoms: C8_12  and  S1_1 
REMARK       I    between atoms: C15_19  and  N1_3 
REMARK    3  A    between atoms: C4_8  and  N1_3 
REMARK    4  A    between atoms: C16_20  and  C5_9 
REMARK    5  A    between atoms: C15_19  and  C8_12 
REMARK    6  A    between atoms: C19_23  and  C20_24 
ROOT
HETATM    1  O1  UNK     1      19.269   6.177  30.306  1.00  0.00    -0.272 OA
HETATM    2  N1  UNK     1      17.813   5.043  31.759  1.00  0.00    -0.327 N 
HETATM    3  C15 UNK     1      18.765   5.150  30.751  1.00  0.00     0.231 C 
HETATM    4  H9  UNK     1      17.489   4.111  32.007  1.00  0.00     0.169 HD
ENDROOT
BRANCH   2   5
HETATM    5  C4  UNK     1      17.226   6.093  32.505  1.00  0.00     0.034 A 
HETATM    6  C11 UNK     1      16.275   6.902  31.905  1.00  0.00     0.030 A 
HETATM    7  C13 UNK     1      15.699   7.938  32.641  1.00  0.00     0.013 A 
HETATM    8  C5  UNK     1      16.081   8.150  33.965  1.00  0.00    -0.036 A 
HETATM    9  C14 UNK     1      17.041   7.326  34.554  1.00  0.00     0.013 A 
HETATM   10  C12 UNK     1      17.617   6.290  33.820  1.00  0.00     0.030 A 
BRANCH   8  11
HETATM   11  C16 UNK     1      15.480   9.229  34.732  1.00  0.00     0.012 C 
HETATM   12  C20 UNK     1      14.421   9.973  34.333  1.00  0.00     0.012 C 
BRANCH  12  13
HETATM   13  C19 UNK     1      13.800  11.055  35.118  1.00  0.00    -0.036 A 
HETATM   14  C21 UNK     1      14.142  11.208  36.451  1.00  0.00     0.011 A 
HETATM   15  C23 UNK     1      13.554  12.232  37.194  1.00  0.00     0.001 A 
HETATM   16  C25 UNK     1      12.631  13.088  36.594  1.00  0.00     0.000 A 
HETATM   17  C24 UNK     1      12.297  12.920  35.250  1.00  0.00     0.001 A 
HETATM   18  C22 UNK     1      12.885  11.898  34.507  1.00  0.00     0.011 A 
ENDBRANCH  12  13
ENDBRANCH   8  11
ENDBRANCH   2   5
BRANCH   3  19
HETATM   19  C8  UNK     1      19.148   3.798  30.188  1.00  0.00     0.182 C 
BRANCH  19  20
HETATM   20  S1  UNK     1      18.105   2.530  30.956  1.00  0.00    -0.118 SA
BRANCH  20  21
HETATM   21  C3  UNK     1      19.052   1.042  30.611  1.00  0.00     0.030 A 
HETATM   22  C1  UNK     1      19.234   0.060  31.582  1.00  0.00     0.083 A 
HETATM   23  N2  UNK     1      18.696   0.213  32.807  1.00  0.00    -0.259 NA
HETATM   24  C2  UNK     1      19.988  -1.081  31.239  1.00  0.00    -0.006 A 
HETATM   25  C18 UNK     1      18.896  -0.764  33.721  1.00  0.00     0.117 A 
HETATM   26  C17 UNK     1      19.618  -1.914  33.478  1.00  0.00     0.020 A 
HETATM   27  C9  UNK     1      20.171  -2.070  32.215  1.00  0.00     0.015 A 
HETATM   28  C6  UNK     1      20.535  -1.209  29.951  1.00  0.00     0.014 A 
HETATM   29  C10 UNK     1      20.337  -0.213  29.000  1.00  0.00     0.002 A 
HETATM   30  C7  UNK     1      19.595   0.914  29.331  1.00  0.00     0.021 A 
ENDBRANCH  20  21
ENDBRANCH  19  20
ENDBRANCH   3  19
TORSDOF 6
ENDMDL
MODEL 9
REMARK VINA RESULT:      -8.8      3.348     12.879
REMARK  6 active torsions:
REMARK  status: ('A' for Active; 'I' for Inactive)
REMARK    1  A    between atoms: C3_7  and  S1_1 
REMARK    2  A    between atoms: C8_12  and  S1_1 
REMARK       I    between atoms: C15_19  and  N1_3 
REMARK    3  A    between atoms: C4_8  and  N1_3 
REMARK    4  A    between atoms: C16_20  and  C5_9 
REMARK    5  A    between atoms: C15_19  and  C8_12 
REMARK    6  A    between atoms: C19_23  and  C20_24 
ROOT
HETATM    1  O1  UNK     1      19.222   1.944  35.709  1.00  0.00    -0.272 OA
HETATM    2  N1  UNK     1      18.448   0.206  34.332  1.00  0.00    -0.327 N 
HETATM    3  C15 UNK     1      18.686   1.530  34.685  1.00  0.00     0.231 C 
HETATM    4  H9  UNK     1      17.982   0.030  33.445  1.00  0.00     0.169 HD
ENDROOT
BRANCH   2   5
HETATM    5  C4  UNK     1      18.785  -0.956  35.066  1.00  0.00     0.034 A 
HETATM    6  C11 UNK     1      19.872  -1.717  34.668  1.00  0.00     0.030 A 
HETATM    7  C13 UNK     1      20.203  -2.864  35.391  1.00  0.00     0.013 A 
HETATM    8  C5  UNK     1      19.443  -3.232  36.501  1.00  0.00    -0.036 A 
HETATM    9  C14 UNK     1      18.352  -2.454  36.888  1.00  0.00     0.013 A 
HETATM   10  C12 UNK     1      18.021  -1.308  36.166  1.00  0.00     0.030 A 
BRANCH   8  11
HETATM   11  C16 UNK     1      19.789  -4.427  37.254  1.00  0.00     0.012 C 
HETATM   12  C20 UNK     1      21.043  -4.780  37.625  1.00  0.00     0.012 C 
BRANCH  12  13
HETATM   13  C19 UNK     1      21.392  -5.981  38.405  1.00  0.00    -0.036 A 
HETATM   14  C21 UNK     1      22.707  -6.179  38.793  1.00  0.00     0.011 A 
HETATM   15  C23 UNK     1      23.037  -7.315  39.532  1.00  0.00     0.001 A 
HETATM   16  C25 UNK     1      22.048  -8.238  39.872  1.00  0.00     0.000 A 
HETATM   17  C24 UNK     1      20.728  -8.023  39.474  1.00  0.00     0.001 A 
HETATM   18  C22 UNK     1      20.397  -6.887  38.736  1.00  0.00     0.011 A 
ENDBRANCH  12  13
ENDBRANCH   8  11
ENDBRANCH   2   5
BRANCH   3  19
HETATM   19  C8  UNK     1      18.177   2.496  33.638  1.00  0.00     0.182 C 
BRANCH  19  20
HETATM   20  S1  UNK     1      18.475   4.189  34.213  1.00  0.00    -0.118 SA
BRANCH  20  21
HETATM   21  C3  UNK     1      18.372   5.106  32.670  1.00  0.00     0.030 A 
HETATM   22  C1  UNK     1      17.499   6.181  32.525  1.00  0.00     0.083 A 
HETATM   23  N2  UNK     1      16.710   6.552  33.550  1.00  0.00    -0.259 NA
HETATM   24  C2  UNK     1      17.473   6.853  31.285  1.00  0.00    -0.006 A 
HETATM   25  C18 UNK     1      15.876   7.602  33.368  1.00  0.00     0.117 A 
HETATM   26  C17 UNK     1      15.781   8.320  32.194  1.00  0.00     0.020 A 
HETATM   27  C9  UNK     1      16.595   7.935  31.139  1.00  0.00     0.015 A 
HETATM   28  C6  UNK     1      18.311   6.438  30.236  1.00  0.00     0.014 A 
HETATM   29  C10 UNK     1      19.175   5.361  30.409  1.00  0.00     0.002 A 
HETATM   30  C7  UNK     1      19.205   4.694  31.627  1.00  0.00     0.021 A 
ENDBRANCH  20  21
ENDBRANCH  19  20
ENDBRANCH   3  19
TORSDOF 6
ENDMDL
MODEL 10
REMARK VINA RESULT:      -8.7      9.641     12.746
REMARK  6 active torsions:
REMARK  status: ('A' for Active; 'I' for Inactive)
REMARK    1  A    between atoms: C3_7  and  S1_1 
REMARK    2  A    between atoms: C8_12  and  S1_1 
REMARK       I    between atoms: C15_19  and  N1_3 
REMARK    3  A    between atoms: C4_8  and  N1_3 
REMARK    4  A    between atoms: C16_20  and  C5_9 
REMARK    5  A    between atoms: C15_19  and  C8_12 
REMARK    6  A    between atoms: C19_23  and  C20_24 
ROOT
HETATM    1  O1  UNK     1      25.208 -12.490  35.388  1.00  0.00    -0.272 OA
HETATM    2  N1  UNK     1      24.813 -10.539  36.636  1.00  0.00    -0.327 N 
HETATM    3  C15 UNK     1      24.458 -11.689  35.940  1.00  0.00     0.231 C 
HETATM    4  H9  UNK     1      24.064  -9.975  37.031  1.00  0.00     0.169 HD
ENDROOT
BRANCH   2   5
HETATM    5  C4  UNK     1      26.118 -10.046  36.877  1.00  0.00     0.034 A 
HETATM    6  C11 UNK     1      26.866  -9.563  35.816  1.00  0.00     0.030 A 
HETATM    7  C13 UNK     1      28.153  -9.078  36.054  1.00  0.00     0.013 A 
HETATM    8  C5  UNK     1      28.672  -9.084  37.348  1.00  0.00    -0.036 A 
HETATM    9  C14 UNK     1      27.905  -9.574  38.405  1.00  0.00     0.013 A 
HETATM   10  C12 UNK     1      26.619 -10.058  38.169  1.00  0.00     0.030 A 
BRANCH   8  11
HETATM   11  C16 UNK     1      30.013  -8.578  37.595  1.00  0.00     0.012 C 
HETATM   12  C20 UNK     1      30.670  -7.693  36.809  1.00  0.00     0.012 C 
BRANCH  12  13
HETATM   13  C19 UNK     1      32.022  -7.166  37.069  1.00  0.00    -0.036 A 
HETATM   14  C21 UNK     1      32.180  -6.113  37.956  1.00  0.00     0.011 A 
HETATM   15  C23 UNK     1      33.459  -5.614  38.203  1.00  0.00     0.001 A 
HETATM   16  C25 UNK     1      34.562  -6.174  37.559  1.00  0.00     0.000 A 
HETATM   17  C24 UNK     1      34.386  -7.234  36.669  1.00  0.00     0.001 A 
HETATM   18  C22 UNK     1      33.108  -7.734  36.423  1.00  0.00     0.011 A 
ENDBRANCH  12  13
ENDBRANCH   8  11
ENDBRANCH   2   5
BRANCH   3  19
HETATM   19  C8  UNK     1      22.958 -11.883  35.895  1.00  0.00     0.182 C 
BRANCH  19  20
HETATM   20  S1  UNK     1      22.182 -10.319  35.408  1.00  0.00    -0.118 SA
BRANCH  20  21
HETATM   21  C3  UNK     1      21.272  -9.900  36.900  1.00  0.00     0.030 A 
HETATM   22  C1  UNK     1      21.774  -8.979  37.818  1.00  0.00     0.083 A 
HETATM   23  N2  UNK     1      22.960  -8.384  37.597  1.00  0.00    -0.259 NA
HETATM   24  C2  UNK     1      21.003  -8.700  38.966  1.00  0.00    -0.006 A 
HETATM   25  C18 UNK     1      23.411  -7.497  38.513  1.00  0.00     0.117 A 
HETATM   26  C17 UNK     1      22.729  -7.159  39.664  1.00  0.00     0.020 A 
HETATM   27  C9  UNK     1      21.506  -7.774  39.889  1.00  0.00     0.015 A 
HETATM   28  C6  UNK     1      19.767  -9.340  39.164  1.00  0.00     0.014 A 
HETATM   29  C10 UNK     1      19.290 -10.255  38.230  1.00  0.00     0.002 A 
HETATM   30  C7  UNK     1      20.044 -10.534  37.097  1.00  0.00     0.021 A 
ENDBRANCH  20  21
ENDBRANCH  19  20
ENDBRANCH   3  19
TORSDOF 6
ENDMDL
