MODEL 1
REMARK VINA RESULT:     -10.2      0.000      0.000
REMARK  8 active torsions:
REMARK  status: ('A' for Active; 'I' for Inactive)
REMARK    1  A    between atoms: C8_21  and  O2_3 
REMARK    2  A    between atoms: C1_14  and  N1_8 
REMARK       I    between atoms: C3_16  and  N3_10 
REMARK    3  A    between atoms: N3_10  and  N5_12 
REMARK    4  A    between atoms: C10_23  and  N4_11 
REMARK    5  A    between atoms: C16_29  and  N4_11 
REMARK    6  A    between atoms: C16_29  and  N5_12 
REMARK    7  A    between atoms: C6_19  and  N6_13 
REMARK    8  A    between atoms: C1_14  and  C3_16 
ROOT
HETATM    1  N5  UNK     1      19.899  -2.371  35.067  1.00  0.00    -0.273 N 
HETATM    2  H15 UNK     1      20.824  -2.787  35.127  1.00  0.00     0.189 HD
ENDROOT
BRANCH   1   3
HETATM    3  C16 UNK     1      19.008  -2.597  36.092  1.00  0.00     0.191 C 
HETATM    4  S1  UNK     1      18.117  -1.392  36.869  1.00  0.00    -0.039 SA
BRANCH   3   5
HETATM    5  N4  UNK     1      18.795  -3.924  36.465  1.00  0.00    -0.332 N 
HETATM    6  H11 UNK     1      17.816  -4.166  36.601  1.00  0.00     0.168 HD
BRANCH   5   7
HETATM    7  C10 UNK     1      19.679  -4.982  36.684  1.00  0.00     0.037 A 
HETATM    8  C11 UNK     1      19.775  -6.014  35.756  1.00  0.00     0.067 A 
HETATM    9  C7  UNK     1      20.665  -7.062  35.995  1.00  0.00     0.092 A 
HETATM   10  C5  UNK     1      21.468  -7.114  37.136  1.00  0.00     0.004 A 
HETATM   11  O1  UNK     1      20.719  -8.078  35.020  1.00  0.00    -0.275 OA
HETATM   12  C12 UNK     1      21.356  -6.064  38.058  1.00  0.00     0.017 A 
HETATM   13  C9  UNK     1      22.378  -8.255  37.305  1.00  0.00    -0.043 A 
HETATM   14  C13 UNK     1      20.468  -5.006  37.833  1.00  0.00     0.030 A 
HETATM   15  C14 UNK     1      22.407  -9.206  36.361  1.00  0.00     0.090 A 
HETATM   16  C15 UNK     1      23.253  -8.340  38.521  1.00  0.00     0.049 C 
HETATM   17  C17 UNK     1      21.567  -9.166  35.153  1.00  0.00     0.288 A 
HETATM   18  O4  UNK     1      21.622 -10.055  34.311  1.00  0.00    -0.260 OA
ENDBRANCH   5   7
ENDBRANCH   3   5
ENDBRANCH   1   3
BRANCH   1  19
HETATM   19  N3  UNK     1      19.474  -2.165  33.774  1.00  0.00    -0.266 N 
HETATM   20  C3  UNK     1      20.417  -2.047  32.769  1.00  0.00     0.260 C 
HETATM   21  O3  UNK     1      21.633  -2.113  32.931  1.00  0.00    -0.269 OA
HETATM   22  H8  UNK     1      18.470  -2.126  33.621  1.00  0.00     0.190 HD
BRANCH  20  23
HETATM   23  C1  UNK     1      19.775  -1.809  31.405  1.00  0.00     0.199 C 
HETATM   24  C2  UNK     1      20.695  -2.217  30.253  1.00  0.00     0.044 C 
BRANCH  23  25
HETATM   25  N1  UNK     1      19.329  -0.414  31.266  1.00  0.00    -0.262 N 
HETATM   26  C4  UNK     1      19.365   0.308  30.129  1.00  0.00     0.154 A 
HETATM   27  C6  UNK     1      18.857   1.536  30.475  1.00  0.00     0.174 A 
HETATM   28  C8  UNK     1      18.555   1.420  31.844  1.00  0.00     0.218 A 
HETATM   29  N2  UNK     1      18.847   0.213  32.336  1.00  0.00    -0.144 NA
BRANCH  27  30
HETATM   30  N6  UNK     1      18.696   2.631  29.610  1.00  0.00    -0.110 N 
HETATM   31  O5  UNK     1      18.192   2.448  28.469  1.00  0.00    -0.532 OA
HETATM   32  O6  UNK     1      19.059   3.777  29.989  1.00  0.00    -0.532 OA
ENDBRANCH  27  30
BRANCH  28  33
HETATM   33  O2  UNK     1      18.033   2.338  32.670  1.00  0.00    -0.336 OA
HETATM   34  C18 UNK     1      18.035   2.035  34.070  1.00  0.00     0.212 C 
ENDBRANCH  28  33
ENDBRANCH  23  25
ENDBRANCH  20  23
ENDBRANCH   1  19
TORSDOF 8
ENDMDL
MODEL 2
REMARK VINA RESULT:      -9.8      2.212      3.290
REMARK  8 active torsions:
REMARK  status: ('A' for Active; 'I' for Inactive)
REMARK    1  A    between atoms: C8_21  and  O2_3 
REMARK    2  A    between atoms: C1_14  and  N1_8 
REMARK       I    between atoms: C3_16  and  N3_10 
REMARK    3  A    between atoms: N3_10  and  N5_12 
REMARK    4  A    between atoms: C10_23  and  N4_11 
REMARK    5  A    between atoms: C16_29  and  N4_11 
REMARK    6  A    between atoms: C16_29  and  N5_12 
REMARK    7  A    between atoms: C6_19  and  N6_13 
REMARK    8  A    between atoms: C1_14  and  C3_16 
ROOT
HETATM    1  N5  UNK     1      18.566  -2.615  37.196  1.00  0.00    -0.273 N 
HETATM    2  H15 UNK     1      18.714  -2.038  38.020  1.00  0.00     0.189 HD
ENDROOT
BRANCH   1   3
HETATM    3  C16 UNK     1      19.409  -3.683  36.982  1.00  0.00     0.191 C 
HETATM    4  S1  UNK     1      21.058  -3.689  37.343  1.00  0.00    -0.039 SA
BRANCH   3   5
HETATM    5  N4  UNK     1      18.835  -4.852  36.484  1.00  0.00    -0.332 N 
HETATM    6  H11 UNK     1      18.053  -4.696  35.851  1.00  0.00     0.168 HD
BRANCH   5   7
HETATM    7  C10 UNK     1      19.136  -6.199  36.693  1.00  0.00     0.037 A 
HETATM    8  C11 UNK     1      19.980  -6.869  35.813  1.00  0.00     0.067 A 
HETATM    9  C7  UNK     1      20.269  -8.215  36.040  1.00  0.00     0.092 A 
HETATM   10  C5  UNK     1      19.741  -8.919  37.124  1.00  0.00     0.004 A 
HETATM   11  O1  UNK     1      21.129  -8.841  35.116  1.00  0.00    -0.275 OA
HETATM   12  C12 UNK     1      18.894  -8.225  37.999  1.00  0.00     0.017 A 
HETATM   13  C9  UNK     1      20.100 -10.334  37.287  1.00  0.00    -0.043 A 
HETATM   14  C13 UNK     1      18.594  -6.874  37.784  1.00  0.00     0.030 A 
HETATM   15  C14 UNK     1      20.920 -10.902  36.392  1.00  0.00     0.090 A 
HETATM   16  C15 UNK     1      19.548 -11.118  38.442  1.00  0.00     0.049 C 
HETATM   17  C17 UNK     1      21.484 -10.174  35.244  1.00  0.00     0.288 A 
HETATM   18  O4  UNK     1      22.232 -10.728  34.445  1.00  0.00    -0.260 OA
ENDBRANCH   5   7
ENDBRANCH   3   5
ENDBRANCH   1   3
BRANCH   1  19
HETATM   19  N3  UNK     1      17.979  -1.938  36.151  1.00  0.00    -0.266 N 
HETATM   20  C3  UNK     1      18.653  -0.873  35.579  1.00  0.00     0.260 C 
HETATM   21  O3  UNK     1      19.758  -0.467  35.929  1.00  0.00    -0.269 OA
HETATM   22  H8  UNK     1      17.073  -2.273  35.838  1.00  0.00     0.190 HD
BRANCH  20  23
HETATM   23  C1  UNK     1      17.855  -0.232  34.447  1.00  0.00     0.199 C 
HETATM   24  C2  UNK     1      16.422  -0.764  34.377  1.00  0.00     0.044 C 
BRANCH  23  25
HETATM   25  N1  UNK     1      18.547  -0.386  33.158  1.00  0.00    -0.262 N 
HETATM   26  C4  UNK     1      19.033  -1.542  32.666  1.00  0.00     0.154 A 
HETATM   27  C6  UNK     1      19.588  -1.205  31.456  1.00  0.00     0.174 A 
HETATM   28  C8  UNK     1      19.369   0.180  31.342  1.00  0.00     0.218 A 
HETATM   29  N2  UNK     1      18.725   0.689  32.395  1.00  0.00    -0.144 NA
BRANCH  27  30
HETATM   30  N6  UNK     1      20.221  -2.090  30.568  1.00  0.00    -0.110 N 
HETATM   31  O5  UNK     1      20.091  -1.917  29.327  1.00  0.00    -0.532 OA
HETATM   32  O6  UNK     1      20.906  -3.043  31.028  1.00  0.00    -0.532 OA
ENDBRANCH  27  30
BRANCH  28  33
HETATM   33  O2  UNK     1      19.716   1.006  30.344  1.00  0.00    -0.336 OA
HETATM   34  C18 UNK     1      18.660   1.533  29.533  1.00  0.00     0.212 C 
ENDBRANCH  28  33
ENDBRANCH  23  25
ENDBRANCH  20  23
ENDBRANCH   1  19
TORSDOF 8
ENDMDL
MODEL 3
REMARK VINA RESULT:      -9.8      5.271     12.201
REMARK  8 active torsions:
REMARK  status: ('A' for Active; 'I' for Inactive)
REMARK    1  A    between atoms: C8_21  and  O2_3 
REMARK    2  A    between atoms: C1_14  and  N1_8 
REMARK       I    between atoms: C3_16  and  N3_10 
REMARK    3  A    between atoms: N3_10  and  N5_12 
REMARK    4  A    between atoms: C10_23  and  N4_11 
REMARK    5  A    between atoms: C16_29  and  N4_11 
REMARK    6  A    between atoms: C16_29  and  N5_12 
REMARK    7  A    between atoms: C6_19  and  N6_13 
REMARK    8  A    between atoms: C1_14  and  C3_16 
ROOT
HETATM    1  N5  UNK     1      18.295   3.727  30.848  1.00  0.00    -0.273 N 
HETATM    2  H15 UNK     1      17.377   3.708  30.414  1.00  0.00     0.189 HD
ENDROOT
BRANCH   1   3
HETATM    3  C16 UNK     1      18.859   4.949  31.140  1.00  0.00     0.191 C 
HETATM    4  S1  UNK     1      19.827   5.835  30.077  1.00  0.00    -0.039 SA
BRANCH   3   5
HETATM    5  N4  UNK     1      18.556   5.506  32.381  1.00  0.00    -0.332 N 
HETATM    6  H11 UNK     1      18.948   4.999  33.173  1.00  0.00     0.168 HD
BRANCH   5   7
HETATM    7  C10 UNK     1      17.815   6.633  32.739  1.00  0.00     0.037 A 
HETATM    8  C11 UNK     1      18.462   7.824  33.053  1.00  0.00     0.067 A 
HETATM    9  C7  UNK     1      17.702   8.938  33.408  1.00  0.00     0.092 A 
HETATM   10  C5  UNK     1      16.307   8.905  33.460  1.00  0.00     0.004 A 
HETATM   11  O1  UNK     1      18.413  10.116  33.715  1.00  0.00    -0.275 OA
HETATM   12  C12 UNK     1      15.674   7.696  33.139  1.00  0.00     0.017 A 
HETATM   13  C9  UNK     1      15.588  10.127  33.842  1.00  0.00    -0.043 A 
HETATM   14  C13 UNK     1      16.423   6.569  32.782  1.00  0.00     0.030 A 
HETATM   15  C14 UNK     1      16.291  11.232  34.129  1.00  0.00     0.090 A 
HETATM   16  C15 UNK     1      14.088  10.123  33.907  1.00  0.00     0.049 C 
HETATM   17  C17 UNK     1      17.761  11.283  34.079  1.00  0.00     0.288 A 
HETATM   18  O4  UNK     1      18.370  12.313  34.348  1.00  0.00    -0.260 OA
ENDBRANCH   5   7
ENDBRANCH   3   5
ENDBRANCH   1   3
BRANCH   1  19
HETATM   19  N3  UNK     1      19.068   2.630  30.543  1.00  0.00    -0.266 N 
HETATM   20  C3  UNK     1      18.599   1.715  29.618  1.00  0.00     0.260 C 
HETATM   21  O3  UNK     1      17.524   1.796  29.027  1.00  0.00    -0.269 OA
HETATM   22  H8  UNK     1      19.967   2.557  31.010  1.00  0.00     0.190 HD
BRANCH  20  23
HETATM   23  C1  UNK     1      19.572   0.558  29.411  1.00  0.00     0.199 C 
HETATM   24  C2  UNK     1      19.209  -0.292  28.192  1.00  0.00     0.044 C 
BRANCH  23  25
HETATM   25  N1  UNK     1      19.681  -0.266  30.625  1.00  0.00    -0.262 N 
HETATM   26  C4  UNK     1      20.639  -1.183  30.863  1.00  0.00     0.154 A 
HETATM   27  C6  UNK     1      20.338  -1.693  32.102  1.00  0.00     0.174 A 
HETATM   28  C8  UNK     1      19.179  -0.999  32.498  1.00  0.00     0.218 A 
HETATM   29  N2  UNK     1      18.771  -0.115  31.584  1.00  0.00    -0.144 NA
BRANCH  27  30
HETATM   30  N6  UNK     1      21.064  -2.687  32.779  1.00  0.00    -0.110 N 
HETATM   31  O5  UNK     1      21.301  -3.782  32.201  1.00  0.00    -0.532 OA
HETATM   32  O6  UNK     1      21.465  -2.468  33.954  1.00  0.00    -0.532 OA
ENDBRANCH  27  30
BRANCH  28  33
HETATM   33  O2  UNK     1      18.475  -1.119  33.632  1.00  0.00    -0.336 OA
HETATM   34  C18 UNK     1      18.075   0.092  34.285  1.00  0.00     0.212 C 
ENDBRANCH  28  33
ENDBRANCH  23  25
ENDBRANCH  20  23
ENDBRANCH   1  19
TORSDOF 8
ENDMDL
MODEL 4
REMARK VINA RESULT:      -9.7      2.320      3.423
REMARK  8 active torsions:
REMARK  status: ('A' for Active; 'I' for Inactive)
REMARK    1  A    between atoms: C8_21  and  O2_3 
REMARK    2  A    between atoms: C1_14  and  N1_8 
REMARK       I    between atoms: C3_16  and  N3_10 
REMARK    3  A    between atoms: N3_10  and  N5_12 
REMARK    4  A    between atoms: C10_23  and  N4_11 
REMARK    5  A    between atoms: C16_29  and  N4_11 
REMARK    6  A    between atoms: C16_29  and  N5_12 
REMARK    7  A    between atoms: C6_19  and  N6_13 
REMARK    8  A    between atoms: C1_14  and  C3_16 
ROOT
HETATM    1  N5  UNK     1      18.049  -2.468  36.052  1.00  0.00    -0.273 N 
HETATM    2  H15 UNK     1      17.134  -2.316  36.468  1.00  0.00     0.189 HD
ENDROOT
BRANCH   1   3
HETATM    3  C16 UNK     1      18.846  -3.468  36.563  1.00  0.00     0.191 C 
HETATM    4  S1  UNK     1      20.359  -3.220  37.270  1.00  0.00    -0.039 SA
BRANCH   3   5
HETATM    5  N4  UNK     1      18.330  -4.764  36.538  1.00  0.00    -0.332 N 
HETATM    6  H11 UNK     1      17.317  -4.810  36.628  1.00  0.00     0.168 HD
BRANCH   5   7
HETATM    7  C10 UNK     1      18.947  -6.009  36.410  1.00  0.00     0.037 A 
HETATM    8  C11 UNK     1      18.650  -7.030  37.307  1.00  0.00     0.067 A 
HETATM    9  C7  UNK     1      19.277  -8.267  37.160  1.00  0.00     0.092 A 
HETATM   10  C5  UNK     1      20.198  -8.521  36.142  1.00  0.00     0.004 A 
HETATM   11  O1  UNK     1      18.937  -9.263  38.098  1.00  0.00    -0.275 OA
HETATM   12  C12 UNK     1      20.483  -7.479  35.249  1.00  0.00     0.017 A 
HETATM   13  C9  UNK     1      20.810  -9.855  36.063  1.00  0.00    -0.043 A 
HETATM   14  C13 UNK     1      19.862  -6.232  35.383  1.00  0.00     0.030 A 
HETATM   15  C14 UNK     1      20.466 -10.781  36.968  1.00  0.00     0.090 A 
HETATM   16  C15 UNK     1      21.804 -10.159  34.979  1.00  0.00     0.049 C 
HETATM   17  C17 UNK     1      19.498 -10.529  38.048  1.00  0.00     0.288 A 
HETATM   18  O4  UNK     1      19.208 -11.402  38.858  1.00  0.00    -0.260 OA
ENDBRANCH   5   7
ENDBRANCH   3   5
ENDBRANCH   1   3
BRANCH   1  19
HETATM   19  N3  UNK     1      18.588  -1.336  35.484  1.00  0.00    -0.266 N 
HETATM   20  C3  UNK     1      17.873  -0.674  34.501  1.00  0.00     0.260 C 
HETATM   21  O3  UNK     1      16.771  -1.015  34.079  1.00  0.00    -0.269 OA
HETATM   22  H8  UNK     1      19.490  -1.030  35.836  1.00  0.00     0.190 HD
BRANCH  20  23
HETATM   23  C1  UNK     1      18.621   0.548  33.975  1.00  0.00     0.199 C 
HETATM   24  C2  UNK     1      17.837   1.843  34.192  1.00  0.00     0.044 C 
BRANCH  23  25
HETATM   25  N1  UNK     1      18.987   0.375  32.560  1.00  0.00    -0.262 N 
HETATM   26  C4  UNK     1      19.571  -0.719  32.033  1.00  0.00     0.154 A 
HETATM   27  C6  UNK     1      19.721  -0.430  30.699  1.00  0.00     0.174 A 
HETATM   28  C8  UNK     1      19.189   0.865  30.556  1.00  0.00     0.218 A 
HETATM   29  N2  UNK     1      18.734   1.365  31.708  1.00  0.00    -0.144 NA
BRANCH  27  30
HETATM   30  N6  UNK     1      20.287  -1.279  29.734  1.00  0.00    -0.110 N 
HETATM   31  O5  UNK     1      20.013  -2.509  29.756  1.00  0.00    -0.532 OA
HETATM   32  O6  UNK     1      21.060  -0.796  28.863  1.00  0.00    -0.532 OA
ENDBRANCH  27  30
BRANCH  28  33
HETATM   33  O2  UNK     1      19.091   1.616  29.450  1.00  0.00    -0.336 OA
HETATM   34  C18 UNK     1      17.871   1.527  28.704  1.00  0.00     0.212 C 
ENDBRANCH  28  33
ENDBRANCH  23  25
ENDBRANCH  20  23
ENDBRANCH   1  19
TORSDOF 8
ENDMDL
MODEL 5
REMARK VINA RESULT:      -9.7      4.197     11.310
REMARK  8 active torsions:
REMARK  status: ('A' for Active; 'I' for Inactive)
REMARK    1  A    between atoms: C8_21  and  O2_3 
REMARK    2  A    between atoms: C1_14  and  N1_8 
REMARK       I    between atoms: C3_16  and  N3_10 
REMARK    3  A    between atoms: N3_10  and  N5_12 
REMARK    4  A    between atoms: C10_23  and  N4_11 
REMARK    5  A    between atoms: C16_29  and  N4_11 
REMARK    6  A    between atoms: C16_29  and  N5_12 
REMARK    7  A    between atoms: C6_19  and  N6_13 
REMARK    8  A    between atoms: C1_14  and  C3_16 
ROOT
HETATM    1  N5  UNK     1      17.630   2.216  32.493  1.00  0.00    -0.273 N 
HETATM    2  H15 UNK     1      16.672   1.941  32.292  1.00  0.00     0.189 HD
ENDROOT
BRANCH   1   3
HETATM    3  C16 UNK     1      18.478   2.461  31.436  1.00  0.00     0.191 C 
HETATM    4  S1  UNK     1      19.271   1.264  30.548  1.00  0.00    -0.039 SA
BRANCH   3   5
HETATM    5  N4  UNK     1      18.640   3.790  31.049  1.00  0.00    -0.332 N 
HETATM    6  H11 UNK     1      18.710   3.925  30.042  1.00  0.00     0.168 HD
BRANCH   5   7
HETATM    7  C10 UNK     1      18.722   4.971  31.788  1.00  0.00     0.037 A 
HETATM    8  C11 UNK     1      17.563   5.603  32.224  1.00  0.00     0.067 A 
HETATM    9  C7  UNK     1      17.668   6.783  32.962  1.00  0.00     0.092 A 
HETATM   10  C5  UNK     1      18.900   7.356  33.282  1.00  0.00     0.004 A 
HETATM   11  O1  UNK     1      16.459   7.377  33.377  1.00  0.00    -0.275 OA
HETATM   12  C12 UNK     1      20.056   6.703  32.833  1.00  0.00     0.017 A 
HETATM   13  C9  UNK     1      18.915   8.599  34.064  1.00  0.00    -0.043 A 
HETATM   14  C13 UNK     1      19.967   5.519  32.092  1.00  0.00     0.030 A 
HETATM   15  C14 UNK     1      17.750   9.142  34.444  1.00  0.00     0.090 A 
HETATM   16  C15 UNK     1      20.225   9.241  34.423  1.00  0.00     0.049 C 
HETATM   17  C17 UNK     1      16.443   8.550  34.115  1.00  0.00     0.288 A 
HETATM   18  O4  UNK     1      15.398   9.075  34.481  1.00  0.00    -0.260 OA
ENDBRANCH   5   7
ENDBRANCH   3   5
ENDBRANCH   1   3
BRANCH   1  19
HETATM   19  N3  UNK     1      18.096   1.739  33.697  1.00  0.00    -0.266 N 
HETATM   20  C3  UNK     1      17.267   0.945  34.470  1.00  0.00     0.260 C 
HETATM   21  O3  UNK     1      16.121   0.618  34.169  1.00  0.00    -0.269 OA
HETATM   22  H8  UNK     1      19.047   1.985  33.951  1.00  0.00     0.190 HD
BRANCH  20  23
HETATM   23  C1  UNK     1      17.936   0.517  35.773  1.00  0.00     0.199 C 
HETATM   24  C2  UNK     1      18.760   1.644  36.397  1.00  0.00     0.044 C 
BRANCH  23  25
HETATM   25  N1  UNK     1      18.747  -0.695  35.578  1.00  0.00    -0.262 N 
HETATM   26  C4  UNK     1      18.899  -1.686  36.478  1.00  0.00     0.154 A 
HETATM   27  C6  UNK     1      19.731  -2.592  35.867  1.00  0.00     0.174 A 
HETATM   28  C8  UNK     1      20.005  -2.026  34.608  1.00  0.00     0.218 A 
HETATM   29  N2  UNK     1      19.397  -0.851  34.427  1.00  0.00    -0.144 NA
BRANCH  27  30
HETATM   30  N6  UNK     1      20.177  -3.802  36.424  1.00  0.00    -0.110 N 
HETATM   31  O5  UNK     1      20.598  -3.818  37.611  1.00  0.00    -0.532 OA
HETATM   32  O6  UNK     1      20.149  -4.851  35.725  1.00  0.00    -0.532 OA
ENDBRANCH  27  30
BRANCH  28  33
HETATM   33  O2  UNK     1      20.770  -2.510  33.618  1.00  0.00    -0.336 OA
HETATM   34  C18 UNK     1      20.395  -2.173  32.278  1.00  0.00     0.212 C 
ENDBRANCH  28  33
ENDBRANCH  23  25
ENDBRANCH  20  23
ENDBRANCH   1  19
TORSDOF 8
ENDMDL
MODEL 6
REMARK VINA RESULT:      -9.4      2.343      3.531
REMARK  8 active torsions:
REMARK  status: ('A' for Active; 'I' for Inactive)
REMARK    1  A    between atoms: C8_21  and  O2_3 
REMARK    2  A    between atoms: C1_14  and  N1_8 
REMARK       I    between atoms: C3_16  and  N3_10 
REMARK    3  A    between atoms: N3_10  and  N5_12 
REMARK    4  A    between atoms: C10_23  and  N4_11 
REMARK    5  A    between atoms: C16_29  and  N4_11 
REMARK    6  A    between atoms: C16_29  and  N5_12 
REMARK    7  A    between atoms: C6_19  and  N6_13 
REMARK    8  A    between atoms: C1_14  and  C3_16 
ROOT
HETATM    1  N5  UNK     1      18.226  -2.720  36.666  1.00  0.00    -0.273 N 
HETATM    2  H15 UNK     1      17.396  -2.686  37.252  1.00  0.00     0.189 HD
ENDROOT
BRANCH   1   3
HETATM    3  C16 UNK     1      19.063  -3.809  36.774  1.00  0.00     0.191 C 
HETATM    4  S1  UNK     1      20.625  -3.755  37.411  1.00  0.00    -0.039 SA
BRANCH   3   5
HETATM    5  N4  UNK     1      18.550  -5.044  36.380  1.00  0.00    -0.332 N 
HETATM    6  H11 UNK     1      17.578  -5.014  36.079  1.00  0.00     0.168 HD
BRANCH   5   7
HETATM    7  C10 UNK     1      19.125  -6.314  36.319  1.00  0.00     0.037 A 
HETATM    8  C11 UNK     1      18.789  -7.278  37.264  1.00  0.00     0.067 A 
HETATM    9  C7  UNK     1      19.375  -8.541  37.184  1.00  0.00     0.092 A 
HETATM   10  C5  UNK     1      20.292  -8.878  36.186  1.00  0.00     0.004 A 
HETATM   11  O1  UNK     1      18.996  -9.476  38.169  1.00  0.00    -0.275 OA
HETATM   12  C12 UNK     1      20.616  -7.892  35.244  1.00  0.00     0.017 A 
HETATM   13  C9  UNK     1      20.859 -10.233  36.179  1.00  0.00    -0.043 A 
HETATM   14  C13 UNK     1      20.037  -6.620  35.310  1.00  0.00     0.030 A 
HETATM   15  C14 UNK     1      20.480 -11.100  37.127  1.00  0.00     0.090 A 
HETATM   16  C15 UNK     1      21.847 -10.624  35.119  1.00  0.00     0.049 C 
HETATM   17  C17 UNK     1      19.515 -10.762  38.186  1.00  0.00     0.288 A 
HETATM   18  O4  UNK     1      19.191 -11.582  39.038  1.00  0.00    -0.260 OA
ENDBRANCH   5   7
ENDBRANCH   3   5
ENDBRANCH   1   3
BRANCH   1  19
HETATM   19  N3  UNK     1      18.701  -1.477  36.315  1.00  0.00    -0.266 N 
HETATM   20  C3  UNK     1      17.802  -0.504  35.917  1.00  0.00     0.260 C 
HETATM   21  O3  UNK     1      16.584  -0.654  35.847  1.00  0.00    -0.269 OA
HETATM   22  H8  UNK     1      19.704  -1.332  36.385  1.00  0.00     0.190 HD
BRANCH  20  23
HETATM   23  C1  UNK     1      18.498   0.804  35.552  1.00  0.00     0.199 C 
HETATM   24  C2  UNK     1      17.855   2.011  36.238  1.00  0.00     0.044 C 
BRANCH  23  25
HETATM   25  N1  UNK     1      18.555   0.984  34.093  1.00  0.00    -0.262 N 
HETATM   26  C4  UNK     1      18.203   2.103  33.430  1.00  0.00     0.154 A 
HETATM   27  C6  UNK     1      18.420   1.811  32.106  1.00  0.00     0.174 A 
HETATM   28  C8  UNK     1      18.901   0.488  32.111  1.00  0.00     0.218 A 
HETATM   29  N2  UNK     1      18.985  -0.025  33.341  1.00  0.00    -0.144 NA
BRANCH  27  30
HETATM   30  N6  UNK     1      18.195   2.680  31.026  1.00  0.00    -0.110 N 
HETATM   31  O5  UNK     1      18.743   3.815  31.021  1.00  0.00    -0.532 OA
HETATM   32  O6  UNK     1      17.448   2.310  30.080  1.00  0.00    -0.532 OA
ENDBRANCH  27  30
BRANCH  28  33
HETATM   33  O2  UNK     1      19.266  -0.277  31.072  1.00  0.00    -0.336 OA
HETATM   34  C18 UNK     1      20.581  -0.843  31.107  1.00  0.00     0.212 C 
ENDBRANCH  28  33
ENDBRANCH  23  25
ENDBRANCH  20  23
ENDBRANCH   1  19
TORSDOF 8
ENDMDL
MODEL 7
REMARK VINA RESULT:      -9.3      5.551     12.085
REMARK  8 active torsions:
REMARK  status: ('A' for Active; 'I' for Inactive)
REMARK    1  A    between atoms: C8_21  and  O2_3 
REMARK    2  A    between atoms: C1_14  and  N1_8 
REMARK       I    between atoms: C3_16  and  N3_10 
REMARK    3  A    between atoms: N3_10  and  N5_12 
REMARK    4  A    between atoms: C10_23  and  N4_11 
REMARK    5  A    between atoms: C16_29  and  N4_11 
REMARK    6  A    between atoms: C16_29  and  N5_12 
REMARK    7  A    between atoms: C6_19  and  N6_13 
REMARK    8  A    between atoms: C1_14  and  C3_16 
ROOT
HETATM    1  N5  UNK     1      18.231   3.735  34.599  1.00  0.00    -0.273 N 
HETATM    2  H15 UNK     1      17.803   4.016  35.477  1.00  0.00     0.189 HD
ENDROOT
BRANCH   1   3
HETATM    3  C16 UNK     1      18.549   4.709  33.679  1.00  0.00     0.191 C 
HETATM    4  S1  UNK     1      18.244   4.597  32.023  1.00  0.00    -0.039 SA
BRANCH   3   5
HETATM    5  N4  UNK     1      19.108   5.887  34.172  1.00  0.00    -0.332 N 
HETATM    6  H11 UNK     1      20.016   5.763  34.616  1.00  0.00     0.168 HD
BRANCH   5   7
HETATM    7  C10 UNK     1      18.654   7.207  34.167  1.00  0.00     0.037 A 
HETATM    8  C11 UNK     1      17.290   7.475  34.221  1.00  0.00     0.067 A 
HETATM    9  C7  UNK     1      16.858   8.802  34.216  1.00  0.00     0.092 A 
HETATM   10  C5  UNK     1      17.747   9.876  34.158  1.00  0.00     0.004 A 
HETATM   11  O1  UNK     1      15.465   9.012  34.272  1.00  0.00    -0.275 OA
HETATM   12  C12 UNK     1      19.117   9.584  34.105  1.00  0.00     0.017 A 
HETATM   13  C9  UNK     1      17.202  11.241  34.158  1.00  0.00    -0.043 A 
HETATM   14  C13 UNK     1      19.566   8.259  34.110  1.00  0.00     0.030 A 
HETATM   15  C14 UNK     1      15.874  11.410  34.212  1.00  0.00     0.090 A 
HETATM   16  C15 UNK     1      18.133  12.417  34.097  1.00  0.00     0.049 C 
HETATM   17  C17 UNK     1      14.923  10.287  34.273  1.00  0.00     0.288 A 
HETATM   18  O4  UNK     1      13.714  10.481  34.322  1.00  0.00    -0.260 OA
ENDBRANCH   5   7
ENDBRANCH   3   5
ENDBRANCH   1   3
BRANCH   1  19
HETATM   19  N3  UNK     1      17.895   2.458  34.211  1.00  0.00    -0.266 N 
HETATM   20  C3  UNK     1      18.537   1.385  34.805  1.00  0.00     0.260 C 
HETATM   21  O3  UNK     1      19.402   1.473  35.672  1.00  0.00    -0.269 OA
HETATM   22  H8  UNK     1      17.168   2.368  33.507  1.00  0.00     0.190 HD
BRANCH  20  23
HETATM   23  C1  UNK     1      18.054   0.049  34.248  1.00  0.00     0.199 C 
HETATM   24  C2  UNK     1      18.228  -1.092  35.252  1.00  0.00     0.044 C 
BRANCH  23  25
HETATM   25  N1  UNK     1      18.709  -0.259  32.967  1.00  0.00    -0.262 N 
HETATM   26  C4  UNK     1      19.175  -1.469  32.599  1.00  0.00     0.154 A 
HETATM   27  C6  UNK     1      19.698  -1.278  31.344  1.00  0.00     0.174 A 
HETATM   28  C8  UNK     1      19.483   0.087  31.076  1.00  0.00     0.218 A 
HETATM   29  N2  UNK     1      18.872   0.719  32.081  1.00  0.00    -0.144 NA
BRANCH  27  30
HETATM   30  N6  UNK     1      20.301  -2.265  30.548  1.00  0.00    -0.110 N 
HETATM   31  O5  UNK     1      20.952  -3.192  31.099  1.00  0.00    -0.532 OA
HETATM   32  O6  UNK     1      20.182  -2.206  29.294  1.00  0.00    -0.532 OA
ENDBRANCH  27  30
BRANCH  28  33
HETATM   33  O2  UNK     1      19.807   0.789  29.981  1.00  0.00    -0.336 OA
HETATM   34  C18 UNK     1      18.730   1.345  29.218  1.00  0.00     0.212 C 
ENDBRANCH  28  33
ENDBRANCH  23  25
ENDBRANCH  20  23
ENDBRANCH   1  19
TORSDOF 8
ENDMDL
MODEL 8
REMARK VINA RESULT:      -9.2      6.884     10.748
REMARK  8 active torsions:
REMARK  status: ('A' for Active; 'I' for Inactive)
REMARK    1  A    between atoms: C8_21  and  O2_3 
REMARK    2  A    between atoms: C1_14  and  N1_8 
REMARK       I    between atoms: C3_16  and  N3_10 
REMARK    3  A    between atoms: N3_10  and  N5_12 
REMARK    4  A    between atoms: C10_23  and  N4_11 
REMARK    5  A    between atoms: C16_29  and  N4_11 
REMARK    6  A    between atoms: C16_29  and  N5_12 
REMARK    7  A    between atoms: C6_19  and  N6_13 
REMARK    8  A    between atoms: C1_14  and  C3_16 
ROOT
HETATM    1  N5  UNK     1      25.899  -8.772  39.256  1.00  0.00    -0.273 N 
HETATM    2  H15 UNK     1      26.342  -8.000  39.747  1.00  0.00     0.189 HD
ENDROOT
BRANCH   1   3
HETATM    3  C16 UNK     1      26.627  -9.449  38.303  1.00  0.00     0.191 C 
HETATM    4  S1  UNK     1      26.019  -9.948  36.810  1.00  0.00    -0.039 SA
BRANCH   3   5
HETATM    5  N4  UNK     1      27.974  -9.681  38.581  1.00  0.00    -0.332 N 
HETATM    6  H11 UNK     1      28.158 -10.574  39.034  1.00  0.00     0.168 HD
BRANCH   5   7
HETATM    7  C10 UNK     1      29.117  -8.914  38.351  1.00  0.00     0.037 A 
HETATM    8  C11 UNK     1      29.008  -7.544  38.143  1.00  0.00     0.067 A 
HETATM    9  C7  UNK     1      30.164  -6.796  37.915  1.00  0.00     0.092 A 
HETATM   10  C5  UNK     1      31.434  -7.375  37.889  1.00  0.00     0.004 A 
HETATM   11  O1  UNK     1      29.991  -5.413  37.711  1.00  0.00    -0.275 OA
HETATM   12  C12 UNK     1      31.522  -8.758  38.102  1.00  0.00     0.017 A 
HETATM   13  C9  UNK     1      32.596  -6.511  37.644  1.00  0.00    -0.043 A 
HETATM   14  C13 UNK     1      30.372  -9.521  38.332  1.00  0.00     0.030 A 
HETATM   15  C14 UNK     1      32.401  -5.199  37.452  1.00  0.00     0.090 A 
HETATM   16  C15 UNK     1      33.975  -7.104  37.609  1.00  0.00     0.049 C 
HETATM   17  C17 UNK     1      31.069  -4.573  37.477  1.00  0.00     0.288 A 
HETATM   18  O4  UNK     1      30.929  -3.368  37.298  1.00  0.00    -0.260 OA
ENDBRANCH   5   7
ENDBRANCH   3   5
ENDBRANCH   1   3
BRANCH   1  19
HETATM   19  N3  UNK     1      24.531  -8.654  39.169  1.00  0.00    -0.266 N 
HETATM   20  C3  UNK     1      23.981  -7.413  38.900  1.00  0.00     0.260 C 
HETATM   21  O3  UNK     1      24.622  -6.379  38.726  1.00  0.00    -0.269 OA
HETATM   22  H8  UNK     1      23.988  -9.503  39.293  1.00  0.00     0.190 HD
BRANCH  20  23
HETATM   23  C1  UNK     1      22.456  -7.461  38.852  1.00  0.00     0.199 C 
HETATM   24  C2  UNK     1      21.874  -8.400  39.910  1.00  0.00     0.044 C 
BRANCH  23  25
HETATM   25  N1  UNK     1      21.980  -7.810  37.505  1.00  0.00    -0.262 N 
HETATM   26  C4  UNK     1      21.170  -7.051  36.741  1.00  0.00     0.154 A 
HETATM   27  C6  UNK     1      20.997  -7.772  35.586  1.00  0.00     0.174 A 
HETATM   28  C8  UNK     1      21.754  -8.942  35.783  1.00  0.00     0.218 A 
HETATM   29  N2  UNK     1      22.363  -8.967  36.971  1.00  0.00    -0.144 NA
BRANCH  27  30
HETATM   30  N6  UNK     1      20.225  -7.378  34.480  1.00  0.00    -0.110 N 
HETATM   31  O5  UNK     1      19.009  -7.091  34.647  1.00  0.00    -0.532 OA
HETATM   32  O6  UNK     1      20.761  -7.321  33.341  1.00  0.00    -0.532 OA
ENDBRANCH  27  30
BRANCH  28  33
HETATM   33  O2  UNK     1      21.925  -9.982  34.954  1.00  0.00    -0.336 OA
HETATM   34  C18 UNK     1      22.545 -11.154  35.494  1.00  0.00     0.212 C 
ENDBRANCH  28  33
ENDBRANCH  23  25
ENDBRANCH  20  23
ENDBRANCH   1  19
TORSDOF 8
ENDMDL
MODEL 9
REMARK VINA RESULT:      -9.1      4.560      7.517
REMARK  8 active torsions:
REMARK  status: ('A' for Active; 'I' for Inactive)
REMARK    1  A    between atoms: C8_21  and  O2_3 
REMARK    2  A    between atoms: C1_14  and  N1_8 
REMARK       I    between atoms: C3_16  and  N3_10 
REMARK    3  A    between atoms: N3_10  and  N5_12 
REMARK    4  A    between atoms: C10_23  and  N4_11 
REMARK    5  A    between atoms: C16_29  and  N4_11 
REMARK    6  A    between atoms: C16_29  and  N5_12 
REMARK    7  A    between atoms: C6_19  and  N6_13 
REMARK    8  A    between atoms: C1_14  and  C3_16 
ROOT
HETATM    1  N5  UNK     1      19.336   2.121  31.069  1.00  0.00    -0.273 N 
HETATM    2  H15 UNK     1      20.128   1.902  31.666  1.00  0.00     0.189 HD
ENDROOT
BRANCH   1   3
HETATM    3  C16 UNK     1      18.819   1.125  30.270  1.00  0.00     0.191 C 
HETATM    4  S1  UNK     1      18.174   1.372  28.730  1.00  0.00    -0.039 SA
BRANCH   3   5
HETATM    5  N4  UNK     1      18.892  -0.179  30.756  1.00  0.00    -0.332 N 
HETATM    6  H11 UNK     1      18.832  -0.897  30.036  1.00  0.00     0.168 HD
BRANCH   5   7
HETATM    7  C10 UNK     1      19.035  -0.683  32.050  1.00  0.00     0.037 A 
HETATM    8  C11 UNK     1      18.294  -0.143  33.095  1.00  0.00     0.067 A 
HETATM    9  C7  UNK     1      18.452  -0.663  34.381  1.00  0.00     0.092 A 
HETATM   10  C5  UNK     1      19.331  -1.711  34.659  1.00  0.00     0.004 A 
HETATM   11  O1  UNK     1      17.674  -0.076  35.399  1.00  0.00    -0.275 OA
HETATM   12  C12 UNK     1      20.068  -2.241  33.591  1.00  0.00     0.017 A 
HETATM   13  C9  UNK     1      19.432  -2.196  36.042  1.00  0.00    -0.043 A 
HETATM   14  C13 UNK     1      19.921  -1.731  32.297  1.00  0.00     0.030 A 
HETATM   15  C14 UNK     1      18.680  -1.618  36.989  1.00  0.00     0.090 A 
HETATM   16  C15 UNK     1      20.369  -3.321  36.373  1.00  0.00     0.049 C 
HETATM   17  C17 UNK     1      17.749  -0.512  36.712  1.00  0.00     0.288 A 
HETATM   18  O4  UNK     1      17.077  -0.008  37.605  1.00  0.00    -0.260 OA
ENDBRANCH   5   7
ENDBRANCH   3   5
ENDBRANCH   1   3
BRANCH   1  19
HETATM   19  N3  UNK     1      19.279   3.445  30.699  1.00  0.00    -0.266 N 
HETATM   20  C3  UNK     1      18.495   4.314  31.436  1.00  0.00     0.260 C 
HETATM   21  O3  UNK     1      17.827   4.001  32.420  1.00  0.00    -0.269 OA
HETATM   22  H8  UNK     1      19.839   3.724  29.899  1.00  0.00     0.190 HD
BRANCH  20  23
HETATM   23  C1  UNK     1      18.536   5.735  30.881  1.00  0.00     0.199 C 
HETATM   24  C2  UNK     1      19.762   5.976  29.999  1.00  0.00     0.044 C 
BRANCH  23  25
HETATM   25  N1  UNK     1      18.452   6.728  31.964  1.00  0.00    -0.262 N 
HETATM   26  C4  UNK     1      17.397   7.531  32.207  1.00  0.00     0.154 A 
HETATM   27  C6  UNK     1      17.767   8.280  33.297  1.00  0.00     0.174 A 
HETATM   28  C8  UNK     1      19.063   7.829  33.610  1.00  0.00     0.218 A 
HETATM   29  N2  UNK     1      19.489   6.869  32.785  1.00  0.00    -0.144 NA
BRANCH  27  30
HETATM   30  N6  UNK     1      16.984   9.263  33.922  1.00  0.00    -0.110 N 
HETATM   31  O5  UNK     1      17.097  10.465  33.561  1.00  0.00    -0.532 OA
HETATM   32  O6  UNK     1      16.181   8.926  34.835  1.00  0.00    -0.532 OA
ENDBRANCH  27  30
BRANCH  28  33
HETATM   33  O2  UNK     1      19.879   8.234  34.594  1.00  0.00    -0.336 OA
HETATM   34  C18 UNK     1      20.472   9.531  34.460  1.00  0.00     0.212 C 
ENDBRANCH  28  33
ENDBRANCH  23  25
ENDBRANCH  20  23
ENDBRANCH   1  19
TORSDOF 8
ENDMDL
MODEL 10
REMARK VINA RESULT:      -9.1      2.364      9.991
REMARK  8 active torsions:
REMARK  status: ('A' for Active; 'I' for Inactive)
REMARK    1  A    between atoms: C8_21  and  O2_3 
REMARK    2  A    between atoms: C1_14  and  N1_8 
REMARK       I    between atoms: C3_16  and  N3_10 
REMARK    3  A    between atoms: N3_10  and  N5_12 
REMARK    4  A    between atoms: C10_23  and  N4_11 
REMARK    5  A    between atoms: C16_29  and  N4_11 
REMARK    6  A    between atoms: C16_29  and  N5_12 
REMARK    7  A    between atoms: C6_19  and  N6_13 
REMARK    8  A    between atoms: C1_14  and  C3_16 
ROOT
HETATM    1  N5  UNK     1      18.338  -3.656  36.471  1.00  0.00    -0.273 N 
HETATM    2  H15 UNK     1      17.688  -4.133  35.853  1.00  0.00     0.189 HD
ENDROOT
BRANCH   1   3
HETATM    3  C16 UNK     1      18.848  -2.439  36.076  1.00  0.00     0.191 C 
HETATM    4  S1  UNK     1      18.437  -0.957  36.772  1.00  0.00    -0.039 SA
BRANCH   3   5
HETATM    5  N4  UNK     1      19.811  -2.453  35.068  1.00  0.00    -0.332 N 
HETATM    6  H11 UNK     1      20.650  -2.982  35.301  1.00  0.00     0.168 HD
BRANCH   5   7
HETATM    7  C10 UNK     1      19.837  -1.878  33.797  1.00  0.00     0.037 A 
HETATM    8  C11 UNK     1      19.101  -0.726  33.537  1.00  0.00     0.067 A 
HETATM    9  C7  UNK     1      19.142  -0.167  32.260  1.00  0.00     0.092 A 
HETATM   10  C5  UNK     1      19.898  -0.722  31.226  1.00  0.00     0.004 A 
HETATM   11  O1  UNK     1      18.376   0.998  32.056  1.00  0.00    -0.275 OA
HETATM   12  C12 UNK     1      20.633  -1.881  31.509  1.00  0.00     0.017 A 
HETATM   13  C9  UNK     1      19.883  -0.065  29.912  1.00  0.00    -0.043 A 
HETATM   14  C13 UNK     1      20.602  -2.454  32.785  1.00  0.00     0.030 A 
HETATM   15  C14 UNK     1      19.145   1.042  29.748  1.00  0.00     0.090 A 
HETATM   16  C15 UNK     1      20.685  -0.637  28.780  1.00  0.00     0.049 C 
HETATM   17  C17 UNK     1      18.342   1.639  30.828  1.00  0.00     0.288 A 
HETATM   18  O4  UNK     1      17.680   2.654  30.641  1.00  0.00    -0.260 OA
ENDBRANCH   5   7
ENDBRANCH   3   5
ENDBRANCH   1   3
BRANCH   1  19
HETATM   19  N3  UNK     1      19.053  -4.509  37.280  1.00  0.00    -0.266 N 
HETATM   20  C3  UNK     1      19.930  -5.406  36.698  1.00  0.00     0.260 C 
HETATM   21  O3  UNK     1      20.135  -5.512  35.491  1.00  0.00    -0.269 OA
HETATM   22  H8  UNK     1      18.908  -4.422  38.281  1.00  0.00     0.190 HD
BRANCH  20  23
HETATM   23  C1  UNK     1      20.627  -6.282  37.735  1.00  0.00     0.199 C 
HETATM   24  C2  UNK     1      21.965  -5.692  38.185  1.00  0.00     0.044 C 
BRANCH  23  25
HETATM   25  N1  UNK     1      20.788  -7.659  37.244  1.00  0.00    -0.262 N 
HETATM   26  C4  UNK     1      21.693  -8.062  36.331  1.00  0.00     0.154 A 
HETATM   27  C6  UNK     1      21.472  -9.409  36.186  1.00  0.00     0.174 A 
HETATM   28  C8  UNK     1      20.409  -9.689  37.065  1.00  0.00     0.218 A 
HETATM   29  N2  UNK     1      19.984  -8.606  37.720  1.00  0.00    -0.144 NA
BRANCH  27  30
HETATM   30  N6  UNK     1      22.183 -10.271  35.334  1.00  0.00    -0.110 N 
HETATM   31  O5  UNK     1      23.214 -10.854  35.764  1.00  0.00    -0.532 OA
HETATM   32  O6  UNK     1      21.777 -10.445  34.153  1.00  0.00    -0.532 OA
ENDBRANCH  27  30
BRANCH  28  33
HETATM   33  O2  UNK     1      19.806 -10.862  37.307  1.00  0.00    -0.336 OA
HETATM   34  C18 UNK     1      19.315 -11.083  38.634  1.00  0.00     0.212 C 
ENDBRANCH  28  33
ENDBRANCH  23  25
ENDBRANCH  20  23
ENDBRANCH   1  19
TORSDOF 8
ENDMDL
