MODEL 1
REMARK VINA RESULT:      -9.6      0.000      0.000
REMARK  5 active torsions:
REMARK  status: ('A' for Active; 'I' for Inactive)
REMARK    1  A    between atoms: C17_26  and  O6_6 
REMARK    2  A    between atoms: C10_19  and  N1_8 
REMARK       I    between atoms: C8_17  and  N1_8 
REMARK    3  A    between atoms: C7_16  and  N2_9 
REMARK    4  A    between atoms: C3_12  and  C8_17 
REMARK    5  A    between atoms: C14_23  and  C17_26 
ROOT
HETATM    1  O1  UNK     1      19.192   1.251  28.914  1.00  0.00    -0.274 OA
HETATM    2  O3  UNK     1      18.327   3.361  29.041  1.00  0.00    -0.259 OA
HETATM    3  C1  UNK     1      19.703   0.037  30.959  1.00  0.00     0.001 A 
HETATM    4  C2  UNK     1      19.669   0.098  29.569  1.00  0.00     0.089 A 
HETATM    5  C3  UNK     1      18.785   2.275  31.097  1.00  0.00     0.108 A 
HETATM    6  C4  UNK     1      19.236   1.183  31.725  1.00  0.00     0.037 A 
HETATM    7  C5  UNK     1      20.183  -1.123  31.571  1.00  0.00     0.050 A 
HETATM    8  C6  UNK     1      20.103  -0.963  28.777  1.00  0.00     0.041 A 
HETATM    9  C7  UNK     1      20.620  -2.197  30.790  1.00  0.00     0.103 A 
HETATM   10  C9  UNK     1      18.740   2.362  29.620  1.00  0.00     0.304 A 
HETATM   11  C11 UNK     1      20.580  -2.117  29.396  1.00  0.00     0.039 A 
ENDROOT
BRANCH   5  12
HETATM   12  C8  UNK     1      18.335   3.377  31.956  1.00  0.00     0.262 C 
HETATM   13  O2  UNK     1      17.602   3.143  32.916  1.00  0.00    -0.267 OA
HETATM   14  N1  UNK     1      18.833   4.603  31.537  1.00  0.00    -0.323 N 
HETATM   15  H5  UNK     1      19.450   4.624  30.729  1.00  0.00     0.169 HD
BRANCH  14  16
HETATM   16  C10 UNK     1      18.607   5.873  32.123  1.00  0.00     0.036 A 
HETATM   17  C12 UNK     1      17.398   6.512  31.909  1.00  0.00     0.048 A 
HETATM   18  C14 UNK     1      17.177   7.762  32.487  1.00  0.00     0.039 A 
HETATM   19  C16 UNK     1      18.168   8.355  33.269  1.00  0.00     0.018 A 
HETATM   20  C15 UNK     1      19.381   7.697  33.474  1.00  0.00     0.003 A 
HETATM   21  C13 UNK     1      19.602   6.447  32.897  1.00  0.00     0.029 A 
BRANCH  18  22
HETATM   22  C17 UNK     1      15.913   8.450  32.273  1.00  0.00     0.176 C 
HETATM   23  O7  UNK     1      15.142   8.824  33.164  1.00  0.00    -0.646 OA
BRANCH  22  24
HETATM   24  O6  UNK     1      15.647   8.653  30.954  1.00  0.00    -0.773 OA
HETATM   25  H10 UNK     1      15.408   7.818  30.497  1.00  0.00     0.167 HD
ENDBRANCH  22  24
ENDBRANCH  18  22
ENDBRANCH  14  16
ENDBRANCH   5  12
BRANCH   9  26
HETATM   26  N2  UNK     1      21.109  -3.375  31.416  1.00  0.00    -0.116 N 
HETATM   27  O4  UNK     1      21.526  -4.316  30.700  1.00  0.00    -0.532 OA
HETATM   28  O5  UNK     1      21.110  -3.440  32.670  1.00  0.00    -0.532 OA
ENDBRANCH   9  26
TORSDOF 5
ENDMDL
MODEL 2
REMARK VINA RESULT:      -9.5      2.482      9.450
REMARK  5 active torsions:
REMARK  status: ('A' for Active; 'I' for Inactive)
REMARK    1  A    between atoms: C17_26  and  O6_6 
REMARK    2  A    between atoms: C10_19  and  N1_8 
REMARK       I    between atoms: C8_17  and  N1_8 
REMARK    3  A    between atoms: C7_16  and  N2_9 
REMARK    4  A    between atoms: C3_12  and  C8_17 
REMARK    5  A    between atoms: C14_23  and  C17_26 
ROOT
HETATM    1  O1  UNK     1      19.422   7.706  32.978  1.00  0.00    -0.274 OA
HETATM    2  O3  UNK     1      20.536   5.893  32.147  1.00  0.00    -0.259 OA
HETATM    3  C1  UNK     1      17.062   7.514  33.534  1.00  0.00     0.001 A 
HETATM    4  C2  UNK     1      18.225   8.274  33.459  1.00  0.00     0.089 A 
HETATM    5  C3  UNK     1      18.240   5.589  32.653  1.00  0.00     0.108 A 
HETATM    6  C4  UNK     1      17.102   6.123  33.110  1.00  0.00     0.037 A 
HETATM    7  C5  UNK     1      15.896   8.113  34.016  1.00  0.00     0.050 A 
HETATM    8  C6  UNK     1      18.255   9.611  33.848  1.00  0.00     0.041 A 
HETATM    9  C7  UNK     1      15.910   9.454  34.411  1.00  0.00     0.103 A 
HETATM   10  C9  UNK     1      19.489   6.378  32.564  1.00  0.00     0.304 A 
HETATM   11  C11 UNK     1      17.087  10.201  34.328  1.00  0.00     0.039 A 
ENDROOT
BRANCH   5  12
HETATM   12  C8  UNK     1      18.180   4.179  32.250  1.00  0.00     0.262 C 
HETATM   13  O2  UNK     1      17.806   3.329  33.057  1.00  0.00    -0.267 OA
HETATM   14  N1  UNK     1      18.578   3.994  30.933  1.00  0.00    -0.323 N 
HETATM   15  H5  UNK     1      18.840   4.811  30.387  1.00  0.00     0.169 HD
BRANCH  14  16
HETATM   16  C10 UNK     1      18.646   2.775  30.214  1.00  0.00     0.036 A 
HETATM   17  C12 UNK     1      19.393   1.728  30.725  1.00  0.00     0.048 A 
HETATM   18  C14 UNK     1      19.458   0.528  30.017  1.00  0.00     0.039 A 
HETATM   19  C16 UNK     1      18.777   0.394  28.807  1.00  0.00     0.018 A 
HETATM   20  C15 UNK     1      18.029   1.460  28.306  1.00  0.00     0.003 A 
HETATM   21  C13 UNK     1      17.963   2.659  29.015  1.00  0.00     0.029 A 
BRANCH  18  22
HETATM   22  C17 UNK     1      20.238  -0.584  30.538  1.00  0.00     0.176 C 
HETATM   23  O7  UNK     1      21.186  -0.486  31.324  1.00  0.00    -0.646 OA
BRANCH  22  24
HETATM   24  O6  UNK     1      19.810  -1.786  30.065  1.00  0.00    -0.773 OA
HETATM   25  H10 UNK     1      19.849  -1.828  29.086  1.00  0.00     0.167 HD
ENDBRANCH  22  24
ENDBRANCH  18  22
ENDBRANCH  14  16
ENDBRANCH   5  12
BRANCH   9  26
HETATM   26  N2  UNK     1      14.722  10.060  34.900  1.00  0.00    -0.116 N 
HETATM   27  O4  UNK     1      13.754  10.218  34.118  1.00  0.00    -0.532 OA
HETATM   28  O5  UNK     1      14.674  10.421  36.101  1.00  0.00    -0.532 OA
ENDBRANCH   9  26
TORSDOF 5
ENDMDL
MODEL 3
REMARK VINA RESULT:      -9.4     14.334     16.725
REMARK  5 active torsions:
REMARK  status: ('A' for Active; 'I' for Inactive)
REMARK    1  A    between atoms: C17_26  and  O6_6 
REMARK    2  A    between atoms: C10_19  and  N1_8 
REMARK       I    between atoms: C8_17  and  N1_8 
REMARK    3  A    between atoms: C7_16  and  N2_9 
REMARK    4  A    between atoms: C3_12  and  C8_17 
REMARK    5  A    between atoms: C14_23  and  C17_26 
ROOT
HETATM    1  O1  UNK     1      19.809  -3.212  13.071  1.00  0.00    -0.274 OA
HETATM    2  O3  UNK     1      20.181  -1.125  13.922  1.00  0.00    -0.259 OA
HETATM    3  C1  UNK     1      18.256  -4.708  14.195  1.00  0.00     0.001 A 
HETATM    4  C2  UNK     1      19.148  -4.453  13.158  1.00  0.00     0.089 A 
HETATM    5  C3  UNK     1      18.648  -2.496  15.101  1.00  0.00     0.108 A 
HETATM    6  C4  UNK     1      18.017  -3.672  15.188  1.00  0.00     0.037 A 
HETATM    7  C5  UNK     1      17.621  -5.951  14.247  1.00  0.00     0.050 A 
HETATM    8  C6  UNK     1      19.423  -5.403  12.175  1.00  0.00     0.041 A 
HETATM    9  C7  UNK     1      17.885  -6.914  13.268  1.00  0.00     0.103 A 
HETATM   10  C9  UNK     1      19.601  -2.203  14.006  1.00  0.00     0.304 A 
HETATM   11  C11 UNK     1      18.784  -6.640  12.234  1.00  0.00     0.039 A 
ENDROOT
BRANCH   5  12
HETATM   12  C8  UNK     1      18.340  -1.515  16.149  1.00  0.00     0.262 C 
HETATM   13  O2  UNK     1      17.450  -1.752  16.964  1.00  0.00    -0.267 OA
HETATM   14  N1  UNK     1      19.148  -0.390  16.066  1.00  0.00    -0.323 N 
HETATM   15  H5  UNK     1      19.860  -0.357  15.340  1.00  0.00     0.169 HD
BRANCH  14  16
HETATM   16  C10 UNK     1      19.130   0.750  16.907  1.00  0.00     0.036 A 
HETATM   17  C12 UNK     1      18.835   0.597  18.250  1.00  0.00     0.048 A 
HETATM   18  C14 UNK     1      18.818   1.720  19.076  1.00  0.00     0.039 A 
HETATM   19  C16 UNK     1      19.096   2.981  18.547  1.00  0.00     0.018 A 
HETATM   20  C15 UNK     1      19.391   3.117  17.190  1.00  0.00     0.003 A 
HETATM   21  C13 UNK     1      19.409   1.994  16.364  1.00  0.00     0.029 A 
BRANCH  18  22
HETATM   22  C17 UNK     1      18.510   1.579  20.491  1.00  0.00     0.176 C 
HETATM   23  O7  UNK     1      18.896   2.338  21.387  1.00  0.00    -0.646 OA
BRANCH  22  24
HETATM   24  O6  UNK     1      17.727   0.496  20.748  1.00  0.00    -0.773 OA
HETATM   25  H10 UNK     1      18.230  -0.343  20.676  1.00  0.00     0.167 HD
ENDBRANCH  22  24
ENDBRANCH  18  22
ENDBRANCH  14  16
ENDBRANCH   5  12
BRANCH   9  26
HETATM   26  N2  UNK     1      17.238  -8.177  13.324  1.00  0.00    -0.116 N 
HETATM   27  O4  UNK     1      17.806  -9.175  12.820  1.00  0.00    -0.532 OA
HETATM   28  O5  UNK     1      16.114  -8.259  13.878  1.00  0.00    -0.532 OA
ENDBRANCH   9  26
TORSDOF 5
ENDMDL
MODEL 4
REMARK VINA RESULT:      -9.4     13.154     17.350
REMARK  5 active torsions:
REMARK  status: ('A' for Active; 'I' for Inactive)
REMARK    1  A    between atoms: C17_26  and  O6_6 
REMARK    2  A    between atoms: C10_19  and  N1_8 
REMARK       I    between atoms: C8_17  and  N1_8 
REMARK    3  A    between atoms: C7_16  and  N2_9 
REMARK    4  A    between atoms: C3_12  and  C8_17 
REMARK    5  A    between atoms: C14_23  and  C17_26 
ROOT
HETATM    1  O1  UNK     1      19.291   0.976  15.127  1.00  0.00    -0.274 OA
HETATM    2  O3  UNK     1      19.232  -0.597  13.471  1.00  0.00    -0.259 OA
HETATM    3  C1  UNK     1      19.053   0.286  17.447  1.00  0.00     0.001 A 
HETATM    4  C2  UNK     1      19.230   1.290  16.500  1.00  0.00     0.089 A 
HETATM    5  C3  UNK     1      18.990  -1.384  15.694  1.00  0.00     0.108 A 
HETATM    6  C4  UNK     1      18.933  -1.092  16.998  1.00  0.00     0.037 A 
HETATM    7  C5  UNK     1      18.998   0.638  18.798  1.00  0.00     0.050 A 
HETATM    8  C6  UNK     1      19.351   2.630  16.863  1.00  0.00     0.041 A 
HETATM    9  C7  UNK     1      19.119   1.978  19.179  1.00  0.00     0.103 A 
HETATM   10  C9  UNK     1      19.177  -0.333  14.668  1.00  0.00     0.304 A 
HETATM   11  C11 UNK     1      19.295   2.971  18.212  1.00  0.00     0.039 A 
ENDROOT
BRANCH   5  12
HETATM   12  C8  UNK     1      18.859  -2.803  15.340  1.00  0.00     0.262 C 
HETATM   13  O2  UNK     1      19.714  -3.337  14.634  1.00  0.00    -0.267 OA
HETATM   14  N1  UNK     1      17.719  -3.375  15.886  1.00  0.00    -0.323 N 
HETATM   15  H5  UNK     1      17.120  -2.798  16.470  1.00  0.00     0.169 HD
BRANCH  14  16
HETATM   16  C10 UNK     1      17.276  -4.715  15.753  1.00  0.00     0.036 A 
HETATM   17  C12 UNK     1      16.676  -5.339  16.832  1.00  0.00     0.048 A 
HETATM   18  C14 UNK     1      16.240  -6.658  16.700  1.00  0.00     0.039 A 
HETATM   19  C16 UNK     1      16.412  -7.332  15.491  1.00  0.00     0.018 A 
HETATM   20  C15 UNK     1      17.020  -6.687  14.414  1.00  0.00     0.003 A 
HETATM   21  C13 UNK     1      17.455  -5.369  14.545  1.00  0.00     0.029 A 
BRANCH  18  22
HETATM   22  C17 UNK     1      15.607  -7.331  17.824  1.00  0.00     0.176 C 
HETATM   23  O7  UNK     1      16.041  -7.356  18.980  1.00  0.00    -0.646 OA
BRANCH  22  24
HETATM   24  O6  UNK     1      14.447  -7.951  17.472  1.00  0.00    -0.773 OA
HETATM   25  H10 UNK     1      14.184  -7.738  16.551  1.00  0.00     0.167 HD
ENDBRANCH  22  24
ENDBRANCH  18  22
ENDBRANCH  14  16
ENDBRANCH   5  12
BRANCH   9  26
HETATM   26  N2  UNK     1      19.061   2.331  20.553  1.00  0.00    -0.116 N 
HETATM   27  O4  UNK     1      20.126   2.599  21.157  1.00  0.00    -0.532 OA
HETATM   28  O5  UNK     1      17.944   2.366  21.125  1.00  0.00    -0.532 OA
ENDBRANCH   9  26
TORSDOF 5
ENDMDL
MODEL 5
REMARK VINA RESULT:      -9.3     14.361     16.785
REMARK  5 active torsions:
REMARK  status: ('A' for Active; 'I' for Inactive)
REMARK    1  A    between atoms: C17_26  and  O6_6 
REMARK    2  A    between atoms: C10_19  and  N1_8 
REMARK       I    between atoms: C8_17  and  N1_8 
REMARK    3  A    between atoms: C7_16  and  N2_9 
REMARK    4  A    between atoms: C3_12  and  C8_17 
REMARK    5  A    between atoms: C14_23  and  C17_26 
ROOT
HETATM    1  O1  UNK     1      19.494  -3.266  13.151  1.00  0.00    -0.274 OA
HETATM    2  O3  UNK     1      19.703  -1.210  14.124  1.00  0.00    -0.259 OA
HETATM    3  C1  UNK     1      18.122  -4.966  14.218  1.00  0.00     0.001 A 
HETATM    4  C2  UNK     1      18.952  -4.566  13.175  1.00  0.00     0.089 A 
HETATM    5  C3  UNK     1      18.341  -2.787  15.253  1.00  0.00     0.108 A 
HETATM    6  C4  UNK     1      17.822  -4.020  15.282  1.00  0.00     0.037 A 
HETATM    7  C5  UNK     1      17.604  -6.263  14.207  1.00  0.00     0.050 A 
HETATM    8  C6  UNK     1      19.279  -5.424  12.127  1.00  0.00     0.041 A 
HETATM    9  C7  UNK     1      17.922  -7.135  13.161  1.00  0.00     0.103 A 
HETATM   10  C9  UNK     1      19.226  -2.340  14.155  1.00  0.00     0.304 A 
HETATM   11  C11 UNK     1      18.758  -6.715  12.123  1.00  0.00     0.039 A 
ENDROOT
BRANCH   5  12
HETATM   12  C8  UNK     1      17.980  -1.905  16.370  1.00  0.00     0.262 C 
HETATM   13  O2  UNK     1      16.840  -1.941  16.833  1.00  0.00    -0.267 OA
HETATM   14  N1  UNK     1      19.041  -1.106  16.771  1.00  0.00    -0.323 N 
HETATM   15  H5  UNK     1      19.934  -1.214  16.295  1.00  0.00     0.169 HD
BRANCH  14  16
HETATM   16  C10 UNK     1      19.054  -0.143  17.810  1.00  0.00     0.036 A 
HETATM   17  C12 UNK     1      19.325   1.179  17.504  1.00  0.00     0.048 A 
HETATM   18  C14 UNK     1      19.338   2.126  18.528  1.00  0.00     0.039 A 
HETATM   19  C16 UNK     1      19.080   1.736  19.843  1.00  0.00     0.018 A 
HETATM   20  C15 UNK     1      18.809   0.399  20.133  1.00  0.00     0.003 A 
HETATM   21  C13 UNK     1      18.796  -0.548  19.109  1.00  0.00     0.029 A 
BRANCH  18  22
HETATM   22  C17 UNK     1      19.620   3.521  18.227  1.00  0.00     0.176 C 
HETATM   23  O7  UNK     1      20.266   4.291  18.945  1.00  0.00    -0.646 OA
BRANCH  22  24
HETATM   24  O6  UNK     1      19.091   3.914  17.036  1.00  0.00    -0.773 OA
HETATM   25  H10 UNK     1      19.103   3.189  16.375  1.00  0.00     0.167 HD
ENDBRANCH  22  24
ENDBRANCH  18  22
ENDBRANCH  14  16
ENDBRANCH   5  12
BRANCH   9  26
HETATM   26  N2  UNK     1      17.394  -8.454  13.154  1.00  0.00    -0.116 N 
HETATM   27  O4  UNK     1      18.129  -9.401  12.787  1.00  0.00    -0.532 OA
HETATM   28  O5  UNK     1      16.205  -8.634  13.515  1.00  0.00    -0.532 OA
ENDBRANCH   9  26
TORSDOF 5
ENDMDL
MODEL 6
REMARK VINA RESULT:      -9.2      1.579      2.143
REMARK  5 active torsions:
REMARK  status: ('A' for Active; 'I' for Inactive)
REMARK    1  A    between atoms: C17_26  and  O6_6 
REMARK    2  A    between atoms: C10_19  and  N1_8 
REMARK       I    between atoms: C8_17  and  N1_8 
REMARK    3  A    between atoms: C7_16  and  N2_9 
REMARK    4  A    between atoms: C3_12  and  C8_17 
REMARK    5  A    between atoms: C14_23  and  C17_26 
ROOT
HETATM    1  O1  UNK     1      19.155   1.379  28.816  1.00  0.00    -0.274 OA
HETATM    2  O3  UNK     1      18.269   3.482  28.926  1.00  0.00    -0.259 OA
HETATM    3  C1  UNK     1      19.647   0.175  30.871  1.00  0.00     0.001 A 
HETATM    4  C2  UNK     1      19.633   0.232  29.481  1.00  0.00     0.089 A 
HETATM    5  C3  UNK     1      18.707   2.404  30.991  1.00  0.00     0.108 A 
HETATM    6  C4  UNK     1      19.159   1.317  31.627  1.00  0.00     0.037 A 
HETATM    7  C5  UNK     1      20.129  -0.979  31.492  1.00  0.00     0.050 A 
HETATM    8  C6  UNK     1      20.088  -0.827  28.697  1.00  0.00     0.041 A 
HETATM    9  C7  UNK     1      20.588  -2.051  30.721  1.00  0.00     0.103 A 
HETATM   10  C9  UNK     1      18.683   2.487  29.513  1.00  0.00     0.304 A 
HETATM   11  C11 UNK     1      20.567  -1.975  29.326  1.00  0.00     0.039 A 
ENDROOT
BRANCH   5  12
HETATM   12  C8  UNK     1      18.235   3.504  31.840  1.00  0.00     0.262 C 
HETATM   13  O2  UNK     1      17.621   3.255  32.877  1.00  0.00    -0.267 OA
HETATM   14  N1  UNK     1      18.570   4.747  31.322  1.00  0.00    -0.323 N 
HETATM   15  H5  UNK     1      19.104   4.782  30.456  1.00  0.00     0.169 HD
BRANCH  14  16
HETATM   16  C10 UNK     1      18.278   6.020  31.870  1.00  0.00     0.036 A 
HETATM   17  C12 UNK     1      19.043   6.496  32.920  1.00  0.00     0.048 A 
HETATM   18  C14 UNK     1      18.755   7.750  33.460  1.00  0.00     0.039 A 
HETATM   19  C16 UNK     1      17.704   8.508  32.941  1.00  0.00     0.018 A 
HETATM   20  C15 UNK     1      16.943   8.012  31.883  1.00  0.00     0.003 A 
HETATM   21  C13 UNK     1      17.232   6.759  31.343  1.00  0.00     0.029 A 
BRANCH  18  22
HETATM   22  C17 UNK     1      19.548   8.268  34.564  1.00  0.00     0.176 C 
HETATM   23  O7  UNK     1      20.302   9.245  34.506  1.00  0.00    -0.646 OA
BRANCH  22  24
HETATM   24  O6  UNK     1      19.376   7.552  35.709  1.00  0.00    -0.773 OA
HETATM   25  H10 UNK     1      18.734   6.821  35.589  1.00  0.00     0.167 HD
ENDBRANCH  22  24
ENDBRANCH  18  22
ENDBRANCH  14  16
ENDBRANCH   5  12
BRANCH   9  26
HETATM   26  N2  UNK     1      21.078  -3.223  31.356  1.00  0.00    -0.116 N 
HETATM   27  O4  UNK     1      21.133  -3.258  32.608  1.00  0.00    -0.532 OA
HETATM   28  O5  UNK     1      21.443  -4.192  30.646  1.00  0.00    -0.532 OA
ENDBRANCH   9  26
TORSDOF 5
ENDMDL
MODEL 7
REMARK VINA RESULT:      -9.0     14.776     17.354
REMARK  5 active torsions:
REMARK  status: ('A' for Active; 'I' for Inactive)
REMARK    1  A    between atoms: C17_26  and  O6_6 
REMARK    2  A    between atoms: C10_19  and  N1_8 
REMARK       I    between atoms: C8_17  and  N1_8 
REMARK    3  A    between atoms: C7_16  and  N2_9 
REMARK    4  A    between atoms: C3_12  and  C8_17 
REMARK    5  A    between atoms: C14_23  and  C17_26 
ROOT
HETATM    1  O1  UNK     1      18.196  -4.978  14.111  1.00  0.00    -0.274 OA
HETATM    2  O3  UNK     1      17.248  -4.768  16.179  1.00  0.00    -0.259 OA
HETATM    3  C1  UNK     1      19.196  -3.034  13.046  1.00  0.00     0.001 A 
HETATM    4  C2  UNK     1      18.869  -4.386  13.024  1.00  0.00     0.089 A 
HETATM    5  C3  UNK     1      18.191  -2.808  15.238  1.00  0.00     0.108 A 
HETATM    6  C4  UNK     1      18.831  -2.240  14.209  1.00  0.00     0.037 A 
HETATM    7  C5  UNK     1      19.863  -2.484  11.949  1.00  0.00     0.050 A 
HETATM    8  C6  UNK     1      19.188  -5.201  11.939  1.00  0.00     0.041 A 
HETATM    9  C7  UNK     1      20.191  -3.289  10.853  1.00  0.00     0.103 A 
HETATM   10  C9  UNK     1      17.834  -4.244  15.237  1.00  0.00     0.304 A 
HETATM   11  C11 UNK     1      19.855  -4.645  10.849  1.00  0.00     0.039 A 
ENDROOT
BRANCH   5  12
HETATM   12  C8  UNK     1      17.867  -1.926  16.366  1.00  0.00     0.262 C 
HETATM   13  O2  UNK     1      16.739  -1.953  16.858  1.00  0.00    -0.267 OA
HETATM   14  N1  UNK     1      18.946  -1.137  16.741  1.00  0.00    -0.323 N 
HETATM   15  H5  UNK     1      19.825  -1.252  16.242  1.00  0.00     0.169 HD
BRANCH  14  16
HETATM   16  C10 UNK     1      18.995  -0.178  17.782  1.00  0.00     0.036 A 
HETATM   17  C12 UNK     1      19.259   1.145  17.472  1.00  0.00     0.048 A 
HETATM   18  C14 UNK     1      19.306   2.089  18.497  1.00  0.00     0.039 A 
HETATM   19  C16 UNK     1      19.089   1.696  19.818  1.00  0.00     0.018 A 
HETATM   20  C15 UNK     1      18.825   0.359  20.113  1.00  0.00     0.003 A 
HETATM   21  C13 UNK     1      18.777  -0.585  19.088  1.00  0.00     0.029 A 
BRANCH  18  22
HETATM   22  C17 UNK     1      19.583   3.484  18.190  1.00  0.00     0.176 C 
HETATM   23  O7  UNK     1      20.231   4.258  18.903  1.00  0.00    -0.646 OA
BRANCH  22  24
HETATM   24  O6  UNK     1      19.045   3.872  17.002  1.00  0.00    -0.773 OA
HETATM   25  H10 UNK     1      19.220   4.819  16.814  1.00  0.00     0.167 HD
ENDBRANCH  22  24
ENDBRANCH  18  22
ENDBRANCH  14  16
ENDBRANCH   5  12
BRANCH   9  26
HETATM   26  N2  UNK     1      20.869  -2.726   9.739  1.00  0.00    -0.116 N 
HETATM   27  O4  UNK     1      21.496  -1.651   9.888  1.00  0.00    -0.532 OA
HETATM   28  O5  UNK     1      20.822  -3.322   8.636  1.00  0.00    -0.532 OA
ENDBRANCH   9  26
TORSDOF 5
ENDMDL
MODEL 8
REMARK VINA RESULT:      -9.0     13.875     16.443
REMARK  5 active torsions:
REMARK  status: ('A' for Active; 'I' for Inactive)
REMARK    1  A    between atoms: C17_26  and  O6_6 
REMARK    2  A    between atoms: C10_19  and  N1_8 
REMARK       I    between atoms: C8_17  and  N1_8 
REMARK    3  A    between atoms: C7_16  and  N2_9 
REMARK    4  A    between atoms: C3_12  and  C8_17 
REMARK    5  A    between atoms: C14_23  and  C17_26 
ROOT
HETATM    1  O1  UNK     1      17.669  -4.276  14.464  1.00  0.00    -0.274 OA
HETATM    2  O3  UNK     1      17.109  -2.425  15.681  1.00  0.00    -0.259 OA
HETATM    3  C1  UNK     1      19.954  -5.105  14.522  1.00  0.00     0.001 A 
HETATM    4  C2  UNK     1      18.646  -5.206  14.059  1.00  0.00     0.089 A 
HETATM    5  C3  UNK     1      19.364  -3.142  15.813  1.00  0.00     0.108 A 
HETATM    6  C4  UNK     1      20.297  -4.023  15.433  1.00  0.00     0.037 A 
HETATM    7  C5  UNK     1      20.894  -6.046  14.096  1.00  0.00     0.050 A 
HETATM    8  C6  UNK     1      18.253  -6.218  13.184  1.00  0.00     0.041 A 
HETATM    9  C7  UNK     1      20.515  -7.068  13.220  1.00  0.00     0.103 A 
HETATM   10  C9  UNK     1      17.967  -3.230  15.334  1.00  0.00     0.304 A 
HETATM   11  C11 UNK     1      19.197  -7.153  12.765  1.00  0.00     0.039 A 
ENDROOT
BRANCH   5  12
HETATM   12  C8  UNK     1      19.806  -2.088  16.734  1.00  0.00     0.262 C 
HETATM   13  O2  UNK     1      20.830  -2.246  17.398  1.00  0.00    -0.267 OA
HETATM   14  N1  UNK     1      18.953  -0.994  16.725  1.00  0.00    -0.323 N 
HETATM   15  H5  UNK     1      18.153  -1.009  16.098  1.00  0.00     0.169 HD
BRANCH  14  16
HETATM   16  C10 UNK     1      19.067   0.198  17.484  1.00  0.00     0.036 A 
HETATM   17  C12 UNK     1      19.174   0.116  18.861  1.00  0.00     0.048 A 
HETATM   18  C14 UNK     1      19.287   1.290  19.606  1.00  0.00     0.039 A 
HETATM   19  C16 UNK     1      19.290   2.527  18.963  1.00  0.00     0.018 A 
HETATM   20  C15 UNK     1      19.180   2.591  17.574  1.00  0.00     0.003 A 
HETATM   21  C13 UNK     1      19.069   1.418  16.828  1.00  0.00     0.029 A 
BRANCH  18  22
HETATM   22  C17 UNK     1      19.400   1.224  21.055  1.00  0.00     0.176 C 
HETATM   23  O7  UNK     1      19.264   2.179  21.827  1.00  0.00    -0.646 OA
BRANCH  22  24
HETATM   24  O6  UNK     1      19.678  -0.032  21.499  1.00  0.00    -0.773 OA
HETATM   25  H10 UNK     1      19.251  -0.216  22.363  1.00  0.00     0.167 HD
ENDBRANCH  22  24
ENDBRANCH  18  22
ENDBRANCH  14  16
ENDBRANCH   5  12
BRANCH   9  26
HETATM   26  N2  UNK     1      21.474  -8.023  12.789  1.00  0.00    -0.116 N 
HETATM   27  O4  UNK     1      22.447  -7.639  12.097  1.00  0.00    -0.532 OA
HETATM   28  O5  UNK     1      21.321  -9.226  13.113  1.00  0.00    -0.532 OA
ENDBRANCH   9  26
TORSDOF 5
ENDMDL
MODEL 9
REMARK VINA RESULT:      -8.9     14.059     18.303
REMARK  5 active torsions:
REMARK  status: ('A' for Active; 'I' for Inactive)
REMARK    1  A    between atoms: C17_26  and  O6_6 
REMARK    2  A    between atoms: C10_19  and  N1_8 
REMARK       I    between atoms: C8_17  and  N1_8 
REMARK    3  A    between atoms: C7_16  and  N2_9 
REMARK    4  A    between atoms: C3_12  and  C8_17 
REMARK    5  A    between atoms: C14_23  and  C17_26 
ROOT
HETATM    1  O1  UNK     1      19.263   0.763  15.016  1.00  0.00    -0.274 OA
HETATM    2  O3  UNK     1      19.378  -0.818  13.372  1.00  0.00    -0.259 OA
HETATM    3  C1  UNK     1      19.032   0.069  17.335  1.00  0.00     0.001 A 
HETATM    4  C2  UNK     1      19.144   1.078  16.384  1.00  0.00     0.089 A 
HETATM    5  C3  UNK     1      19.153  -1.611  15.594  1.00  0.00     0.108 A 
HETATM    6  C4  UNK     1      19.041  -1.317  16.895  1.00  0.00     0.037 A 
HETATM    7  C5  UNK     1      18.915   0.422  18.681  1.00  0.00     0.050 A 
HETATM    8  C6  UNK     1      19.141   2.426  16.740  1.00  0.00     0.041 A 
HETATM    9  C7  UNK     1      18.911   1.770  19.055  1.00  0.00     0.103 A 
HETATM   10  C9  UNK     1      19.274  -0.554  14.565  1.00  0.00     0.304 A 
HETATM   11  C11 UNK     1      19.024   2.769  18.085  1.00  0.00     0.039 A 
ENDROOT
BRANCH   5  12
HETATM   12  C8  UNK     1      19.153  -3.037  15.249  1.00  0.00     0.262 C 
HETATM   13  O2  UNK     1      20.195  -3.575  14.874  1.00  0.00    -0.267 OA
HETATM   14  N1  UNK     1      17.900  -3.613  15.403  1.00  0.00    -0.323 N 
HETATM   15  H5  UNK     1      17.139  -3.032  15.746  1.00  0.00     0.169 HD
BRANCH  14  16
HETATM   16  C10 UNK     1      17.532  -4.960  15.162  1.00  0.00     0.036 A 
HETATM   17  C12 UNK     1      17.676  -5.484  13.890  1.00  0.00     0.048 A 
HETATM   18  C14 UNK     1      17.314  -6.810  13.654  1.00  0.00     0.039 A 
HETATM   19  C16 UNK     1      16.813  -7.592  14.695  1.00  0.00     0.018 A 
HETATM   20  C15 UNK     1      16.674  -7.048  15.972  1.00  0.00     0.003 A 
HETATM   21  C13 UNK     1      17.037  -5.722  16.208  1.00  0.00     0.029 A 
BRANCH  18  22
HETATM   22  C17 UNK     1      17.457  -7.379  12.323  1.00  0.00     0.176 C 
HETATM   23  O7  UNK     1      18.343  -8.166  11.972  1.00  0.00    -0.646 OA
BRANCH  22  24
HETATM   24  O6  UNK     1      16.490  -6.951  11.467  1.00  0.00    -0.773 OA
HETATM   25  H10 UNK     1      15.612  -7.326  11.692  1.00  0.00     0.167 HD
ENDBRANCH  22  24
ENDBRANCH  18  22
ENDBRANCH  14  16
ENDBRANCH   5  12
BRANCH   9  26
HETATM   26  N2  UNK     1      18.791   2.125  20.425  1.00  0.00    -0.116 N 
HETATM   27  O4  UNK     1      17.664   2.070  20.971  1.00  0.00    -0.532 OA
HETATM   28  O5  UNK     1      19.818   2.484  21.051  1.00  0.00    -0.532 OA
ENDBRANCH   9  26
TORSDOF 5
ENDMDL
MODEL 10
REMARK VINA RESULT:      -8.9      6.935      9.619
REMARK  5 active torsions:
REMARK  status: ('A' for Active; 'I' for Inactive)
REMARK    1  A    between atoms: C17_26  and  O6_6 
REMARK    2  A    between atoms: C10_19  and  N1_8 
REMARK       I    between atoms: C8_17  and  N1_8 
REMARK    3  A    between atoms: C7_16  and  N2_9 
REMARK    4  A    between atoms: C3_12  and  C8_17 
REMARK    5  A    between atoms: C14_23  and  C17_26 
ROOT
HETATM    1  O1  UNK     1      18.335  -7.783  36.842  1.00  0.00    -0.274 OA
HETATM    2  O3  UNK     1      17.165  -5.821  36.900  1.00  0.00    -0.259 OA
HETATM    3  C1  UNK     1      20.698  -7.756  36.267  1.00  0.00     0.001 A 
HETATM    4  C2  UNK     1      19.552  -8.459  36.626  1.00  0.00     0.089 A 
HETATM    5  C3  UNK     1      19.460  -5.674  36.327  1.00  0.00     0.108 A 
HETATM    6  C4  UNK     1      20.619  -6.310  36.121  1.00  0.00     0.037 A 
HETATM    7  C5  UNK     1      21.884  -8.462  36.061  1.00  0.00     0.050 A 
HETATM    8  C6  UNK     1      19.559  -9.844  36.782  1.00  0.00     0.041 A 
HETATM    9  C7  UNK     1      21.909  -9.851  36.214  1.00  0.00     0.103 A 
HETATM   10  C9  UNK     1      18.229  -6.401  36.708  1.00  0.00     0.304 A 
HETATM   11  C11 UNK     1      20.748 -10.541  36.574  1.00  0.00     0.039 A 
ENDROOT
BRANCH   5  12
HETATM   12  C8  UNK     1      19.482  -4.216  36.155  1.00  0.00     0.262 C 
HETATM   13  O2  UNK     1      20.380  -3.692  35.497  1.00  0.00    -0.267 OA
HETATM   14  N1  UNK     1      18.420  -3.597  36.800  1.00  0.00    -0.323 N 
HETATM   15  H5  UNK     1      17.745  -4.180  37.289  1.00  0.00     0.169 HD
BRANCH  14  16
HETATM   16  C10 UNK     1      18.127  -2.212  36.848  1.00  0.00     0.036 A 
HETATM   17  C12 UNK     1      17.738  -1.562  35.690  1.00  0.00     0.048 A 
HETATM   18  C14 UNK     1      17.449  -0.198  35.739  1.00  0.00     0.039 A 
HETATM   19  C16 UNK     1      17.554   0.495  36.946  1.00  0.00     0.018 A 
HETATM   20  C15 UNK     1      17.948  -0.177  38.103  1.00  0.00     0.003 A 
HETATM   21  C13 UNK     1      18.236  -1.540  38.054  1.00  0.00     0.029 A 
BRANCH  18  22
HETATM   22  C17 UNK     1      17.039   0.503  34.533  1.00  0.00     0.176 C 
HETATM   23  O7  UNK     1      17.803   0.975  33.684  1.00  0.00    -0.646 OA
BRANCH  22  24
HETATM   24  O6  UNK     1      15.685   0.594  34.418  1.00  0.00    -0.773 OA
HETATM   25  H10 UNK     1      15.394   1.517  34.260  1.00  0.00     0.167 HD
ENDBRANCH  22  24
ENDBRANCH  18  22
ENDBRANCH  14  16
ENDBRANCH   5  12
BRANCH   9  26
HETATM   26  N2  UNK     1      23.117 -10.567  36.003  1.00  0.00    -0.116 N 
HETATM   27  O4  UNK     1      24.184 -10.113  36.480  1.00  0.00    -0.532 OA
HETATM   28  O5  UNK     1      23.084 -11.634  35.343  1.00  0.00    -0.532 OA
ENDBRANCH   9  26
TORSDOF 5
ENDMDL
