MODEL 1
REMARK VINA RESULT:      -8.3      0.000      0.000
REMARK  5 active torsions:
REMARK  status: ('A' for Active; 'I' for Inactive)
REMARK    1  A    between atoms: C1_7  and  N1_5 
REMARK    2  A    between atoms: C2_8  and  N1_5 
REMARK    3  A    between atoms: C7_13  and  N2_6 
REMARK    4  A    between atoms: C1_7  and  C3_9 
REMARK    5  A    between atoms: C3_9  and  C5_11 
ROOT
HETATM    1  O1  UNK     1      19.410  -1.916  32.087  1.00  0.00    -0.273 OA
HETATM    2  O2  UNK     1      20.264  -2.861  30.195  1.00  0.00    -0.257 OA
HETATM    3  C2  UNK     1      19.458   0.621  30.751  1.00  0.00     0.081 A 
HETATM    4  C4  UNK     1      18.979   0.497  32.152  1.00  0.00     0.027 A 
HETATM    5  C6  UNK     1      18.972  -0.760  32.765  1.00  0.00     0.092 A 
HETATM    6  C7  UNK     1      19.863  -0.523  30.172  1.00  0.00     0.205 A 
HETATM    7  C8  UNK     1      18.524   1.579  32.926  1.00  0.00     0.017 A 
HETATM    8  C9  UNK     1      19.875  -1.859  30.784  1.00  0.00     0.324 A 
HETATM    9  C10 UNK     1      18.536  -0.959  34.079  1.00  0.00     0.038 A 
HETATM   10  C13 UNK     1      18.085   1.396  34.245  1.00  0.00     0.001 A 
HETATM   11  C14 UNK     1      18.090   0.129  34.820  1.00  0.00     0.003 A 
ENDROOT
BRANCH   3  12
HETATM   12  N1  UNK     1      19.448   1.863  30.171  1.00  0.00    -0.387 N 
HETATM   13  H5  UNK     1      20.330   2.308  29.954  1.00  0.00     0.159 HD
BRANCH  12  14
HETATM   14  C1  UNK     1      18.252   2.492  29.681  1.00  0.00     0.124 C 
BRANCH  14  15
HETATM   15  C3  UNK     1      18.473   3.987  29.460  1.00  0.00     0.058 C 
BRANCH  15  16
HETATM   16  C5  UNK     1      18.816   4.729  30.728  1.00  0.00    -0.057 A 
HETATM   17  C11 UNK     1      17.944   4.675  31.804  1.00  0.00     0.007 A 
HETATM   18  C15 UNK     1      18.261   5.360  32.977  1.00  0.00     0.001 A 
HETATM   19  C17 UNK     1      19.447   6.091  33.058  1.00  0.00     0.000 A 
HETATM   20  C16 UNK     1      20.316   6.136  31.968  1.00  0.00     0.001 A 
HETATM   21  C12 UNK     1      19.998   5.450  30.795  1.00  0.00     0.007 A 
ENDBRANCH  15  16
ENDBRANCH  14  15
ENDBRANCH  12  14
ENDBRANCH   3  12
BRANCH   6  22
HETATM   22  N2  UNK     1      20.331  -0.445  28.825  1.00  0.00    -0.107 N 
HETATM   23  O3  UNK     1      21.552  -0.341  28.659  1.00  0.00    -0.531 OA
HETATM   24  O4  UNK     1      19.478  -0.488  27.932  1.00  0.00    -0.531 OA
ENDBRANCH   6  22
TORSDOF 5
ENDMDL
MODEL 2
REMARK VINA RESULT:      -8.2      2.239      4.128
REMARK  5 active torsions:
REMARK  status: ('A' for Active; 'I' for Inactive)
REMARK    1  A    between atoms: C1_7  and  N1_5 
REMARK    2  A    between atoms: C2_8  and  N1_5 
REMARK    3  A    between atoms: C7_13  and  N2_6 
REMARK    4  A    between atoms: C1_7  and  C3_9 
REMARK    5  A    between atoms: C3_9  and  C5_11 
ROOT
HETATM    1  O1  UNK     1      19.565  -1.439  32.820  1.00  0.00    -0.273 OA
HETATM    2  O2  UNK     1      18.701  -1.261  34.923  1.00  0.00    -0.257 OA
HETATM    3  C2  UNK     1      18.427   1.124  32.218  1.00  0.00     0.081 A 
HETATM    4  C4  UNK     1      19.193   0.362  31.197  1.00  0.00     0.027 A 
HETATM    5  C6  UNK     1      19.732  -0.884  31.534  1.00  0.00     0.092 A 
HETATM    6  C7  UNK     1      18.308   0.529  33.418  1.00  0.00     0.205 A 
HETATM    7  C8  UNK     1      19.418   0.813  29.885  1.00  0.00     0.017 A 
HETATM    8  C9  UNK     1      18.855  -0.778  33.807  1.00  0.00     0.324 A 
HETATM    9  C10 UNK     1      20.464  -1.661  30.631  1.00  0.00     0.038 A 
HETATM   10  C13 UNK     1      20.149   0.045  28.968  1.00  0.00     0.001 A 
HETATM   11  C14 UNK     1      20.672  -1.190  29.341  1.00  0.00     0.003 A 
ENDROOT
BRANCH   3  12
HETATM   12  N1  UNK     1      17.916   2.345  31.864  1.00  0.00    -0.387 N 
HETATM   13  H5  UNK     1      16.933   2.417  31.637  1.00  0.00     0.159 HD
BRANCH  12  14
HETATM   14  C1  UNK     1      18.658   3.571  31.978  1.00  0.00     0.124 C 
BRANCH  14  15
HETATM   15  C3  UNK     1      17.718   4.768  32.105  1.00  0.00     0.058 C 
BRANCH  15  16
HETATM   16  C5  UNK     1      18.298   5.891  32.929  1.00  0.00    -0.057 A 
HETATM   17  C11 UNK     1      19.605   6.293  32.707  1.00  0.00     0.007 A 
HETATM   18  C15 UNK     1      20.141   7.331  33.468  1.00  0.00     0.001 A 
HETATM   19  C17 UNK     1      19.362   7.954  34.444  1.00  0.00     0.000 A 
HETATM   20  C16 UNK     1      18.048   7.540  34.657  1.00  0.00     0.001 A 
HETATM   21  C12 UNK     1      17.512   6.502  33.894  1.00  0.00     0.007 A 
ENDBRANCH  15  16
ENDBRANCH  14  15
ENDBRANCH  12  14
ENDBRANCH   3  12
BRANCH   6  22
HETATM   22  N2  UNK     1      17.578   1.230  34.426  1.00  0.00    -0.107 N 
HETATM   23  O3  UNK     1      18.217   2.005  35.147  1.00  0.00    -0.531 OA
HETATM   24  O4  UNK     1      16.365   1.005  34.498  1.00  0.00    -0.531 OA
ENDBRANCH   6  22
TORSDOF 5
ENDMDL
MODEL 3
REMARK VINA RESULT:      -8.0      3.898      7.895
REMARK  5 active torsions:
REMARK  status: ('A' for Active; 'I' for Inactive)
REMARK    1  A    between atoms: C1_7  and  N1_5 
REMARK    2  A    between atoms: C2_8  and  N1_5 
REMARK    3  A    between atoms: C7_13  and  N2_6 
REMARK    4  A    between atoms: C1_7  and  C3_9 
REMARK    5  A    between atoms: C3_9  and  C5_11 
ROOT
HETATM    1  O1  UNK     1      18.838   1.465  31.413  1.00  0.00    -0.273 OA
HETATM    2  O2  UNK     1      17.928   2.572  33.187  1.00  0.00    -0.257 OA
HETATM    3  C2  UNK     1      19.023  -0.872  33.064  1.00  0.00     0.081 A 
HETATM    4  C4  UNK     1      19.493  -0.886  31.654  1.00  0.00     0.027 A 
HETATM    5  C6  UNK     1      19.382   0.276  30.884  1.00  0.00     0.092 A 
HETATM    6  C7  UNK     1      18.521   0.297  33.498  1.00  0.00     0.205 A 
HETATM    7  C8  UNK     1      20.054  -2.009  31.023  1.00  0.00     0.017 A 
HETATM    8  C9  UNK     1      18.393   1.539  32.722  1.00  0.00     0.324 A 
HETATM    9  C10 UNK     1      19.799   0.343  29.551  1.00  0.00     0.038 A 
HETATM   10  C13 UNK     1      20.478  -1.958  29.688  1.00  0.00     0.001 A 
HETATM   11  C14 UNK     1      20.350  -0.783  28.953  1.00  0.00     0.003 A 
ENDROOT
BRANCH   3  12
HETATM   12  N1  UNK     1      19.137  -2.026  33.795  1.00  0.00    -0.387 N 
HETATM   13  H5  UNK     1      18.483  -2.779  33.625  1.00  0.00     0.159 HD
BRANCH  12  14
HETATM   14  C1  UNK     1      20.251  -2.302  34.660  1.00  0.00     0.124 C 
BRANCH  14  15
HETATM   15  C3  UNK     1      19.773  -2.713  36.051  1.00  0.00     0.058 C 
BRANCH  15  16
HETATM   16  C5  UNK     1      20.191  -4.112  36.432  1.00  0.00    -0.057 A 
HETATM   17  C11 UNK     1      20.923  -4.311  37.591  1.00  0.00     0.007 A 
HETATM   18  C15 UNK     1      21.310  -5.604  37.943  1.00  0.00     0.001 A 
HETATM   19  C17 UNK     1      20.959  -6.682  37.130  1.00  0.00     0.000 A 
HETATM   20  C16 UNK     1      20.222  -6.468  35.966  1.00  0.00     0.001 A 
HETATM   21  C12 UNK     1      19.835  -5.174  35.615  1.00  0.00     0.007 A 
ENDBRANCH  15  16
ENDBRANCH  14  15
ENDBRANCH  12  14
ENDBRANCH   3  12
BRANCH   6  22
HETATM   22  N2  UNK     1      18.060   0.351  34.849  1.00  0.00    -0.107 N 
HETATM   23  O3  UNK     1      18.874   0.712  35.706  1.00  0.00    -0.531 OA
HETATM   24  O4  UNK     1      16.884   0.030  35.053  1.00  0.00    -0.531 OA
ENDBRANCH   6  22
TORSDOF 5
ENDMDL
MODEL 4
REMARK VINA RESULT:      -7.9      1.595      2.234
REMARK  5 active torsions:
REMARK  status: ('A' for Active; 'I' for Inactive)
REMARK    1  A    between atoms: C1_7  and  N1_5 
REMARK    2  A    between atoms: C2_8  and  N1_5 
REMARK    3  A    between atoms: C7_13  and  N2_6 
REMARK    4  A    between atoms: C1_7  and  C3_9 
REMARK    5  A    between atoms: C3_9  and  C5_11 
ROOT
HETATM    1  O1  UNK     1      19.622  -2.139  34.802  1.00  0.00    -0.273 OA
HETATM    2  O2  UNK     1      21.120  -3.120  33.389  1.00  0.00    -0.257 OA
HETATM    3  C2  UNK     1      18.816  -0.435  32.642  1.00  0.00     0.081 A 
HETATM    4  C4  UNK     1      18.196  -0.319  33.987  1.00  0.00     0.027 A 
HETATM    5  C6  UNK     1      18.618  -1.172  35.012  1.00  0.00     0.092 A 
HETATM    6  C7  UNK     1      19.768  -1.377  32.519  1.00  0.00     0.205 A 
HETATM    7  C8  UNK     1      17.192   0.609  34.312  1.00  0.00     0.017 A 
HETATM    8  C9  UNK     1      20.241  -2.286  33.572  1.00  0.00     0.324 A 
HETATM    9  C10 UNK     1      18.083  -1.126  36.303  1.00  0.00     0.038 A 
HETATM   10  C13 UNK     1      16.646   0.668  35.602  1.00  0.00     0.001 A 
HETATM   11  C14 UNK     1      17.091  -0.199  36.596  1.00  0.00     0.003 A 
ENDROOT
BRANCH   3  12
HETATM   12  N1  UNK     1      18.379   0.408  31.653  1.00  0.00    -0.387 N 
HETATM   13  H5  UNK     1      17.459   0.263  31.258  1.00  0.00     0.159 HD
BRANCH  12  14
HETATM   14  C1  UNK     1      19.079   1.605  31.275  1.00  0.00     0.124 C 
BRANCH  14  15
HETATM   15  C3  UNK     1      18.099   2.725  30.929  1.00  0.00     0.058 C 
BRANCH  15  16
HETATM   16  C5  UNK     1      18.539   4.075  31.440  1.00  0.00    -0.057 A 
HETATM   17  C11 UNK     1      18.161   4.476  32.711  1.00  0.00     0.007 A 
HETATM   18  C15 UNK     1      18.567   5.724  33.184  1.00  0.00     0.001 A 
HETATM   19  C17 UNK     1      19.347   6.554  32.379  1.00  0.00     0.000 A 
HETATM   20  C16 UNK     1      19.720   6.138  31.101  1.00  0.00     0.001 A 
HETATM   21  C12 UNK     1      19.313   4.889  30.629  1.00  0.00     0.007 A 
ENDBRANCH  15  16
ENDBRANCH  14  15
ENDBRANCH  12  14
ENDBRANCH   3  12
BRANCH   6  22
HETATM   22  N2  UNK     1      20.390  -1.518  31.241  1.00  0.00    -0.107 N 
HETATM   23  O3  UNK     1      19.887  -2.334  30.460  1.00  0.00    -0.531 OA
HETATM   24  O4  UNK     1      21.381  -0.814  31.019  1.00  0.00    -0.531 OA
ENDBRANCH   6  22
TORSDOF 5
ENDMDL
MODEL 5
REMARK VINA RESULT:      -7.9      2.453      4.371
REMARK  5 active torsions:
REMARK  status: ('A' for Active; 'I' for Inactive)
REMARK    1  A    between atoms: C1_7  and  N1_5 
REMARK    2  A    between atoms: C2_8  and  N1_5 
REMARK    3  A    between atoms: C7_13  and  N2_6 
REMARK    4  A    between atoms: C1_7  and  C3_9 
REMARK    5  A    between atoms: C3_9  and  C5_11 
ROOT
HETATM    1  O1  UNK     1      19.571  -1.702  33.448  1.00  0.00    -0.273 OA
HETATM    2  O2  UNK     1      19.014  -1.997  35.640  1.00  0.00    -0.257 OA
HETATM    3  C2  UNK     1      18.356   0.892  33.567  1.00  0.00     0.081 A 
HETATM    4  C4  UNK     1      18.970   0.386  32.311  1.00  0.00     0.027 A 
HETATM    5  C6  UNK     1      19.552  -0.886  32.298  1.00  0.00     0.092 A 
HETATM    6  C7  UNK     1      18.409   0.056  34.618  1.00  0.00     0.205 A 
HETATM    7  C8  UNK     1      19.006   1.109  31.107  1.00  0.00     0.017 A 
HETATM    8  C9  UNK     1      19.007  -1.286  34.641  1.00  0.00     0.324 A 
HETATM    9  C10 UNK     1      20.150  -1.432  31.159  1.00  0.00     0.038 A 
HETATM   10  C13 UNK     1      19.600   0.574  29.955  1.00  0.00     0.001 A 
HETATM   11  C14 UNK     1      20.172  -0.695  29.982  1.00  0.00     0.003 A 
ENDROOT
BRANCH   3  12
HETATM   12  N1  UNK     1      17.798   2.145  33.554  1.00  0.00    -0.387 N 
HETATM   13  H5  UNK     1      16.852   2.255  33.214  1.00  0.00     0.159 HD
BRANCH  12  14
HETATM   14  C1  UNK     1      18.414   3.285  34.174  1.00  0.00     0.124 C 
BRANCH  14  15
HETATM   15  C3  UNK     1      17.914   4.585  33.546  1.00  0.00     0.058 C 
BRANCH  15  16
HETATM   16  C5  UNK     1      18.743   5.030  32.367  1.00  0.00    -0.057 A 
HETATM   17  C11 UNK     1      18.389   4.617  31.092  1.00  0.00     0.007 A 
HETATM   18  C15 UNK     1      19.155   5.029  30.002  1.00  0.00     0.001 A 
HETATM   19  C17 UNK     1      20.267   5.848  30.200  1.00  0.00     0.000 A 
HETATM   20  C16 UNK     1      20.612   6.256  31.488  1.00  0.00     0.001 A 
HETATM   21  C12 UNK     1      19.845   5.844  32.579  1.00  0.00     0.007 A 
ENDBRANCH  15  16
ENDBRANCH  14  15
ENDBRANCH  12  14
ENDBRANCH   3  12
BRANCH   6  22
HETATM   22  N2  UNK     1      17.829   0.507  35.843  1.00  0.00    -0.107 N 
HETATM   23  O3  UNK     1      16.608   0.365  35.972  1.00  0.00    -0.531 OA
HETATM   24  O4  UNK     1      18.595   1.004  36.676  1.00  0.00    -0.531 OA
ENDBRANCH   6  22
TORSDOF 5
ENDMDL
MODEL 6
REMARK VINA RESULT:      -7.9      4.921      8.716
REMARK  5 active torsions:
REMARK  status: ('A' for Active; 'I' for Inactive)
REMARK    1  A    between atoms: C1_7  and  N1_5 
REMARK    2  A    between atoms: C2_8  and  N1_5 
REMARK    3  A    between atoms: C7_13  and  N2_6 
REMARK    4  A    between atoms: C1_7  and  C3_9 
REMARK    5  A    between atoms: C3_9  and  C5_11 
ROOT
HETATM    1  O1  UNK     1      18.014  -0.400  33.294  1.00  0.00    -0.273 OA
HETATM    2  O2  UNK     1      19.369  -1.208  31.647  1.00  0.00    -0.257 OA
HETATM    3  C2  UNK     1      19.554  -1.900  35.191  1.00  0.00     0.081 A 
HETATM    4  C4  UNK     1      18.397  -1.073  35.621  1.00  0.00     0.027 A 
HETATM    5  C6  UNK     1      17.674  -0.356  34.662  1.00  0.00     0.092 A 
HETATM    6  C7  UNK     1      19.814  -1.895  33.872  1.00  0.00     0.205 A 
HETATM    7  C8  UNK     1      17.965  -0.957  36.953  1.00  0.00     0.017 A 
HETATM    8  C9  UNK     1      19.076  -1.160  32.836  1.00  0.00     0.324 A 
HETATM    9  C10 UNK     1      16.575   0.445  34.986  1.00  0.00     0.038 A 
HETATM   10  C13 UNK     1      16.864  -0.159  37.294  1.00  0.00     0.001 A 
HETATM   11  C14 UNK     1      16.170   0.542  36.312  1.00  0.00     0.003 A 
ENDROOT
BRANCH   3  12
HETATM   12  N1  UNK     1      20.250  -2.587  36.152  1.00  0.00    -0.387 N 
HETATM   13  H5  UNK     1      20.969  -2.104  36.675  1.00  0.00     0.159 HD
BRANCH  12  14
HETATM   14  C1  UNK     1      19.888  -3.906  36.592  1.00  0.00     0.124 C 
BRANCH  14  15
HETATM   15  C3  UNK     1      20.948  -4.479  37.531  1.00  0.00     0.058 C 
BRANCH  15  16
HETATM   16  C5  UNK     1      20.578  -5.833  38.085  1.00  0.00    -0.057 A 
HETATM   17  C11 UNK     1      19.408  -6.443  37.664  1.00  0.00     0.007 A 
HETATM   18  C15 UNK     1      19.066  -7.695  38.175  1.00  0.00     0.001 A 
HETATM   19  C17 UNK     1      19.901  -8.321  39.102  1.00  0.00     0.000 A 
HETATM   20  C16 UNK     1      21.076  -7.696  39.516  1.00  0.00     0.001 A 
HETATM   21  C12 UNK     1      21.418  -6.444  39.004  1.00  0.00     0.007 A 
ENDBRANCH  15  16
ENDBRANCH  14  15
ENDBRANCH  12  14
ENDBRANCH   3  12
BRANCH   6  22
HETATM   22  N2  UNK     1      20.919  -2.680  33.420  1.00  0.00    -0.107 N 
HETATM   23  O3  UNK     1      20.688  -3.856  33.121  1.00  0.00    -0.531 OA
HETATM   24  O4  UNK     1      22.019  -2.119  33.365  1.00  0.00    -0.531 OA
ENDBRANCH   6  22
TORSDOF 5
ENDMDL
MODEL 7
REMARK VINA RESULT:      -7.8      2.787      5.605
REMARK  5 active torsions:
REMARK  status: ('A' for Active; 'I' for Inactive)
REMARK    1  A    between atoms: C1_7  and  N1_5 
REMARK    2  A    between atoms: C2_8  and  N1_5 
REMARK    3  A    between atoms: C7_13  and  N2_6 
REMARK    4  A    between atoms: C1_7  and  C3_9 
REMARK    5  A    between atoms: C3_9  and  C5_11 
ROOT
HETATM    1  O1  UNK     1      19.190   0.272  28.639  1.00  0.00    -0.273 OA
HETATM    2  O2  UNK     1      18.223   2.263  28.086  1.00  0.00    -0.257 OA
HETATM    3  C2  UNK     1      19.109   1.083  31.388  1.00  0.00     0.081 A 
HETATM    4  C4  UNK     1      19.678  -0.230  30.989  1.00  0.00     0.027 A 
HETATM    5  C6  UNK     1      19.696  -0.586  29.636  1.00  0.00     0.092 A 
HETATM    6  C7  UNK     1      18.650   1.848  30.382  1.00  0.00     0.205 A 
HETATM    7  C8  UNK     1      20.214  -1.163  31.894  1.00  0.00     0.017 A 
HETATM    8  C9  UNK     1      18.656   1.511  28.952  1.00  0.00     0.324 A 
HETATM    9  C10 UNK     1      20.213  -1.803  29.181  1.00  0.00     0.038 A 
HETATM   10  C13 UNK     1      20.736  -2.387  31.453  1.00  0.00     0.001 A 
HETATM   11  C14 UNK     1      20.735  -2.706  30.098  1.00  0.00     0.003 A 
ENDROOT
BRANCH   3  12
HETATM   12  N1  UNK     1      19.097   1.404  32.721  1.00  0.00    -0.387 N 
HETATM   13  H5  UNK     1      19.871   1.930  33.105  1.00  0.00     0.159 HD
BRANCH  12  14
HETATM   14  C1  UNK     1      17.954   1.199  33.568  1.00  0.00     0.124 C 
BRANCH  14  15
HETATM   15  C3  UNK     1      18.228   1.698  34.985  1.00  0.00     0.058 C 
BRANCH  15  16
HETATM   16  C5  UNK     1      18.241   0.591  36.011  1.00  0.00    -0.057 A 
HETATM   17  C11 UNK     1      18.704  -0.664  35.650  1.00  0.00     0.007 A 
HETATM   18  C15 UNK     1      18.716  -1.687  36.598  1.00  0.00     0.001 A 
HETATM   19  C17 UNK     1      18.263  -1.442  37.895  1.00  0.00     0.000 A 
HETATM   20  C16 UNK     1      17.799  -0.174  38.244  1.00  0.00     0.001 A 
HETATM   21  C12 UNK     1      17.788   0.850  37.295  1.00  0.00     0.007 A 
ENDBRANCH  15  16
ENDBRANCH  14  15
ENDBRANCH  12  14
ENDBRANCH   3  12
BRANCH   6  22
HETATM   22  N2  UNK     1      18.096   3.119  30.726  1.00  0.00    -0.107 N 
HETATM   23  O3  UNK     1      18.873   4.079  30.763  1.00  0.00    -0.531 OA
HETATM   24  O4  UNK     1      16.883   3.156  30.960  1.00  0.00    -0.531 OA
ENDBRANCH   6  22
TORSDOF 5
ENDMDL
MODEL 8
REMARK VINA RESULT:      -7.6      5.246      9.320
REMARK  5 active torsions:
REMARK  status: ('A' for Active; 'I' for Inactive)
REMARK    1  A    between atoms: C1_7  and  N1_5 
REMARK    2  A    between atoms: C2_8  and  N1_5 
REMARK    3  A    between atoms: C7_13  and  N2_6 
REMARK    4  A    between atoms: C1_7  and  C3_9 
REMARK    5  A    between atoms: C3_9  and  C5_11 
ROOT
HETATM    1  O1  UNK     1      17.876  -0.102  33.454  1.00  0.00    -0.273 OA
HETATM    2  O2  UNK     1      16.669   0.759  35.187  1.00  0.00    -0.257 OA
HETATM    3  C2  UNK     1      19.329  -1.685  35.352  1.00  0.00     0.081 A 
HETATM    4  C4  UNK     1      19.636  -1.750  33.900  1.00  0.00     0.027 A 
HETATM    5  C6  UNK     1      18.901  -0.961  33.009  1.00  0.00     0.092 A 
HETATM    6  C7  UNK     1      18.342  -0.841  35.701  1.00  0.00     0.205 A 
HETATM    7  C8  UNK     1      20.636  -2.566  33.343  1.00  0.00     0.017 A 
HETATM    8  C9  UNK     1      17.553   0.006  34.796  1.00  0.00     0.324 A 
HETATM    9  C10 UNK     1      19.128  -0.967  31.629  1.00  0.00     0.038 A 
HETATM   10  C13 UNK     1      20.877  -2.581  31.962  1.00  0.00     0.001 A 
HETATM   11  C14 UNK     1      20.123  -1.783  31.106  1.00  0.00     0.003 A 
ENDROOT
BRANCH   3  12
HETATM   12  N1  UNK     1      20.059  -2.474  36.203  1.00  0.00    -0.387 N 
HETATM   13  H5  UNK     1      20.718  -2.036  36.833  1.00  0.00     0.159 HD
BRANCH  12  14
HETATM   14  C1  UNK     1      19.807  -3.877  36.385  1.00  0.00     0.124 C 
BRANCH  14  15
HETATM   15  C3  UNK     1      20.630  -4.435  37.544  1.00  0.00     0.058 C 
BRANCH  15  16
HETATM   16  C5  UNK     1      20.200  -5.819  37.964  1.00  0.00    -0.057 A 
HETATM   17  C11 UNK     1      20.787  -6.406  39.073  1.00  0.00     0.007 A 
HETATM   18  C15 UNK     1      20.390  -7.685  39.462  1.00  0.00     0.001 A 
HETATM   19  C17 UNK     1      19.410  -8.361  38.734  1.00  0.00     0.000 A 
HETATM   20  C16 UNK     1      18.827  -7.759  37.620  1.00  0.00     0.001 A 
HETATM   21  C12 UNK     1      19.225  -6.479  37.233  1.00  0.00     0.007 A 
ENDBRANCH  15  16
ENDBRANCH  14  15
ENDBRANCH  12  14
ENDBRANCH   3  12
BRANCH   6  22
HETATM   22  N2  UNK     1      18.019  -0.750  37.090  1.00  0.00    -0.107 N 
HETATM   23  O3  UNK     1      18.333   0.294  37.672  1.00  0.00    -0.531 OA
HETATM   24  O4  UNK     1      17.451  -1.723  37.597  1.00  0.00    -0.531 OA
ENDBRANCH   6  22
TORSDOF 5
ENDMDL
MODEL 9
REMARK VINA RESULT:      -7.5      2.492      4.028
REMARK  5 active torsions:
REMARK  status: ('A' for Active; 'I' for Inactive)
REMARK    1  A    between atoms: C1_7  and  N1_5 
REMARK    2  A    between atoms: C2_8  and  N1_5 
REMARK    3  A    between atoms: C7_13  and  N2_6 
REMARK    4  A    between atoms: C1_7  and  C3_9 
REMARK    5  A    between atoms: C3_9  and  C5_11 
ROOT
HETATM    1  O1  UNK     1      19.909  -2.003  34.386  1.00  0.00    -0.273 OA
HETATM    2  O2  UNK     1      18.852  -0.735  35.960  1.00  0.00    -0.257 OA
HETATM    3  C2  UNK     1      18.827  -0.269  32.374  1.00  0.00     0.081 A 
HETATM    4  C4  UNK     1      19.685  -1.428  32.012  1.00  0.00     0.027 A 
HETATM    5  C6  UNK     1      20.193  -2.247  33.026  1.00  0.00     0.092 A 
HETATM    6  C7  UNK     1      18.598  -0.104  33.688  1.00  0.00     0.205 A 
HETATM    7  C8  UNK     1      20.031  -1.769  30.693  1.00  0.00     0.017 A 
HETATM    8  C9  UNK     1      19.108  -0.944  34.780  1.00  0.00     0.324 A 
HETATM    9  C10 UNK     1      21.007  -3.353  32.768  1.00  0.00     0.038 A 
HETATM   10  C13 UNK     1      20.845  -2.876  30.418  1.00  0.00     0.001 A 
HETATM   11  C14 UNK     1      21.333  -3.667  31.454  1.00  0.00     0.003 A 
ENDROOT
BRANCH   3  12
HETATM   12  N1  UNK     1      18.349   0.521  31.361  1.00  0.00    -0.387 N 
HETATM   13  H5  UNK     1      17.418   0.349  31.004  1.00  0.00     0.159 HD
BRANCH  12  14
HETATM   14  C1  UNK     1      19.023   1.706  30.904  1.00  0.00     0.124 C 
BRANCH  14  15
HETATM   15  C3  UNK     1      18.037   2.858  30.718  1.00  0.00     0.058 C 
BRANCH  15  16
HETATM   16  C5  UNK     1      18.558   4.173  31.243  1.00  0.00    -0.057 A 
HETATM   17  C11 UNK     1      19.517   4.861  30.518  1.00  0.00     0.007 A 
HETATM   18  C15 UNK     1      19.999   6.077  31.002  1.00  0.00     0.001 A 
HETATM   19  C17 UNK     1      19.514   6.589  32.206  1.00  0.00     0.000 A 
HETATM   20  C16 UNK     1      18.548   5.886  32.925  1.00  0.00     0.001 A 
HETATM   21  C12 UNK     1      18.066   4.670  32.440  1.00  0.00     0.007 A 
ENDBRANCH  15  16
ENDBRANCH  14  15
ENDBRANCH  12  14
ENDBRANCH   3  12
BRANCH   6  22
HETATM   22  N2  UNK     1      17.776   0.999  34.076  1.00  0.00    -0.107 N 
HETATM   23  O3  UNK     1      16.553   0.825  34.049  1.00  0.00    -0.531 OA
HETATM   24  O4  UNK     1      18.355   2.040  34.405  1.00  0.00    -0.531 OA
ENDBRANCH   6  22
TORSDOF 5
ENDMDL
MODEL 10
REMARK VINA RESULT:      -7.5      5.762      8.649
REMARK  5 active torsions:
REMARK  status: ('A' for Active; 'I' for Inactive)
REMARK    1  A    between atoms: C1_7  and  N1_5 
REMARK    2  A    between atoms: C2_8  and  N1_5 
REMARK    3  A    between atoms: C7_13  and  N2_6 
REMARK    4  A    between atoms: C1_7  and  C3_9 
REMARK    5  A    between atoms: C3_9  and  C5_11 
ROOT
HETATM    1  O1  UNK     1      16.553  10.391  33.418  1.00  0.00    -0.273 OA
HETATM    2  O2  UNK     1      14.375  10.147  32.784  1.00  0.00    -0.257 OA
HETATM    3  C2  UNK     1      16.803   7.534  33.384  1.00  0.00     0.081 A 
HETATM    4  C4  UNK     1      17.949   8.403  33.756  1.00  0.00     0.027 A 
HETATM    5  C6  UNK     1      17.783   9.792  33.758  1.00  0.00     0.092 A 
HETATM    6  C7  UNK     1      15.662   8.176  33.076  1.00  0.00     0.205 A 
HETATM    7  C8  UNK     1      19.218   7.919  34.116  1.00  0.00     0.017 A 
HETATM    8  C9  UNK     1      15.448   9.630  33.072  1.00  0.00     0.324 A 
HETATM    9  C10 UNK     1      18.813  10.677  34.094  1.00  0.00     0.038 A 
HETATM   10  C13 UNK     1      20.260   8.793  34.457  1.00  0.00     0.001 A 
HETATM   11  C14 UNK     1      20.058  10.170  34.446  1.00  0.00     0.003 A 
ENDROOT
BRANCH   3  12
HETATM   12  N1  UNK     1      16.994   6.177  33.383  1.00  0.00    -0.387 N 
HETATM   13  H5  UNK     1      16.614   5.629  34.143  1.00  0.00     0.159 HD
BRANCH  12  14
HETATM   14  C1  UNK     1      17.544   5.462  32.265  1.00  0.00     0.124 C 
BRANCH  14  15
HETATM   15  C3  UNK     1      18.154   4.134  32.711  1.00  0.00     0.058 C 
BRANCH  15  16
HETATM   16  C5  UNK     1      18.420   3.190  31.565  1.00  0.00    -0.057 A 
HETATM   17  C11 UNK     1      18.753   1.872  31.834  1.00  0.00     0.007 A 
HETATM   18  C15 UNK     1      18.999   0.998  30.775  1.00  0.00     0.001 A 
HETATM   19  C17 UNK     1      18.910   1.455  29.460  1.00  0.00     0.000 A 
HETATM   20  C16 UNK     1      18.574   2.784  29.204  1.00  0.00     0.001 A 
HETATM   21  C12 UNK     1      18.327   3.657  30.264  1.00  0.00     0.007 A 
ENDBRANCH  15  16
ENDBRANCH  14  15
ENDBRANCH  12  14
ENDBRANCH   3  12
BRANCH   6  22
HETATM   22  N2  UNK     1      14.536   7.375  32.714  1.00  0.00    -0.107 N 
HETATM   23  O3  UNK     1      14.427   7.066  31.523  1.00  0.00    -0.531 OA
HETATM   24  O4  UNK     1      13.761   7.055  33.622  1.00  0.00    -0.531 OA
ENDBRANCH   6  22
TORSDOF 5
ENDMDL
