MODEL 1
REMARK VINA RESULT:      -9.7      0.000      0.000
REMARK  3 active torsions:
REMARK  status: ('A' for Active; 'I' for Inactive)
REMARK       I    between atoms: C10_16  and  N1_5 
REMARK    1  A    between atoms: C5_11  and  N1_5 
REMARK    2  A    between atoms: C1_7  and  C2_8 
REMARK    3  A    between atoms: C10_16  and  C8_14 
ROOT
HETATM    1  S1  UNK     1      19.568  -7.218  37.973  1.00  0.00    -0.075 SA
HETATM    2  N2  UNK     1      20.912  -7.236  33.062  1.00  0.00    -0.191 NA
HETATM    3  C1  UNK     1      20.435  -8.892  36.229  1.00  0.00    -0.022 A 
HETATM    4  C3  UNK     1      20.053  -8.804  37.549  1.00  0.00    -0.011 A 
HETATM    5  C4  UNK     1      20.327  -7.641  35.556  1.00  0.00     0.085 A 
HETATM    6  C5  UNK     1      19.875  -6.690  36.395  1.00  0.00     0.098 A 
HETATM    7  C7  UNK     1      20.021  -9.865  38.580  1.00  0.00     0.057 C 
HETATM    8  C16 UNK     1      20.650  -7.417  34.180  1.00  0.00     0.103 C 
ENDROOT
BRANCH   3   9
HETATM    9  C2  UNK     1      20.902 -10.149  35.589  1.00  0.00     0.037 C 
HETATM   10  C6  UNK     1      22.414 -10.343  35.721  1.00  0.00     0.010 C 
ENDBRANCH   3   9
BRANCH   6  11
HETATM   11  N1  UNK     1      19.619  -5.316  36.163  1.00  0.00    -0.316 N 
HETATM   12  C10 UNK     1      20.376  -4.231  36.580  1.00  0.00     0.262 C 
HETATM   13  O2  UNK     1      21.418  -4.239  37.234  1.00  0.00    -0.267 OA
HETATM   14  H3  UNK     1      18.784  -5.150  35.607  1.00  0.00     0.170 HD
BRANCH  12  15
HETATM   15  C8  UNK     1      19.797  -2.953  36.150  1.00  0.00     0.108 A 
HETATM   16  C11 UNK     1      19.085  -2.288  37.068  1.00  0.00     0.037 A 
HETATM   17  C9  UNK     1      18.471  -1.011  36.736  1.00  0.00    -0.001 A 
HETATM   18  C12 UNK     1      18.637  -0.498  35.453  1.00  0.00     0.089 A 
HETATM   19  C14 UNK     1      17.720  -0.282  37.661  1.00  0.00     0.014 A 
HETATM   20  O1  UNK     1      19.386  -1.203  34.492  1.00  0.00    -0.274 OA
HETATM   21  C15 UNK     1      18.075   0.719  35.071  1.00  0.00     0.038 A 
HETATM   22  C13 UNK     1      19.986  -2.426  34.780  1.00  0.00     0.304 A 
HETATM   23  O3  UNK     1      20.637  -3.033  33.936  1.00  0.00    -0.259 OA
HETATM   24  C18 UNK     1      17.328   1.439  36.001  1.00  0.00     0.003 A 
HETATM   25  C17 UNK     1      17.151   0.940  37.294  1.00  0.00     0.001 A 
ENDBRANCH  12  15
ENDBRANCH   6  11
TORSDOF 3
ENDMDL
MODEL 2
REMARK VINA RESULT:      -9.2     18.976     21.507
REMARK  3 active torsions:
REMARK  status: ('A' for Active; 'I' for Inactive)
REMARK       I    between atoms: C10_16  and  N1_5 
REMARK    1  A    between atoms: C5_11  and  N1_5 
REMARK    2  A    between atoms: C1_7  and  C2_8 
REMARK    3  A    between atoms: C10_16  and  C8_14 
ROOT
HETATM    1  S1  UNK     1      19.275  -0.520  19.296  1.00  0.00    -0.075 SA
HETATM    2  N2  UNK     1      19.233   2.725  15.373  1.00  0.00    -0.191 NA
HETATM    3  C1  UNK     1      19.392   2.015  18.904  1.00  0.00    -0.022 A 
HETATM    4  C3  UNK     1      19.397   1.074  19.910  1.00  0.00    -0.011 A 
HETATM    5  C4  UNK     1      19.287   1.420  17.614  1.00  0.00     0.085 A 
HETATM    6  C5  UNK     1      19.219   0.080  17.715  1.00  0.00     0.098 A 
HETATM    7  C7  UNK     1      19.489   1.276  21.372  1.00  0.00     0.057 C 
HETATM    8  C16 UNK     1      19.257   2.140  16.377  1.00  0.00     0.103 C 
ENDROOT
BRANCH   3   9
HETATM    9  C2  UNK     1      19.486   3.478  19.147  1.00  0.00     0.037 C 
HETATM   10  C6  UNK     1      20.796   4.073  18.627  1.00  0.00     0.010 C 
ENDBRANCH   3   9
BRANCH   6  11
HETATM   11  N1  UNK     1      19.108  -0.907  16.704  1.00  0.00    -0.316 N 
HETATM   12  C10 UNK     1      18.024  -1.732  16.442  1.00  0.00     0.262 C 
HETATM   13  O2  UNK     1      16.944  -1.776  17.030  1.00  0.00    -0.267 OA
HETATM   14  H3  UNK     1      19.933  -0.973  16.113  1.00  0.00     0.170 HD
BRANCH  12  15
HETATM   15  C8  UNK     1      18.274  -2.632  15.310  1.00  0.00     0.108 A 
HETATM   16  C11 UNK     1      17.976  -3.923  15.505  1.00  0.00     0.037 A 
HETATM   17  C9  UNK     1      18.190  -4.893  14.441  1.00  0.00    -0.001 A 
HETATM   18  C12 UNK     1      18.707  -4.455  13.226  1.00  0.00     0.089 A 
HETATM   19  C14 UNK     1      17.892  -6.248  14.599  1.00  0.00     0.014 A 
HETATM   20  O1  UNK     1      19.019  -3.097  13.028  1.00  0.00    -0.274 OA
HETATM   21  C15 UNK     1      18.935  -5.333  12.168  1.00  0.00     0.038 A 
HETATM   22  C13 UNK     1      18.826  -2.145  14.026  1.00  0.00     0.304 A 
HETATM   23  O3  UNK     1      19.101  -0.964  13.845  1.00  0.00    -0.259 OA
HETATM   24  C18 UNK     1      18.636  -6.684  12.333  1.00  0.00     0.003 A 
HETATM   25  C17 UNK     1      18.115  -7.141  13.546  1.00  0.00     0.001 A 
ENDBRANCH  12  15
ENDBRANCH   6  11
TORSDOF 3
ENDMDL
MODEL 3
REMARK VINA RESULT:      -9.2      2.225      7.743
REMARK  3 active torsions:
REMARK  status: ('A' for Active; 'I' for Inactive)
REMARK       I    between atoms: C10_16  and  N1_5 
REMARK    1  A    between atoms: C5_11  and  N1_5 
REMARK    2  A    between atoms: C1_7  and  C2_8 
REMARK    3  A    between atoms: C10_16  and  C8_14 
ROOT
HETATM    1  S1  UNK     1      18.066  -1.668  37.913  1.00  0.00    -0.075 SA
HETATM    2  N2  UNK     1      20.167  -2.045  33.290  1.00  0.00    -0.191 NA
HETATM    3  C1  UNK     1      18.630  -0.133  35.932  1.00  0.00    -0.022 A 
HETATM    4  C3  UNK     1      18.074  -0.115  37.192  1.00  0.00    -0.011 A 
HETATM    5  C4  UNK     1      19.054  -1.440  35.553  1.00  0.00     0.085 A 
HETATM    6  C5  UNK     1      18.799  -2.324  36.536  1.00  0.00     0.098 A 
HETATM    7  C7  UNK     1      17.516   1.030  37.945  1.00  0.00     0.057 C 
HETATM    8  C16 UNK     1      19.668  -1.774  34.304  1.00  0.00     0.103 C 
ENDROOT
BRANCH   3   9
HETATM    9  C2  UNK     1      18.766   1.073  35.075  1.00  0.00     0.037 C 
HETATM   10  C6  UNK     1      17.546   1.294  34.180  1.00  0.00     0.010 C 
ENDBRANCH   3   9
BRANCH   6  11
HETATM   11  N1  UNK     1      19.049  -3.717  36.597  1.00  0.00    -0.316 N 
HETATM   12  C10 UNK     1      20.245  -4.351  36.901  1.00  0.00     0.262 C 
HETATM   13  O2  UNK     1      21.328  -3.836  37.177  1.00  0.00    -0.267 OA
HETATM   14  H3  UNK     1      18.225  -4.282  36.407  1.00  0.00     0.170 HD
BRANCH  12  15
HETATM   15  C8  UNK     1      20.121  -5.813  36.867  1.00  0.00     0.108 A 
HETATM   16  C11 UNK     1      20.009  -6.424  38.052  1.00  0.00     0.037 A 
HETATM   17  C9  UNK     1      19.882  -7.872  38.121  1.00  0.00    -0.001 A 
HETATM   18  C12 UNK     1      19.879  -8.604  36.938  1.00  0.00     0.089 A 
HETATM   19  C14 UNK     1      19.762  -8.552  39.335  1.00  0.00     0.014 A 
HETATM   20  O1  UNK     1      19.998  -7.955  35.694  1.00  0.00    -0.274 OA
HETATM   21  C15 UNK     1      19.761  -9.993  36.935  1.00  0.00     0.038 A 
HETATM   22  C13 UNK     1      20.121  -6.571  35.596  1.00  0.00     0.304 A 
HETATM   23  O3  UNK     1      20.224  -6.015  34.508  1.00  0.00    -0.259 OA
HETATM   24  C18 UNK     1      19.641 -10.663  38.151  1.00  0.00     0.003 A 
HETATM   25  C17 UNK     1      19.641  -9.945  39.349  1.00  0.00     0.001 A 
ENDBRANCH  12  15
ENDBRANCH   6  11
TORSDOF 3
ENDMDL
MODEL 4
REMARK VINA RESULT:      -8.9      1.267      2.248
REMARK  3 active torsions:
REMARK  status: ('A' for Active; 'I' for Inactive)
REMARK       I    between atoms: C10_16  and  N1_5 
REMARK    1  A    between atoms: C5_11  and  N1_5 
REMARK    2  A    between atoms: C1_7  and  C2_8 
REMARK    3  A    between atoms: C10_16  and  C8_14 
ROOT
HETATM    1  S1  UNK     1      20.838  -7.655  34.711  1.00  0.00    -0.075 SA
HETATM    2  N2  UNK     1      19.677  -6.829  39.599  1.00  0.00    -0.191 NA
HETATM    3  C1  UNK     1      20.793  -8.966  36.919  1.00  0.00    -0.022 A 
HETATM    4  C3  UNK     1      21.088  -9.108  35.581  1.00  0.00    -0.011 A 
HETATM    5  C4  UNK     1      20.357  -7.647  37.234  1.00  0.00     0.085 A 
HETATM    6  C5  UNK     1      20.347  -6.876  36.130  1.00  0.00     0.098 A 
HETATM    7  C7  UNK     1      21.565 -10.307  34.856  1.00  0.00     0.057 C 
HETATM    8  C16 UNK     1      19.982  -7.195  38.539  1.00  0.00     0.103 C 
ENDROOT
BRANCH   3   9
HETATM    9  C2  UNK     1      20.920 -10.066  37.910  1.00  0.00     0.037 C 
HETATM   10  C6  UNK     1      19.652 -10.917  38.002  1.00  0.00     0.010 C 
ENDBRANCH   3   9
BRANCH   6  11
HETATM   11  N1  UNK     1      19.988  -5.514  35.972  1.00  0.00    -0.316 N 
HETATM   12  C10 UNK     1      20.583  -4.408  36.561  1.00  0.00     0.262 C 
HETATM   13  O2  UNK     1      21.538  -4.383  37.338  1.00  0.00    -0.267 OA
HETATM   14  H3  UNK     1      19.212  -5.374  35.331  1.00  0.00     0.170 HD
BRANCH  12  15
HETATM   15  C8  UNK     1      19.938  -3.152  36.160  1.00  0.00     0.108 A 
HETATM   16  C11 UNK     1      19.214  -2.533  37.100  1.00  0.00     0.037 A 
HETATM   17  C9  UNK     1      18.537  -1.281  36.797  1.00  0.00    -0.001 A 
HETATM   18  C12 UNK     1      18.655  -0.744  35.519  1.00  0.00     0.089 A 
HETATM   19  C14 UNK     1      17.772  -0.600  37.746  1.00  0.00     0.014 A 
HETATM   20  O1  UNK     1      19.417  -1.401  34.534  1.00  0.00    -0.274 OA
HETATM   21  C15 UNK     1      18.031   0.450  35.164  1.00  0.00     0.038 A 
HETATM   22  C13 UNK     1      20.078  -2.600  34.794  1.00  0.00     0.304 A 
HETATM   23  O3  UNK     1      20.739  -3.165  33.930  1.00  0.00    -0.259 OA
HETATM   24  C18 UNK     1      17.269   1.123  36.117  1.00  0.00     0.003 A 
HETATM   25  C17 UNK     1      17.140   0.600  37.406  1.00  0.00     0.001 A 
ENDBRANCH  12  15
ENDBRANCH   6  11
TORSDOF 3
ENDMDL
MODEL 5
REMARK VINA RESULT:      -8.6      7.931     12.168
REMARK  3 active torsions:
REMARK  status: ('A' for Active; 'I' for Inactive)
REMARK       I    between atoms: C10_16  and  N1_5 
REMARK    1  A    between atoms: C5_11  and  N1_5 
REMARK    2  A    between atoms: C1_7  and  C2_8 
REMARK    3  A    between atoms: C10_16  and  C8_14 
ROOT
HETATM    1  S1  UNK     1      16.702   6.186  32.132  1.00  0.00    -0.075 SA
HETATM    2  N2  UNK     1      21.754   6.401  32.724  1.00  0.00    -0.191 NA
HETATM    3  C1  UNK     1      18.452   7.800  33.094  1.00  0.00    -0.022 A 
HETATM    4  C3  UNK     1      17.096   7.666  32.897  1.00  0.00    -0.011 A 
HETATM    5  C4  UNK     1      19.178   6.674  32.609  1.00  0.00     0.085 A 
HETATM    6  C5  UNK     1      18.339   5.762  32.081  1.00  0.00     0.098 A 
HETATM    7  C7  UNK     1      16.007   8.604  33.252  1.00  0.00     0.057 C 
HETATM    8  C16 UNK     1      20.600   6.523  32.673  1.00  0.00     0.103 C 
ENDROOT
BRANCH   3   9
HETATM    9  C2  UNK     1      19.077   8.986  33.736  1.00  0.00     0.037 C 
HETATM   10  C6  UNK     1      19.837   8.623  35.013  1.00  0.00     0.010 C 
ENDBRANCH   3   9
BRANCH   6  11
HETATM   11  N1  UNK     1      18.614   4.505  31.489  1.00  0.00    -0.316 N 
HETATM   12  C10 UNK     1      18.254   3.250  31.960  1.00  0.00     0.262 C 
HETATM   13  O2  UNK     1      17.625   2.974  32.982  1.00  0.00    -0.267 OA
HETATM   14  H3  UNK     1      19.121   4.575  30.611  1.00  0.00     0.170 HD
BRANCH  12  15
HETATM   15  C8  UNK     1      18.714   2.174  31.076  1.00  0.00     0.108 A 
HETATM   16  C11 UNK     1      19.149   1.060  31.677  1.00  0.00     0.037 A 
HETATM   17  C9  UNK     1      19.626  -0.063  30.884  1.00  0.00    -0.001 A 
HETATM   18  C12 UNK     1      19.621   0.043  29.497  1.00  0.00     0.089 A 
HETATM   19  C14 UNK     1      20.088  -1.244  31.469  1.00  0.00     0.014 A 
HETATM   20  O1  UNK     1      19.163   1.217  28.870  1.00  0.00    -0.274 OA
HETATM   21  C15 UNK     1      20.065  -0.996  28.681  1.00  0.00     0.038 A 
HETATM   22  C13 UNK     1      18.700   2.308  29.602  1.00  0.00     0.304 A 
HETATM   23  O3  UNK     1      18.303   3.327  29.047  1.00  0.00    -0.259 OA
HETATM   24  C18 UNK     1      20.525  -2.171  29.272  1.00  0.00     0.003 A 
HETATM   25  C17 UNK     1      20.536  -2.296  30.663  1.00  0.00     0.001 A 
ENDBRANCH  12  15
ENDBRANCH   6  11
TORSDOF 3
ENDMDL
MODEL 6
REMARK VINA RESULT:      -8.6      2.389      3.644
REMARK  3 active torsions:
REMARK  status: ('A' for Active; 'I' for Inactive)
REMARK       I    between atoms: C10_16  and  N1_5 
REMARK    1  A    between atoms: C5_11  and  N1_5 
REMARK    2  A    between atoms: C1_7  and  C2_8 
REMARK    3  A    between atoms: C10_16  and  C8_14 
ROOT
HETATM    1  S1  UNK     1      21.004  -5.709  37.680  1.00  0.00    -0.075 SA
HETATM    2  N2  UNK     1      17.087  -7.431  34.920  1.00  0.00    -0.191 NA
HETATM    3  C1  UNK     1      19.500  -7.788  37.574  1.00  0.00    -0.022 A 
HETATM    4  C3  UNK     1      20.559  -7.252  38.273  1.00  0.00    -0.011 A 
HETATM    5  C4  UNK     1      19.049  -6.921  36.538  1.00  0.00     0.085 A 
HETATM    6  C5  UNK     1      19.782  -5.792  36.512  1.00  0.00     0.098 A 
HETATM    7  C7  UNK     1      21.310  -7.829  39.411  1.00  0.00     0.057 C 
HETATM    8  C16 UNK     1      17.966  -7.202  35.645  1.00  0.00     0.103 C 
ENDROOT
BRANCH   3   9
HETATM    9  C2  UNK     1      18.905  -9.116  37.874  1.00  0.00     0.037 C 
HETATM   10  C6  UNK     1      19.654 -10.259  37.187  1.00  0.00     0.010 C 
ENDBRANCH   3   9
BRANCH   6  11
HETATM   11  N1  UNK     1      19.690  -4.664  35.660  1.00  0.00    -0.316 N 
HETATM   12  C10 UNK     1      20.028  -3.351  35.954  1.00  0.00     0.262 C 
HETATM   13  O2  UNK     1      20.474  -2.900  37.009  1.00  0.00    -0.267 OA
HETATM   14  H3  UNK     1      19.350  -4.889  34.729  1.00  0.00     0.170 HD
BRANCH  12  15
HETATM   15  C8  UNK     1      19.798  -2.452  34.818  1.00  0.00     0.108 A 
HETATM   16  C11 UNK     1      20.332  -2.827  33.649  1.00  0.00     0.037 A 
HETATM   17  C9  UNK     1      20.158  -2.000  32.465  1.00  0.00    -0.001 A 
HETATM   18  C12 UNK     1      19.429  -0.819  32.569  1.00  0.00     0.089 A 
HETATM   19  C14 UNK     1      20.697  -2.352  31.225  1.00  0.00     0.014 A 
HETATM   20  O1  UNK     1      18.870  -0.430  33.801  1.00  0.00    -0.274 OA
HETATM   21  C15 UNK     1      19.226   0.017  31.473  1.00  0.00     0.038 A 
HETATM   22  C13 UNK     1      19.019  -1.200  34.952  1.00  0.00     0.304 A 
HETATM   23  O3  UNK     1      18.529  -0.853  36.021  1.00  0.00    -0.259 OA
HETATM   24  C18 UNK     1      19.767  -0.342  30.240  1.00  0.00     0.003 A 
HETATM   25  C17 UNK     1      20.501  -1.524  30.116  1.00  0.00     0.001 A 
ENDBRANCH  12  15
ENDBRANCH   6  11
TORSDOF 3
ENDMDL
MODEL 7
REMARK VINA RESULT:      -8.4      2.109      2.487
REMARK  3 active torsions:
REMARK  status: ('A' for Active; 'I' for Inactive)
REMARK       I    between atoms: C10_16  and  N1_5 
REMARK    1  A    between atoms: C5_11  and  N1_5 
REMARK    2  A    between atoms: C1_7  and  C2_8 
REMARK    3  A    between atoms: C10_16  and  C8_14 
ROOT
HETATM    1  S1  UNK     1      18.695  -7.075  37.634  1.00  0.00    -0.075 SA
HETATM    2  N2  UNK     1      23.402  -5.459  38.712  1.00  0.00    -0.191 NA
HETATM    3  C1  UNK     1      20.894  -8.044  38.541  1.00  0.00    -0.022 A 
HETATM    4  C3  UNK     1      19.602  -8.402  38.224  1.00  0.00    -0.011 A 
HETATM    5  C4  UNK     1      21.142  -6.663  38.295  1.00  0.00     0.085 A 
HETATM    6  C5  UNK     1      20.038  -6.062  37.813  1.00  0.00     0.098 A 
HETATM    7  C7  UNK     1      18.952  -9.726  38.334  1.00  0.00     0.057 C 
HETATM    8  C16 UNK     1      22.389  -5.998  38.525  1.00  0.00     0.103 C 
ENDROOT
BRANCH   3   9
HETATM    9  C2  UNK     1      21.904  -8.995  39.074  1.00  0.00     0.037 C 
HETATM   10  C6  UNK     1      22.350  -8.637  40.493  1.00  0.00     0.010 C 
ENDBRANCH   3   9
BRANCH   6  11
HETATM   11  N1  UNK     1      19.826  -4.713  37.433  1.00  0.00    -0.316 N 
HETATM   12  C10 UNK     1      19.885  -4.174  36.156  1.00  0.00     0.262 C 
HETATM   13  O2  UNK     1      20.134  -4.752  35.099  1.00  0.00    -0.267 OA
HETATM   14  H3  UNK     1      19.587  -4.108  38.214  1.00  0.00     0.170 HD
BRANCH  12  15
HETATM   15  C8  UNK     1      19.606  -2.734  36.150  1.00  0.00     0.108 A 
HETATM   16  C11 UNK     1      18.425  -2.358  36.656  1.00  0.00     0.037 A 
HETATM   17  C9  UNK     1      18.058  -0.950  36.693  1.00  0.00    -0.001 A 
HETATM   18  C12 UNK     1      18.952  -0.008  36.195  1.00  0.00     0.089 A 
HETATM   19  C14 UNK     1      16.838  -0.513  37.213  1.00  0.00     0.014 A 
HETATM   20  O1  UNK     1      20.192  -0.410  35.663  1.00  0.00    -0.274 OA
HETATM   21  C15 UNK     1      18.661   1.354  36.201  1.00  0.00     0.038 A 
HETATM   22  C13 UNK     1      20.572  -1.749  35.614  1.00  0.00     0.304 A 
HETATM   23  O3  UNK     1      21.654  -2.090  35.148  1.00  0.00    -0.259 OA
HETATM   24  C18 UNK     1      17.441   1.783  36.721  1.00  0.00     0.003 A 
HETATM   25  C17 UNK     1      16.531   0.851  37.227  1.00  0.00     0.001 A 
ENDBRANCH  12  15
ENDBRANCH   6  11
TORSDOF 3
ENDMDL
MODEL 8
REMARK VINA RESULT:      -8.4      7.606     13.075
REMARK  3 active torsions:
REMARK  status: ('A' for Active; 'I' for Inactive)
REMARK       I    between atoms: C10_16  and  N1_5 
REMARK    1  A    between atoms: C5_11  and  N1_5 
REMARK    2  A    between atoms: C1_7  and  C2_8 
REMARK    3  A    between atoms: C10_16  and  C8_14 
ROOT
HETATM    1  S1  UNK     1      17.944   8.436  34.154  1.00  0.00    -0.075 SA
HETATM    2  N2  UNK     1      13.683   6.816  31.887  1.00  0.00    -0.191 NA
HETATM    3  C1  UNK     1      15.765   9.434  33.231  1.00  0.00    -0.022 A 
HETATM    4  C3  UNK     1      16.945   9.792  33.846  1.00  0.00    -0.011 A 
HETATM    5  C4  UNK     1      15.681   8.029  33.010  1.00  0.00     0.085 A 
HETATM    6  C5  UNK     1      16.788   7.412  33.464  1.00  0.00     0.098 A 
HETATM    7  C7  UNK     1      17.413  11.137  34.247  1.00  0.00     0.057 C 
HETATM    8  C16 UNK     1      14.579   7.359  32.390  1.00  0.00     0.103 C 
ENDROOT
BRANCH   3   9
HETATM    9  C2  UNK     1      14.710  10.407  32.846  1.00  0.00     0.037 C 
HETATM   10  C6  UNK     1      13.721  10.674  33.982  1.00  0.00     0.010 C 
ENDBRANCH   3   9
BRANCH   6  11
HETATM   11  N1  UNK     1      17.135   6.038  33.455  1.00  0.00    -0.316 N 
HETATM   12  C10 UNK     1      18.178   5.433  32.769  1.00  0.00     0.262 C 
HETATM   13  O2  UNK     1      19.010   5.961  32.032  1.00  0.00    -0.267 OA
HETATM   14  H3  UNK     1      16.537   5.467  34.047  1.00  0.00     0.170 HD
BRANCH  12  15
HETATM   15  C8  UNK     1      18.228   3.985  33.003  1.00  0.00     0.108 A 
HETATM   16  C11 UNK     1      18.301   3.594  34.281  1.00  0.00     0.037 A 
HETATM   17  C9  UNK     1      18.355   2.178  34.613  1.00  0.00    -0.001 A 
HETATM   18  C12 UNK     1      18.329   1.244  33.582  1.00  0.00     0.089 A 
HETATM   19  C14 UNK     1      18.430   1.725  35.932  1.00  0.00     0.014 A 
HETATM   20  O1  UNK     1      18.253   1.661  32.239  1.00  0.00    -0.274 OA
HETATM   21  C15 UNK     1      18.378  -0.126  33.833  1.00  0.00     0.038 A 
HETATM   22  C13 UNK     1      18.200   3.008  31.890  1.00  0.00     0.304 A 
HETATM   23  O3  UNK     1      18.134   3.363  30.718  1.00  0.00    -0.259 OA
HETATM   24  C18 UNK     1      18.454  -0.570  35.151  1.00  0.00     0.003 A 
HETATM   25  C17 UNK     1      18.479   0.354  36.199  1.00  0.00     0.001 A 
ENDBRANCH  12  15
ENDBRANCH   6  11
TORSDOF 3
ENDMDL
MODEL 9
REMARK VINA RESULT:      -8.4      7.759     12.605
REMARK  3 active torsions:
REMARK  status: ('A' for Active; 'I' for Inactive)
REMARK       I    between atoms: C10_16  and  N1_5 
REMARK    1  A    between atoms: C5_11  and  N1_5 
REMARK    2  A    between atoms: C1_7  and  C2_8 
REMARK    3  A    between atoms: C10_16  and  C8_14 
ROOT
HETATM    1  S1  UNK     1      19.540   7.106  33.668  1.00  0.00    -0.075 SA
HETATM    2  N2  UNK     1      14.828   6.213  31.957  1.00  0.00    -0.191 NA
HETATM    3  C1  UNK     1      17.345   8.397  33.333  1.00  0.00    -0.022 A 
HETATM    4  C3  UNK     1      18.638   8.557  33.779  1.00  0.00    -0.011 A 
HETATM    5  C4  UNK     1      17.091   7.065  32.894  1.00  0.00     0.085 A 
HETATM    6  C5  UNK     1      18.193   6.304  33.031  1.00  0.00     0.098 A 
HETATM    7  C7  UNK     1      19.294   9.771  34.314  1.00  0.00     0.057 C 
HETATM    8  C16 UNK     1      15.843   6.595  32.377  1.00  0.00     0.103 C 
ENDROOT
BRANCH   3   9
HETATM    9  C2  UNK     1      16.340   9.491  33.315  1.00  0.00     0.037 C 
HETATM   10  C6  UNK     1      15.513   9.544  34.601  1.00  0.00     0.010 C 
ENDBRANCH   3   9
BRANCH   6  11
HETATM   11  N1  UNK     1      18.400   4.936  32.725  1.00  0.00    -0.316 N 
HETATM   12  C10 UNK     1      18.446   4.346  31.470  1.00  0.00     0.262 C 
HETATM   13  O2  UNK     1      18.317   4.886  30.372  1.00  0.00    -0.267 OA
HETATM   14  H3  UNK     1      18.545   4.357  33.548  1.00  0.00     0.170 HD
BRANCH  12  15
HETATM   15  C8  UNK     1      18.681   2.899  31.547  1.00  0.00     0.108 A 
HETATM   16  C11 UNK     1      19.219   2.330  30.461  1.00  0.00     0.037 A 
HETATM   17  C9  UNK     1      19.489   0.900  30.442  1.00  0.00    -0.001 A 
HETATM   18  C12 UNK     1      19.179   0.141  31.566  1.00  0.00     0.089 A 
HETATM   19  C14 UNK     1      20.049   0.263  29.332  1.00  0.00     0.014 A 
HETATM   20  O1  UNK     1      18.613   0.746  32.705  1.00  0.00    -0.274 OA
HETATM   21  C15 UNK     1      19.413  -1.232  31.611  1.00  0.00     0.038 A 
HETATM   22  C13 UNK     1      18.344   2.112  32.754  1.00  0.00     0.304 A 
HETATM   23  O3  UNK     1      17.850   2.630  33.749  1.00  0.00    -0.259 OA
HETATM   24  C18 UNK     1      19.972  -1.860  30.500  1.00  0.00     0.003 A 
HETATM   25  C17 UNK     1      20.290  -1.114  29.362  1.00  0.00     0.001 A 
ENDBRANCH  12  15
ENDBRANCH   6  11
TORSDOF 3
ENDMDL
MODEL 10
REMARK VINA RESULT:      -8.3      7.410     12.102
REMARK  3 active torsions:
REMARK  status: ('A' for Active; 'I' for Inactive)
REMARK       I    between atoms: C10_16  and  N1_5 
REMARK    1  A    between atoms: C5_11  and  N1_5 
REMARK    2  A    between atoms: C1_7  and  C2_8 
REMARK    3  A    between atoms: C10_16  and  C8_14 
ROOT
HETATM    1  S1  UNK     1      16.889   6.290  34.008  1.00  0.00    -0.075 SA
HETATM    2  N2  UNK     1      21.758   6.712  32.579  1.00  0.00    -0.191 NA
HETATM    3  C1  UNK     1      18.689   8.115  33.848  1.00  0.00    -0.022 A 
HETATM    4  C3  UNK     1      17.376   7.919  34.216  1.00  0.00    -0.011 A 
HETATM    5  C4  UNK     1      19.303   6.914  33.390  1.00  0.00     0.085 A 
HETATM    6  C5  UNK     1      18.431   5.889  33.437  1.00  0.00     0.098 A 
HETATM    7  C7  UNK     1      16.400   8.901  34.737  1.00  0.00     0.057 C 
HETATM    8  C16 UNK     1      20.658   6.802  32.943  1.00  0.00     0.103 C 
ENDROOT
BRANCH   3   9
HETATM    9  C2  UNK     1      19.376   9.431  33.925  1.00  0.00     0.037 C 
HETATM   10  C6  UNK     1      20.609   9.393  34.829  1.00  0.00     0.010 C 
ENDBRANCH   3   9
BRANCH   6  11
HETATM   11  N1  UNK     1      18.602   4.528  33.083  1.00  0.00    -0.316 N 
HETATM   12  C10 UNK     1      18.027   3.853  32.016  1.00  0.00     0.262 C 
HETATM   13  O2  UNK     1      17.254   4.293  31.166  1.00  0.00    -0.267 OA
HETATM   14  H3  UNK     1      19.243   4.030  33.695  1.00  0.00     0.170 HD
BRANCH  12  15
HETATM   15  C8  UNK     1      18.439   2.445  31.965  1.00  0.00     0.108 A 
HETATM   16  C11 UNK     1      18.950   2.021  30.803  1.00  0.00     0.037 A 
HETATM   17  C9  UNK     1      19.388   0.641  30.655  1.00  0.00    -0.001 A 
HETATM   18  C12 UNK     1      19.266  -0.224  31.738  1.00  0.00     0.089 A 
HETATM   19  C14 UNK     1      19.927   0.155  29.462  1.00  0.00     0.014 A 
HETATM   20  O1  UNK     1      18.727   0.229  32.958  1.00  0.00    -0.274 OA
HETATM   21  C15 UNK     1      19.666  -1.556  31.661  1.00  0.00     0.038 A 
HETATM   22  C13 UNK     1      18.300   1.543  33.130  1.00  0.00     0.304 A 
HETATM   23  O3  UNK     1      17.831   1.928  34.196  1.00  0.00    -0.259 OA
HETATM   24  C18 UNK     1      20.203  -2.033  30.467  1.00  0.00     0.003 A 
HETATM   25  C17 UNK     1      20.334  -1.179  29.369  1.00  0.00     0.001 A 
ENDBRANCH  12  15
ENDBRANCH   6  11
TORSDOF 3
ENDMDL
