MODEL 1
REMARK VINA RESULT:      -8.6      0.000      0.000
REMARK  3 active torsions:
REMARK  status: ('A' for Active; 'I' for Inactive)
REMARK    1  A    between atoms: C7_16  and  N1_7 
REMARK    2  A    between atoms: C13_22  and  N2_8 
REMARK    3  A    between atoms: C1_10  and  C3_12 
ROOT
HETATM    1  O1  UNK     1      20.844  -2.641  15.372  1.00  0.00    -0.291 OA
HETATM    2  O2  UNK     1      22.676  -6.222  16.525  1.00  0.00    -0.274 OA
HETATM    3  O3  UNK     1      21.688  -7.295  14.774  1.00  0.00    -0.259 OA
HETATM    4  N3  UNK     1      18.535  -3.302  11.197  1.00  0.00    -0.191 NA
HETATM    5  C1  UNK     1      20.216  -4.997  13.856  1.00  0.00     0.110 C 
HETATM    6  C2  UNK     1      21.168  -4.990  15.037  1.00  0.00     0.066 A 
HETATM    7  C4  UNK     1      21.412  -3.856  15.712  1.00  0.00     0.104 A 
HETATM    8  C5  UNK     1      19.813  -3.588  13.432  1.00  0.00     0.086 C 
HETATM    9  C6  UNK     1      22.301  -3.843  16.870  1.00  0.00     0.033 A 
HETATM   10  C7  UNK     1      20.125  -2.508  14.186  1.00  0.00     0.159 C 
HETATM   11  C8  UNK     1      21.847  -6.259  15.410  1.00  0.00     0.298 A 
HETATM   12  C9  UNK     1      22.908  -5.036  17.249  1.00  0.00     0.092 A 
HETATM   13  C12 UNK     1      22.575  -2.695  17.624  1.00  0.00     0.017 A 
HETATM   14  C14 UNK     1      23.768  -5.116  18.344  1.00  0.00     0.038 A 
HETATM   15  C17 UNK     1      19.108  -3.430  12.197  1.00  0.00     0.100 C 
HETATM   16  C18 UNK     1      23.437  -2.759  18.725  1.00  0.00     0.001 A 
HETATM   17  C19 UNK     1      24.031  -3.968  19.083  1.00  0.00     0.003 A 
ENDROOT
BRANCH   5  18
HETATM   18  C3  UNK     1      18.995  -5.811  14.170  1.00  0.00    -0.020 A 
HETATM   19  C10 UNK     1      18.337  -5.570  15.371  1.00  0.00     0.046 A 
HETATM   20  C13 UNK     1      17.197  -6.306  15.697  1.00  0.00     0.103 A 
HETATM   21  C16 UNK     1      16.722  -7.281  14.818  1.00  0.00     0.038 A 
HETATM   22  C15 UNK     1      17.387  -7.519  13.616  1.00  0.00     0.027 A 
HETATM   23  C11 UNK     1      18.526  -6.782  13.290  1.00  0.00     0.041 A 
HETATM   24 Cl1  UNK     1      19.320  -7.103  11.792  1.00  0.00    -0.084 Cl
BRANCH  20  25
HETATM   25  N2  UNK     1      16.520  -6.064  16.921  1.00  0.00    -0.116 N 
HETATM   26  O4  UNK     1      16.479  -6.974  17.784  1.00  0.00    -0.532 OA
HETATM   27  O5  UNK     1      15.982  -4.946  17.107  1.00  0.00    -0.532 OA
ENDBRANCH  20  25
ENDBRANCH   5  18
BRANCH  10  28
HETATM   28  N1  UNK     1      19.789  -1.216  13.888  1.00  0.00    -0.379 N 
HETATM   29  H8  UNK     1      19.697  -0.948  12.917  1.00  0.00     0.158 HD
HETATM   30  H9  UNK     1      19.636  -0.536  14.620  1.00  0.00     0.158 HD
ENDBRANCH  10  28
TORSDOF 3
ENDMDL
MODEL 2
REMARK VINA RESULT:      -8.3     19.698     23.253
REMARK  3 active torsions:
REMARK  status: ('A' for Active; 'I' for Inactive)
REMARK    1  A    between atoms: C7_16  and  N1_7 
REMARK    2  A    between atoms: C13_22  and  N2_8 
REMARK    3  A    between atoms: C1_10  and  C3_12 
ROOT
HETATM    1  O1  UNK     1      30.621  -5.039  37.073  1.00  0.00    -0.291 OA
HETATM    2  O2  UNK     1      30.518  -9.222  37.090  1.00  0.00    -0.274 OA
HETATM    3  O3  UNK     1      32.268  -9.274  35.629  1.00  0.00    -0.259 OA
HETATM    4  N3  UNK     1      34.418  -3.546  34.512  1.00  0.00    -0.191 NA
HETATM    5  C1  UNK     1      32.458  -6.415  35.347  1.00  0.00     0.110 C 
HETATM    6  C2  UNK     1      31.468  -7.124  36.252  1.00  0.00     0.066 A 
HETATM    7  C4  UNK     1      30.627  -6.422  37.028  1.00  0.00     0.104 A 
HETATM    8  C5  UNK     1      32.520  -4.916  35.623  1.00  0.00     0.086 C 
HETATM    9  C6  UNK     1      29.648  -7.092  37.879  1.00  0.00     0.033 A 
HETATM   10  C7  UNK     1      31.625  -4.311  36.438  1.00  0.00     0.159 C 
HETATM   11  C8  UNK     1      31.471  -8.610  36.283  1.00  0.00     0.298 A 
HETATM   12  C9  UNK     1      29.619  -8.483  37.882  1.00  0.00     0.092 A 
HETATM   13  C12 UNK     1      28.734  -6.411  38.693  1.00  0.00     0.017 A 
HETATM   14  C14 UNK     1      28.715  -9.205  38.660  1.00  0.00     0.038 A 
HETATM   15  C17 UNK     1      33.569  -4.159  35.010  1.00  0.00     0.100 C 
HETATM   16  C18 UNK     1      27.821  -7.121  39.480  1.00  0.00     0.001 A 
HETATM   17  C19 UNK     1      27.812  -8.516  39.463  1.00  0.00     0.003 A 
ENDROOT
BRANCH   5  18
HETATM   18  C3  UNK     1      32.122  -6.662  33.905  1.00  0.00    -0.020 A 
HETATM   19  C10 UNK     1      30.870  -6.265  33.446  1.00  0.00     0.046 A 
HETATM   20  C13 UNK     1      30.522  -6.476  32.112  1.00  0.00     0.103 A 
HETATM   21  C16 UNK     1      31.429  -7.084  31.243  1.00  0.00     0.038 A 
HETATM   22  C15 UNK     1      32.683  -7.480  31.709  1.00  0.00     0.027 A 
HETATM   23  C11 UNK     1      33.030  -7.268  33.043  1.00  0.00     0.041 A 
HETATM   24 Cl1  UNK     1      34.591  -7.770  33.582  1.00  0.00    -0.084 Cl
BRANCH  20  25
HETATM   25  N2  UNK     1      29.246  -6.073  31.637  1.00  0.00    -0.116 N 
HETATM   26  O4  UNK     1      28.958  -6.264  30.432  1.00  0.00    -0.532 OA
HETATM   27  O5  UNK     1      28.441  -5.538  32.438  1.00  0.00    -0.532 OA
ENDBRANCH  20  25
ENDBRANCH   5  18
BRANCH  10  28
HETATM   28  N1  UNK     1      31.600  -2.973  36.726  1.00  0.00    -0.379 N 
HETATM   29  H8  UNK     1      31.163  -2.342  36.067  1.00  0.00     0.158 HD
HETATM   30  H9  UNK     1      32.012  -2.616  37.577  1.00  0.00     0.158 HD
ENDBRANCH  10  28
TORSDOF 3
ENDMDL
MODEL 3
REMARK VINA RESULT:      -8.1     21.061     23.982
REMARK  3 active torsions:
REMARK  status: ('A' for Active; 'I' for Inactive)
REMARK    1  A    between atoms: C7_16  and  N1_7 
REMARK    2  A    between atoms: C13_22  and  N2_8 
REMARK    3  A    between atoms: C1_10  and  C3_12 
ROOT
HETATM    1  O1  UNK     1      31.722  -5.699  35.968  1.00  0.00    -0.291 OA
HETATM    2  O2  UNK     1      28.818  -7.536  33.580  1.00  0.00    -0.274 OA
HETATM    3  O3  UNK     1      27.246  -7.143  35.184  1.00  0.00    -0.259 OA
HETATM    4  N3  UNK     1      29.622  -3.821  39.875  1.00  0.00    -0.191 NA
HETATM    5  C1  UNK     1      29.079  -5.955  37.060  1.00  0.00     0.110 C 
HETATM    6  C2  UNK     1      29.465  -6.447  35.678  1.00  0.00     0.066 A 
HETATM    7  C4  UNK     1      30.722  -6.306  35.229  1.00  0.00     0.104 A 
HETATM    8  C5  UNK     1      30.181  -5.120  37.704  1.00  0.00     0.086 C 
HETATM    9  C6  UNK     1      31.114  -6.804  33.913  1.00  0.00     0.033 A 
HETATM   10  C7  UNK     1      31.415  -5.037  37.155  1.00  0.00     0.159 C 
HETATM   11  C8  UNK     1      28.415  -7.057  34.822  1.00  0.00     0.298 A 
HETATM   12  C9  UNK     1      30.144  -7.413  33.123  1.00  0.00     0.092 A 
HETATM   13  C12 UNK     1      32.414  -6.704  33.403  1.00  0.00     0.017 A 
HETATM   14  C14 UNK     1      30.430  -7.920  31.856  1.00  0.00     0.038 A 
HETATM   15  C17 UNK     1      29.872  -4.401  38.903  1.00  0.00     0.100 C 
HETATM   16  C18 UNK     1      32.716  -7.207  32.132  1.00  0.00     0.001 A 
HETATM   17  C19 UNK     1      31.726  -7.814  31.362  1.00  0.00     0.003 A 
ENDROOT
BRANCH   5  18
HETATM   18  C3  UNK     1      28.722  -7.111  37.949  1.00  0.00    -0.020 A 
HETATM   19  C10 UNK     1      29.620  -8.169  38.041  1.00  0.00     0.046 A 
HETATM   20  C13 UNK     1      29.324  -9.261  38.857  1.00  0.00     0.103 A 
HETATM   21  C16 UNK     1      28.129  -9.288  39.577  1.00  0.00     0.038 A 
HETATM   22  C15 UNK     1      27.231  -8.225  39.480  1.00  0.00     0.027 A 
HETATM   23  C11 UNK     1      27.529  -7.133  38.664  1.00  0.00     0.041 A 
HETATM   24 Cl1  UNK     1      26.395  -5.836  38.571  1.00  0.00    -0.084 Cl
BRANCH  20  25
HETATM   25  N2  UNK     1      30.237 -10.344  38.957  1.00  0.00    -0.116 N 
HETATM   26  O4  UNK     1      31.100 -10.495  38.060  1.00  0.00    -0.532 OA
HETATM   27  O5  UNK     1      30.156 -11.118  39.941  1.00  0.00    -0.532 OA
ENDBRANCH  20  25
ENDBRANCH   5  18
BRANCH  10  28
HETATM   28  N1  UNK     1      32.463  -4.325  37.674  1.00  0.00    -0.379 N 
HETATM   29  H8  UNK     1      32.994  -4.726  38.436  1.00  0.00     0.158 HD
HETATM   30  H9  UNK     1      32.704  -3.414  37.309  1.00  0.00     0.158 HD
ENDBRANCH  10  28
TORSDOF 3
ENDMDL
MODEL 4
REMARK VINA RESULT:      -8.1     17.900     21.197
REMARK  3 active torsions:
REMARK  status: ('A' for Active; 'I' for Inactive)
REMARK    1  A    between atoms: C7_16  and  N1_7 
REMARK    2  A    between atoms: C13_22  and  N2_8 
REMARK    3  A    between atoms: C1_10  and  C3_12 
ROOT
HETATM    1  O1  UNK     1      34.426  -6.959  32.317  1.00  0.00    -0.291 OA
HETATM    2  O2  UNK     1      31.763  -7.635  35.472  1.00  0.00    -0.274 OA
HETATM    3  O3  UNK     1      30.288  -8.599  34.026  1.00  0.00    -0.259 OA
HETATM    4  N3  UNK     1      32.709  -9.011  28.312  1.00  0.00    -0.191 NA
HETATM    5  C1  UNK     1      31.885  -8.131  31.676  1.00  0.00     0.110 C 
HETATM    6  C2  UNK     1      32.301  -7.752  33.084  1.00  0.00     0.066 A 
HETATM    7  C4  UNK     1      33.500  -7.197  33.317  1.00  0.00     0.104 A 
HETATM    8  C5  UNK     1      33.041  -8.028  30.686  1.00  0.00     0.086 C 
HETATM    9  C6  UNK     1      33.900  -6.799  34.664  1.00  0.00     0.033 A 
HETATM   10  C7  UNK     1      34.218  -7.459  31.033  1.00  0.00     0.159 C 
HETATM   11  C8  UNK     1      31.364  -8.038  34.203  1.00  0.00     0.298 A 
HETATM   12  C9  UNK     1      33.011  -7.027  35.710  1.00  0.00     0.092 A 
HETATM   13  C12 UNK     1      35.128  -6.197  34.962  1.00  0.00     0.017 A 
HETATM   14  C14 UNK     1      33.307  -6.675  37.026  1.00  0.00     0.038 A 
HETATM   15  C17 UNK     1      32.858  -8.572  29.374  1.00  0.00     0.100 C 
HETATM   16  C18 UNK     1      35.441  -5.839  36.278  1.00  0.00     0.001 A 
HETATM   17  C19 UNK     1      34.531  -6.077  37.307  1.00  0.00     0.003 A 
ENDROOT
BRANCH   5  18
HETATM   18  C3  UNK     1      30.737  -7.278  31.219  1.00  0.00    -0.020 A 
HETATM   19  C10 UNK     1      30.926  -5.902  31.160  1.00  0.00     0.046 A 
HETATM   20  C13 UNK     1      29.882  -5.076  30.740  1.00  0.00     0.103 A 
HETATM   21  C16 UNK     1      28.654  -5.634  30.380  1.00  0.00     0.038 A 
HETATM   22  C15 UNK     1      28.471  -7.015  30.442  1.00  0.00     0.027 A 
HETATM   23  C11 UNK     1      29.515  -7.839  30.862  1.00  0.00     0.041 A 
HETATM   24 Cl1  UNK     1      29.251  -9.544  30.923  1.00  0.00    -0.084 Cl
BRANCH  20  25
HETATM   25  N2  UNK     1      30.069  -3.670  30.677  1.00  0.00    -0.116 N 
HETATM   26  O4  UNK     1      29.970  -2.996  31.729  1.00  0.00    -0.532 OA
HETATM   27  O5  UNK     1      30.329  -3.141  29.569  1.00  0.00    -0.532 OA
ENDBRANCH  20  25
ENDBRANCH   5  18
BRANCH  10  28
HETATM   28  N1  UNK     1      35.297  -7.312  30.204  1.00  0.00    -0.379 N 
HETATM   29  H8  UNK     1      36.078  -7.948  30.304  1.00  0.00     0.158 HD
HETATM   30  H9  UNK     1      35.322  -6.582  29.505  1.00  0.00     0.158 HD
ENDBRANCH  10  28
TORSDOF 3
ENDMDL
MODEL 5
REMARK VINA RESULT:      -8.0     19.065     22.596
REMARK  3 active torsions:
REMARK  status: ('A' for Active; 'I' for Inactive)
REMARK    1  A    between atoms: C7_16  and  N1_7 
REMARK    2  A    between atoms: C13_22  and  N2_8 
REMARK    3  A    between atoms: C1_10  and  C3_12 
ROOT
HETATM    1  O1  UNK     1      32.573  -4.702  35.670  1.00  0.00    -0.291 OA
HETATM    2  O2  UNK     1      29.945  -7.782  36.727  1.00  0.00    -0.274 OA
HETATM    3  O3  UNK     1      30.934  -9.154  35.199  1.00  0.00    -0.259 OA
HETATM    4  N3  UNK     1      35.830  -6.384  32.546  1.00  0.00    -0.191 NA
HETATM    5  C1  UNK     1      32.763  -7.164  34.207  1.00  0.00     0.110 C 
HETATM    6  C2  UNK     1      31.770  -6.932  35.329  1.00  0.00     0.066 A 
HETATM    7  C4  UNK     1      31.724  -5.753  35.968  1.00  0.00     0.104 A 
HETATM    8  C5  UNK     1      33.785  -6.037  34.098  1.00  0.00     0.086 C 
HETATM    9  C6  UNK     1      30.751  -5.506  37.029  1.00  0.00     0.033 A 
HETATM   10  C7  UNK     1      33.647  -4.890  34.803  1.00  0.00     0.159 C 
HETATM   11  C8  UNK     1      30.871  -8.048  35.726  1.00  0.00     0.298 A 
HETATM   12  C9  UNK     1      29.880  -6.534  37.377  1.00  0.00     0.092 A 
HETATM   13  C12 UNK     1      30.644  -4.290  37.714  1.00  0.00     0.017 A 
HETATM   14  C14 UNK     1      28.917  -6.385  38.375  1.00  0.00     0.038 A 
HETATM   15  C17 UNK     1      34.915  -6.229  33.241  1.00  0.00     0.100 C 
HETATM   16  C18 UNK     1      29.683  -4.125  38.719  1.00  0.00     0.001 A 
HETATM   17  C19 UNK     1      28.822  -5.171  39.047  1.00  0.00     0.003 A 
ENDROOT
BRANCH   5  18
HETATM   18  C3  UNK     1      32.047  -7.340  32.899  1.00  0.00    -0.020 A 
HETATM   19  C10 UNK     1      31.159  -6.348  32.500  1.00  0.00     0.046 A 
HETATM   20  C13 UNK     1      30.475  -6.475  31.290  1.00  0.00     0.103 A 
HETATM   21  C16 UNK     1      30.685  -7.596  30.486  1.00  0.00     0.038 A 
HETATM   22  C15 UNK     1      31.577  -8.589  30.892  1.00  0.00     0.027 A 
HETATM   23  C11 UNK     1      32.260  -8.460  32.102  1.00  0.00     0.041 A 
HETATM   24 Cl1  UNK     1      33.357  -9.708  32.570  1.00  0.00    -0.084 Cl
BRANCH  20  25
HETATM   25  N2  UNK     1      29.567  -5.465  30.876  1.00  0.00    -0.116 N 
HETATM   26  O4  UNK     1      29.915  -4.263  30.960  1.00  0.00    -0.532 OA
HETATM   27  O5  UNK     1      28.442  -5.803  30.435  1.00  0.00    -0.532 OA
ENDBRANCH  20  25
ENDBRANCH   5  18
BRANCH  10  28
HETATM   28  N1  UNK     1      34.506  -3.826  34.752  1.00  0.00    -0.379 N 
HETATM   29  H8  UNK     1      35.449  -3.944  35.100  1.00  0.00     0.158 HD
HETATM   30  H9  UNK     1      34.209  -2.935  34.378  1.00  0.00     0.158 HD
ENDBRANCH  10  28
TORSDOF 3
ENDMDL
MODEL 6
REMARK VINA RESULT:      -7.9     21.370     24.193
REMARK  3 active torsions:
REMARK  status: ('A' for Active; 'I' for Inactive)
REMARK    1  A    between atoms: C7_16  and  N1_7 
REMARK    2  A    between atoms: C13_22  and  N2_8 
REMARK    3  A    between atoms: C1_10  and  C3_12 
ROOT
HETATM    1  O1  UNK     1      32.504  -8.690  35.713  1.00  0.00    -0.291 OA
HETATM    2  O2  UNK     1      28.926  -8.440  33.559  1.00  0.00    -0.274 OA
HETATM    3  O3  UNK     1      28.265  -6.684  34.854  1.00  0.00    -0.259 OA
HETATM    4  N3  UNK     1      32.757  -5.018  38.820  1.00  0.00    -0.191 NA
HETATM    5  C1  UNK     1      30.582  -6.734  36.563  1.00  0.00     0.110 C 
HETATM    6  C2  UNK     1      30.364  -7.666  35.386  1.00  0.00     0.066 A 
HETATM    7  C4  UNK     1      31.298  -8.567  35.046  1.00  0.00     0.104 A 
HETATM    8  C5  UNK     1      32.010  -6.800  37.094  1.00  0.00     0.086 C 
HETATM    9  C6  UNK     1      31.087  -9.491  33.935  1.00  0.00     0.033 A 
HETATM   10  C7  UNK     1      32.878  -7.747  36.669  1.00  0.00     0.159 C 
HETATM   11  C8  UNK     1      29.108  -7.538  34.601  1.00  0.00     0.298 A 
HETATM   12  C9  UNK     1      29.896  -9.403  33.221  1.00  0.00     0.092 A 
HETATM   13  C12 UNK     1      32.017 -10.464  33.549  1.00  0.00     0.017 A 
HETATM   14  C14 UNK     1      29.609 -10.247  32.149  1.00  0.00     0.038 A 
HETATM   15  C17 UNK     1      32.423  -5.815  38.047  1.00  0.00     0.100 C 
HETATM   16  C18 UNK     1      31.744 -11.319  32.475  1.00  0.00     0.001 A 
HETATM   17  C19 UNK     1      30.542 -11.210  31.777  1.00  0.00     0.003 A 
ENDROOT
BRANCH   5  18
HETATM   18  C3  UNK     1      29.607  -7.040  37.663  1.00  0.00    -0.020 A 
HETATM   19  C10 UNK     1      29.364  -8.374  37.972  1.00  0.00     0.046 A 
HETATM   20  C13 UNK     1      28.466  -8.698  38.989  1.00  0.00     0.103 A 
HETATM   21  C16 UNK     1      27.814  -7.684  39.692  1.00  0.00     0.038 A 
HETATM   22  C15 UNK     1      28.061  -6.347  39.377  1.00  0.00     0.027 A 
HETATM   23  C11 UNK     1      28.960  -6.025  38.360  1.00  0.00     0.041 A 
HETATM   24 Cl1  UNK     1      29.241  -4.360  38.001  1.00  0.00    -0.084 Cl
BRANCH  20  25
HETATM   25  N2  UNK     1      28.214 -10.058  39.310  1.00  0.00    -0.116 N 
HETATM   26  O4  UNK     1      29.112 -10.725  39.876  1.00  0.00    -0.532 OA
HETATM   27  O5  UNK     1      27.099 -10.554  39.020  1.00  0.00    -0.532 OA
ENDBRANCH  20  25
ENDBRANCH   5  18
BRANCH  10  28
HETATM   28  N1  UNK     1      34.168  -7.887  37.104  1.00  0.00    -0.379 N 
HETATM   29  H8  UNK     1      34.331  -8.154  38.066  1.00  0.00     0.158 HD
HETATM   30  H9  UNK     1      34.947  -7.725  36.481  1.00  0.00     0.158 HD
ENDBRANCH  10  28
TORSDOF 3
ENDMDL
MODEL 7
REMARK VINA RESULT:      -7.9     18.187     21.627
REMARK  3 active torsions:
REMARK  status: ('A' for Active; 'I' for Inactive)
REMARK    1  A    between atoms: C7_16  and  N1_7 
REMARK    2  A    between atoms: C13_22  and  N2_8 
REMARK    3  A    between atoms: C1_10  and  C3_12 
ROOT
HETATM    1  O1  UNK     1      34.827  -6.656  33.182  1.00  0.00    -0.291 OA
HETATM    2  O2  UNK     1      32.104  -9.295  34.951  1.00  0.00    -0.274 OA
HETATM    3  O3  UNK     1      31.625 -10.178  32.904  1.00  0.00    -0.259 OA
HETATM    4  N3  UNK     1      35.248  -7.697  28.498  1.00  0.00    -0.191 NA
HETATM    5  C1  UNK     1      33.339  -8.385  31.440  1.00  0.00     0.110 C 
HETATM    6  C2  UNK     1      33.186  -8.385  32.949  1.00  0.00     0.066 A 
HETATM    7  C4  UNK     1      33.905  -7.543  33.708  1.00  0.00     0.104 A 
HETATM    8  C5  UNK     1      34.517  -7.534  30.979  1.00  0.00     0.086 C 
HETATM    9  C6  UNK     1      33.745  -7.511  35.160  1.00  0.00     0.033 A 
HETATM   10  C7  UNK     1      35.183  -6.727  31.837  1.00  0.00     0.159 C 
HETATM   11  C8  UNK     1      32.249  -9.357  33.569  1.00  0.00     0.298 A 
HETATM   12  C9  UNK     1      32.838  -8.391  35.742  1.00  0.00     0.092 A 
HETATM   13  C12 UNK     1      34.451  -6.640  35.998  1.00  0.00     0.017 A 
HETATM   14  C14 UNK     1      32.619  -8.427  37.119  1.00  0.00     0.038 A 
HETATM   15  C17 UNK     1      34.922  -7.624  29.609  1.00  0.00     0.100 C 
HETATM   16  C18 UNK     1      34.242  -6.664  37.382  1.00  0.00     0.001 A 
HETATM   17  C19 UNK     1      33.327  -7.555  37.940  1.00  0.00     0.003 A 
ENDROOT
BRANCH   5  18
HETATM   18  C3  UNK     1      32.073  -7.914  30.784  1.00  0.00    -0.020 A 
HETATM   19  C10 UNK     1      31.539  -6.696  31.191  1.00  0.00     0.046 A 
HETATM   20  C13 UNK     1      30.365  -6.224  30.604  1.00  0.00     0.103 A 
HETATM   21  C16 UNK     1      29.731  -6.973  29.611  1.00  0.00     0.038 A 
HETATM   22  C15 UNK     1      30.272  -8.194  29.208  1.00  0.00     0.027 A 
HETATM   23  C11 UNK     1      31.446  -8.665  29.796  1.00  0.00     0.041 A 
HETATM   24 Cl1  UNK     1      32.086 -10.180  29.269  1.00  0.00    -0.084 Cl
BRANCH  20  25
HETATM   25  N2  UNK     1      29.814  -4.981  31.014  1.00  0.00    -0.116 N 
HETATM   26  O4  UNK     1      30.038  -3.959  30.322  1.00  0.00    -0.532 OA
HETATM   27  O5  UNK     1      29.116  -4.940  32.056  1.00  0.00    -0.532 OA
ENDBRANCH  20  25
ENDBRANCH   5  18
BRANCH  10  28
HETATM   28  N1  UNK     1      36.238  -5.921  31.504  1.00  0.00    -0.379 N 
HETATM   29  H8  UNK     1      36.210  -4.946  31.772  1.00  0.00     0.158 HD
HETATM   30  H9  UNK     1      37.032  -6.287  30.997  1.00  0.00     0.158 HD
ENDBRANCH  10  28
TORSDOF 3
ENDMDL
MODEL 8
REMARK VINA RESULT:      -7.9     19.345     22.802
REMARK  3 active torsions:
REMARK  status: ('A' for Active; 'I' for Inactive)
REMARK    1  A    between atoms: C7_16  and  N1_7 
REMARK    2  A    between atoms: C13_22  and  N2_8 
REMARK    3  A    between atoms: C1_10  and  C3_12 
ROOT
HETATM    1  O1  UNK     1      29.534  -6.458  32.630  1.00  0.00    -0.291 OA
HETATM    2  O2  UNK     1      33.189  -8.487  32.812  1.00  0.00    -0.274 OA
HETATM    3  O3  UNK     1      32.809  -8.982  35.004  1.00  0.00    -0.259 OA
HETATM    4  N3  UNK     1      27.176  -7.041  36.790  1.00  0.00    -0.191 NA
HETATM    5  C1  UNK     1      30.323  -7.539  35.170  1.00  0.00     0.110 C 
HETATM    6  C2  UNK     1      31.157  -7.669  33.910  1.00  0.00     0.066 A 
HETATM    7  C4  UNK     1      30.737  -7.131  32.754  1.00  0.00     0.104 A 
HETATM    8  C5  UNK     1      28.934  -6.975  34.888  1.00  0.00     0.086 C 
HETATM    9  C6  UNK     1      31.545  -7.221  31.541  1.00  0.00     0.033 A 
HETATM   10  C7  UNK     1      28.612  -6.468  33.675  1.00  0.00     0.159 C 
HETATM   11  C8  UNK     1      32.432  -8.430  33.976  1.00  0.00     0.298 A 
HETATM   12  C9  UNK     1      32.759  -7.898  31.607  1.00  0.00     0.092 A 
HETATM   13  C12 UNK     1      31.167  -6.662  30.315  1.00  0.00     0.017 A 
HETATM   14  C14 UNK     1      33.597  -8.029  30.500  1.00  0.00     0.038 A 
HETATM   15  C17 UNK     1      27.963  -7.012  35.938  1.00  0.00     0.100 C 
HETATM   16  C18 UNK     1      31.996  -6.786  29.194  1.00  0.00     0.001 A 
HETATM   17  C19 UNK     1      33.209  -7.468  29.288  1.00  0.00     0.003 A 
ENDROOT
BRANCH   5  18
HETATM   18  C3  UNK     1      31.030  -6.687  36.184  1.00  0.00    -0.020 A 
HETATM   19  C10 UNK     1      31.422  -5.407  35.805  1.00  0.00     0.046 A 
HETATM   20  C13 UNK     1      32.081  -4.585  36.719  1.00  0.00     0.103 A 
HETATM   21  C16 UNK     1      32.345  -5.049  38.009  1.00  0.00     0.038 A 
HETATM   22  C15 UNK     1      31.950  -6.333  38.383  1.00  0.00     0.027 A 
HETATM   23  C11 UNK     1      31.291  -7.154  37.467  1.00  0.00     0.041 A 
HETATM   24 Cl1  UNK     1      30.816  -8.737  37.967  1.00  0.00    -0.084 Cl
BRANCH  20  25
HETATM   25  N2  UNK     1      32.483  -3.278  36.339  1.00  0.00    -0.116 N 
HETATM   26  O4  UNK     1      33.578  -3.126  35.748  1.00  0.00    -0.532 OA
HETATM   27  O5  UNK     1      31.730  -2.309  36.605  1.00  0.00    -0.532 OA
ENDBRANCH  20  25
ENDBRANCH   5  18
BRANCH  10  28
HETATM   28  N1  UNK     1      27.399  -5.929  33.343  1.00  0.00    -0.379 N 
HETATM   29  H8  UNK     1      26.809  -6.424  32.687  1.00  0.00     0.158 HD
HETATM   30  H9  UNK     1      27.093  -5.051  33.741  1.00  0.00     0.158 HD
ENDBRANCH  10  28
TORSDOF 3
ENDMDL
MODEL 9
REMARK VINA RESULT:      -7.9     17.863     21.552
REMARK  3 active torsions:
REMARK  status: ('A' for Active; 'I' for Inactive)
REMARK    1  A    between atoms: C7_16  and  N1_7 
REMARK    2  A    between atoms: C13_22  and  N2_8 
REMARK    3  A    between atoms: C1_10  and  C3_12 
ROOT
HETATM    1  O1  UNK     1      29.928  -7.008  31.326  1.00  0.00    -0.291 OA
HETATM    2  O2  UNK     1      31.043 -11.040  31.293  1.00  0.00    -0.274 OA
HETATM    3  O3  UNK     1      32.381 -10.689  33.105  1.00  0.00    -0.259 OA
HETATM    4  N3  UNK     1      31.811  -4.862  35.206  1.00  0.00    -0.191 NA
HETATM    5  C1  UNK     1      31.872  -7.859  33.259  1.00  0.00     0.110 C 
HETATM    6  C2  UNK     1      31.239  -8.790  32.242  1.00  0.00     0.066 A 
HETATM    7  C4  UNK     1      30.343  -8.327  31.357  1.00  0.00     0.104 A 
HETATM    8  C5  UNK     1      31.201  -6.489  33.284  1.00  0.00     0.086 C 
HETATM    9  C6  UNK     1      29.750  -9.206  30.353  1.00  0.00     0.033 A 
HETATM   10  C7  UNK     1      30.295  -6.131  32.344  1.00  0.00     0.159 C 
HETATM   11  C8  UNK     1      31.610 -10.229  32.269  1.00  0.00     0.298 A 
HETATM   12  C9  UNK     1      30.124 -10.546  30.347  1.00  0.00     0.092 A 
HETATM   13  C12 UNK     1      28.827  -8.774  29.393  1.00  0.00     0.017 A 
HETATM   14  C14 UNK     1      29.611 -11.456  29.422  1.00  0.00     0.038 A 
HETATM   15  C17 UNK     1      31.537  -5.591  34.346  1.00  0.00     0.100 C 
HETATM   16  C18 UNK     1      28.303  -9.675  28.458  1.00  0.00     0.001 A 
HETATM   17  C19 UNK     1      28.695 -11.012  28.474  1.00  0.00     0.003 A 
ENDROOT
BRANCH   5  18
HETATM   18  C3  UNK     1      33.342  -7.708  32.990  1.00  0.00    -0.020 A 
HETATM   19  C10 UNK     1      33.751  -7.515  31.675  1.00  0.00     0.046 A 
HETATM   20  C13 UNK     1      35.108  -7.370  31.386  1.00  0.00     0.103 A 
HETATM   21  C16 UNK     1      36.049  -7.419  32.416  1.00  0.00     0.038 A 
HETATM   22  C15 UNK     1      35.632  -7.614  33.732  1.00  0.00     0.027 A 
HETATM   23  C11 UNK     1      34.275  -7.758  34.021  1.00  0.00     0.041 A 
HETATM   24 Cl1  UNK     1      33.798  -7.996  35.662  1.00  0.00    -0.084 Cl
BRANCH  20  25
HETATM   25  N2  UNK     1      35.533  -7.171  30.046  1.00  0.00    -0.116 N 
HETATM   26  O4  UNK     1      35.619  -6.002  29.602  1.00  0.00    -0.532 OA
HETATM   27  O5  UNK     1      35.813  -8.173  29.343  1.00  0.00    -0.532 OA
ENDBRANCH  20  25
ENDBRANCH   5  18
BRANCH  10  28
HETATM   28  N1  UNK     1      29.659  -4.920  32.284  1.00  0.00    -0.379 N 
HETATM   29  H8  UNK     1      28.728  -4.878  31.891  1.00  0.00     0.158 HD
HETATM   30  H9  UNK     1      30.107  -4.080  32.623  1.00  0.00     0.158 HD
ENDBRANCH  10  28
TORSDOF 3
ENDMDL
MODEL 10
REMARK VINA RESULT:      -7.9     18.613     22.329
REMARK  3 active torsions:
REMARK  status: ('A' for Active; 'I' for Inactive)
REMARK    1  A    between atoms: C7_16  and  N1_7 
REMARK    2  A    between atoms: C13_22  and  N2_8 
REMARK    3  A    between atoms: C1_10  and  C3_12 
ROOT
HETATM    1  O1  UNK     1      31.762  -8.873  31.006  1.00  0.00    -0.291 OA
HETATM    2  O2  UNK     1      29.449  -5.731  32.516  1.00  0.00    -0.274 OA
HETATM    3  O3  UNK     1      31.284  -4.882  33.569  1.00  0.00    -0.259 OA
HETATM    4  N3  UNK     1      36.384  -8.148  32.152  1.00  0.00    -0.191 NA
HETATM    5  C1  UNK     1      33.054  -7.006  32.763  1.00  0.00     0.110 C 
HETATM    6  C2  UNK     1      31.594  -6.907  32.362  1.00  0.00     0.066 A 
HETATM    7  C4  UNK     1      31.047  -7.819  31.544  1.00  0.00     0.104 A 
HETATM    8  C5  UNK     1      33.802  -8.064  31.959  1.00  0.00     0.086 C 
HETATM    9  C6  UNK     1      29.635  -7.753  31.176  1.00  0.00     0.033 A 
HETATM   10  C7  UNK     1      33.147  -8.929  31.149  1.00  0.00     0.159 C 
HETATM   11  C8  UNK     1      30.794  -5.761  32.869  1.00  0.00     0.298 A 
HETATM   12  C9  UNK     1      28.870  -6.705  31.681  1.00  0.00     0.092 A 
HETATM   13  C12 UNK     1      29.006  -8.688  30.345  1.00  0.00     0.017 A 
HETATM   14  C14 UNK     1      27.515  -6.566  31.385  1.00  0.00     0.038 A 
HETATM   15  C17 UNK     1      35.229  -8.110  32.065  1.00  0.00     0.100 C 
HETATM   16  C18 UNK     1      27.646  -8.562  30.038  1.00  0.00     0.001 A 
HETATM   17  C19 UNK     1      26.903  -7.503  30.558  1.00  0.00     0.003 A 
ENDROOT
BRANCH   5  18
HETATM   18  C3  UNK     1      33.177  -7.289  34.232  1.00  0.00    -0.020 A 
HETATM   19  C10 UNK     1      32.472  -8.369  34.752  1.00  0.00     0.046 A 
HETATM   20  C13 UNK     1      32.562  -8.665  36.113  1.00  0.00     0.103 A 
HETATM   21  C16 UNK     1      33.359  -7.879  36.946  1.00  0.00     0.038 A 
HETATM   22  C15 UNK     1      34.064  -6.797  36.418  1.00  0.00     0.027 A 
HETATM   23  C11 UNK     1      33.973  -6.502  35.057  1.00  0.00     0.041 A 
HETATM   24 Cl1  UNK     1      34.861  -5.156  34.440  1.00  0.00    -0.084 Cl
BRANCH  20  25
HETATM   25  N2  UNK     1      31.845  -9.767  36.651  1.00  0.00    -0.116 N 
HETATM   26  O4  UNK     1      31.593 -10.747  35.911  1.00  0.00    -0.532 OA
HETATM   27  O5  UNK     1      31.486  -9.729  37.852  1.00  0.00    -0.532 OA
ENDBRANCH  20  25
ENDBRANCH   5  18
BRANCH  10  28
HETATM   28  N1  UNK     1      33.738  -9.916  30.408  1.00  0.00    -0.379 N 
HETATM   29  H8  UNK     1      33.264 -10.254  29.581  1.00  0.00     0.158 HD
HETATM   30  H9  UNK     1      34.631 -10.305  30.678  1.00  0.00     0.158 HD
ENDBRANCH  10  28
TORSDOF 3
ENDMDL
