MODEL 1
REMARK VINA RESULT:      -9.5      0.000      0.000
REMARK  4 active torsions:
REMARK  status: ('A' for Active; 'I' for Inactive)
REMARK    1  A    between atoms: C11_18  and  N1_6 
REMARK    2  A    between atoms: C4_11  and  N1_6 
REMARK    3  A    between atoms: C11_18  and  N2_7 
REMARK    4  A    between atoms: C12_19  and  N2_7 
ROOT
HETATM    1  N1  UNK     1      19.348   3.848  30.050  1.00  0.00    -0.333 N 
HETATM    2  H8  UNK     1      20.092   4.024  29.377  1.00  0.00     0.168 HD
ENDROOT
BRANCH   1   3
HETATM    3  C11 UNK     1      18.810   2.558  29.950  1.00  0.00     0.176 C 
HETATM    4  S1  UNK     1      17.824   2.231  28.623  1.00  0.00    -0.041 SA
BRANCH   3   5
HETATM    5  N2  UNK     1      19.245   1.650  30.898  1.00  0.00    -0.333 N 
HETATM    6  H9  UNK     1      19.609   2.083  31.740  1.00  0.00     0.168 HD
BRANCH   5   7
HETATM    7  C12 UNK     1      19.733   0.326  30.765  1.00  0.00     0.036 A 
HETATM    8  C13 UNK     1      19.832  -0.474  31.890  1.00  0.00     0.056 A 
HETATM    9  C15 UNK     1      20.313  -1.777  31.759  1.00  0.00     0.074 A 
HETATM   10 Cl1  UNK     1      20.443  -2.786  33.148  1.00  0.00    -0.081 Cl
HETATM   11  C17 UNK     1      20.689  -2.259  30.505  1.00  0.00     0.138 A 
HETATM   12  C16 UNK     1      20.583  -1.437  29.382  1.00  0.00     0.046 A 
HETATM   13  F1  UNK     1      21.154  -3.508  30.362  1.00  0.00    -0.204 F 
HETATM   14  C14 UNK     1      20.101  -0.136  29.513  1.00  0.00     0.032 A 
ENDBRANCH   5   7
ENDBRANCH   3   5
ENDBRANCH   1   3
BRANCH   1  15
HETATM   15  C4  UNK     1      19.203   4.847  31.013  1.00  0.00     0.036 A 
HETATM   16  C5  UNK     1      17.952   5.117  31.557  1.00  0.00     0.067 A 
HETATM   17  C2  UNK     1      17.829   6.120  32.519  1.00  0.00     0.092 A 
HETATM   18  C1  UNK     1      18.923   6.867  32.961  1.00  0.00     0.004 A 
HETATM   19  O1  UNK     1      16.538   6.347  33.034  1.00  0.00    -0.275 OA
HETATM   20  C3  UNK     1      18.702   7.904  33.978  1.00  0.00    -0.043 A 
HETATM   21  C6  UNK     1      20.175   6.580  32.400  1.00  0.00     0.017 A 
HETATM   22  C8  UNK     1      17.463   8.098  34.449  1.00  0.00     0.090 A 
HETATM   23  C9  UNK     1      19.857   8.725  34.473  1.00  0.00     0.049 C 
HETATM   24  C10 UNK     1      16.299   7.318  33.994  1.00  0.00     0.288 A 
HETATM   25  O2  UNK     1      15.179   7.523  34.447  1.00  0.00    -0.260 OA
HETATM   26  C7  UNK     1      20.314   5.577  31.433  1.00  0.00     0.030 A 
ENDBRANCH   1  15
TORSDOF 4
ENDMDL
MODEL 2
REMARK VINA RESULT:      -9.3      9.027     13.203
REMARK  4 active torsions:
REMARK  status: ('A' for Active; 'I' for Inactive)
REMARK    1  A    between atoms: C11_18  and  N1_6 
REMARK    2  A    between atoms: C4_11  and  N1_6 
REMARK    3  A    between atoms: C11_18  and  N2_7 
REMARK    4  A    between atoms: C12_19  and  N2_7 
ROOT
HETATM    1  N1  UNK     1      19.208  -4.965  35.898  1.00  0.00    -0.333 N 
HETATM    2  H8  UNK     1      18.773  -4.855  34.984  1.00  0.00     0.168 HD
ENDROOT
BRANCH   1   3
HETATM    3  C11 UNK     1      19.276  -3.768  36.624  1.00  0.00     0.176 C 
HETATM    4  S1  UNK     1      20.756  -3.371  37.325  1.00  0.00    -0.041 SA
BRANCH   3   5
HETATM    5  N2  UNK     1      18.141  -2.979  36.589  1.00  0.00    -0.333 N 
HETATM    6  H9  UNK     1      17.339  -3.437  36.168  1.00  0.00     0.168 HD
BRANCH   5   7
HETATM    7  C12 UNK     1      17.988  -1.570  36.556  1.00  0.00     0.036 A 
HETATM    8  C13 UNK     1      18.145  -0.901  35.354  1.00  0.00     0.056 A 
HETATM    9  C15 UNK     1      17.995   0.486  35.322  1.00  0.00     0.074 A 
HETATM   10 Cl1  UNK     1      18.187   1.334  33.836  1.00  0.00    -0.081 Cl
HETATM   11  C17 UNK     1      17.691   1.181  36.492  1.00  0.00     0.138 A 
HETATM   12  C16 UNK     1      17.537   0.490  37.694  1.00  0.00     0.046 A 
HETATM   13  F1  UNK     1      17.544   2.514  36.478  1.00  0.00    -0.204 F 
HETATM   14  C14 UNK     1      17.686  -0.896  37.726  1.00  0.00     0.032 A 
ENDBRANCH   5   7
ENDBRANCH   3   5
ENDBRANCH   1   3
BRANCH   1  15
HETATM   15  C4  UNK     1      19.434  -6.292  36.264  1.00  0.00     0.036 A 
HETATM   16  C5  UNK     1      20.339  -7.070  35.551  1.00  0.00     0.067 A 
HETATM   17  C2  UNK     1      20.551  -8.395  35.936  1.00  0.00     0.092 A 
HETATM   18  C1  UNK     1      19.883  -8.973  37.017  1.00  0.00     0.004 A 
HETATM   19  O1  UNK     1      21.480  -9.132  35.176  1.00  0.00    -0.275 OA
HETATM   20  C3  UNK     1      20.167 -10.374  37.351  1.00  0.00    -0.043 A 
HETATM   21  C6  UNK     1      18.975  -8.172  37.722  1.00  0.00     0.017 A 
HETATM   22  C8  UNK     1      21.056 -11.051  36.611  1.00  0.00     0.090 A 
HETATM   23  C9  UNK     1      19.465 -11.025  38.507  1.00  0.00     0.049 C 
HETATM   24  C10 UNK     1      21.769 -10.456  35.467  1.00  0.00     0.288 A 
HETATM   25  O2  UNK     1      22.575 -11.105  34.813  1.00  0.00    -0.260 OA
HETATM   26  C7  UNK     1      18.751  -6.842  37.348  1.00  0.00     0.030 A 
ENDBRANCH   1  15
TORSDOF 4
ENDMDL
MODEL 3
REMARK VINA RESULT:      -9.3      1.538      1.708
REMARK  4 active torsions:
REMARK  status: ('A' for Active; 'I' for Inactive)
REMARK    1  A    between atoms: C11_18  and  N1_6 
REMARK    2  A    between atoms: C4_11  and  N1_6 
REMARK    3  A    between atoms: C11_18  and  N2_7 
REMARK    4  A    between atoms: C12_19  and  N2_7 
ROOT
HETATM    1  N1  UNK     1      17.997   3.979  32.059  1.00  0.00    -0.333 N 
HETATM    2  H8  UNK     1      17.385   3.421  32.650  1.00  0.00     0.168 HD
ENDROOT
BRANCH   1   3
HETATM    3  C11 UNK     1      18.267   3.378  30.822  1.00  0.00     0.176 C 
HETATM    4  S1  UNK     1      19.020   4.325  29.649  1.00  0.00    -0.041 SA
BRANCH   3   5
HETATM    5  N2  UNK     1      17.988   2.026  30.737  1.00  0.00    -0.333 N 
HETATM    6  H9  UNK     1      17.221   1.730  31.331  1.00  0.00     0.168 HD
BRANCH   5   7
HETATM    7  C12 UNK     1      18.814   0.925  30.400  1.00  0.00     0.036 A 
HETATM    8  C13 UNK     1      19.259   0.082  31.404  1.00  0.00     0.056 A 
HETATM    9  C15 UNK     1      20.072  -1.002  31.072  1.00  0.00     0.074 A 
HETATM   10 Cl1  UNK     1      20.634  -2.061  32.308  1.00  0.00    -0.081 Cl
HETATM   11  C17 UNK     1      20.430  -1.225  29.743  1.00  0.00     0.138 A 
HETATM   12  C16 UNK     1      19.973  -0.364  28.744  1.00  0.00     0.046 A 
HETATM   13  F1  UNK     1      21.212  -2.261  29.408  1.00  0.00    -0.204 F 
HETATM   14  C14 UNK     1      19.159   0.719  29.076  1.00  0.00     0.032 A 
ENDBRANCH   5   7
ENDBRANCH   3   5
ENDBRANCH   1   3
BRANCH   1  15
HETATM   15  C4  UNK     1      18.238   5.265  32.543  1.00  0.00     0.036 A 
HETATM   16  C5  UNK     1      17.212   6.202  32.577  1.00  0.00     0.067 A 
HETATM   17  C2  UNK     1      17.475   7.483  33.066  1.00  0.00     0.092 A 
HETATM   18  C1  UNK     1      18.738   7.861  33.526  1.00  0.00     0.004 A 
HETATM   19  O1  UNK     1      16.396   8.388  33.077  1.00  0.00    -0.275 OA
HETATM   20  C3  UNK     1      18.924   9.230  34.023  1.00  0.00    -0.043 A 
HETATM   21  C6  UNK     1      19.759   6.902  33.482  1.00  0.00     0.017 A 
HETATM   22  C8  UNK     1      17.880  10.070  34.022  1.00  0.00     0.090 A 
HETATM   23  C9  UNK     1      20.271   9.667  34.524  1.00  0.00     0.049 C 
HETATM   24  C10 UNK     1      16.542   9.686  33.541  1.00  0.00     0.288 A 
HETATM   25  O2  UNK     1      15.609  10.481  33.555  1.00  0.00    -0.260 OA
HETATM   26  C7  UNK     1      19.511   5.613  32.994  1.00  0.00     0.030 A 
ENDBRANCH   1  15
TORSDOF 4
ENDMDL
MODEL 4
REMARK VINA RESULT:      -9.2      8.989     13.090
REMARK  4 active torsions:
REMARK  status: ('A' for Active; 'I' for Inactive)
REMARK    1  A    between atoms: C11_18  and  N1_6 
REMARK    2  A    between atoms: C4_11  and  N1_6 
REMARK    3  A    between atoms: C11_18  and  N2_7 
REMARK    4  A    between atoms: C12_19  and  N2_7 
ROOT
HETATM    1  N1  UNK     1      18.781  -4.929  36.440  1.00  0.00    -0.333 N 
HETATM    2  H8  UNK     1      17.776  -4.888  36.594  1.00  0.00     0.168 HD
ENDROOT
BRANCH   1   3
HETATM    3  C11 UNK     1      19.408  -3.681  36.553  1.00  0.00     0.176 C 
HETATM    4  S1  UNK     1      20.765  -3.583  37.548  1.00  0.00    -0.041 SA
BRANCH   3   5
HETATM    5  N2  UNK     1      18.910  -2.682  35.736  1.00  0.00    -0.333 N 
HETATM    6  H9  UNK     1      19.260  -2.723  34.784  1.00  0.00     0.168 HD
BRANCH   5   7
HETATM    7  C12 UNK     1      18.432  -1.383  36.039  1.00  0.00     0.036 A 
HETATM    8  C13 UNK     1      18.511  -0.392  35.076  1.00  0.00     0.056 A 
HETATM    9  C15 UNK     1      18.040   0.887  35.375  1.00  0.00     0.074 A 
HETATM   10 Cl1  UNK     1      18.131   2.132  34.189  1.00  0.00    -0.081 Cl
HETATM   11  C17 UNK     1      17.500   1.155  36.633  1.00  0.00     0.138 A 
HETATM   12  C16 UNK     1      17.429   0.144  37.591  1.00  0.00     0.046 A 
HETATM   13  F1  UNK     1      17.044   2.379  36.936  1.00  0.00    -0.204 F 
HETATM   14  C14 UNK     1      17.898  -1.135  37.292  1.00  0.00     0.032 A 
ENDBRANCH   5   7
ENDBRANCH   3   5
ENDBRANCH   1   3
BRANCH   1  15
HETATM   15  C4  UNK     1      19.292  -6.225  36.361  1.00  0.00     0.036 A 
HETATM   16  C5  UNK     1      18.924  -7.179  37.303  1.00  0.00     0.067 A 
HETATM   17  C2  UNK     1      19.447  -8.470  37.205  1.00  0.00     0.092 A 
HETATM   18  C1  UNK     1      20.330  -8.842  36.190  1.00  0.00     0.004 A 
HETATM   19  O1  UNK     1      19.036  -9.393  38.187  1.00  0.00    -0.275 OA
HETATM   20  C3  UNK     1      20.830 -10.223  36.164  1.00  0.00    -0.043 A 
HETATM   21  C6  UNK     1      20.689  -7.865  35.252  1.00  0.00     0.017 A 
HETATM   22  C8  UNK     1      20.423 -11.079  37.110  1.00  0.00     0.090 A 
HETATM   23  C9  UNK     1      21.782 -10.653  35.086  1.00  0.00     0.049 C 
HETATM   24  C10 UNK     1      19.491 -10.703  38.188  1.00  0.00     0.288 A 
HETATM   25  O2  UNK     1      19.141 -11.513  39.037  1.00  0.00    -0.260 OA
HETATM   26  C7  UNK     1      20.174  -6.566  35.337  1.00  0.00     0.030 A 
ENDBRANCH   1  15
TORSDOF 4
ENDMDL
MODEL 5
REMARK VINA RESULT:      -9.1      2.678      3.747
REMARK  4 active torsions:
REMARK  status: ('A' for Active; 'I' for Inactive)
REMARK    1  A    between atoms: C11_18  and  N1_6 
REMARK    2  A    between atoms: C4_11  and  N1_6 
REMARK    3  A    between atoms: C11_18  and  N2_7 
REMARK    4  A    between atoms: C12_19  and  N2_7 
ROOT
HETATM    1  N1  UNK     1      18.474   5.498  32.529  1.00  0.00    -0.333 N 
HETATM    2  H8  UNK     1      18.813   4.985  33.340  1.00  0.00     0.168 HD
ENDROOT
BRANCH   1   3
HETATM    3  C11 UNK     1      18.652   4.805  31.324  1.00  0.00     0.176 C 
HETATM    4  S1  UNK     1      19.504   5.589  30.099  1.00  0.00    -0.041 SA
BRANCH   3   5
HETATM    5  N2  UNK     1      18.206   3.497  31.312  1.00  0.00    -0.333 N 
HETATM    6  H9  UNK     1      17.926   3.153  32.225  1.00  0.00     0.168 HD
BRANCH   5   7
HETATM    7  C12 UNK     1      18.505   2.420  30.441  1.00  0.00     0.036 A 
HETATM    8  C13 UNK     1      19.389   1.439  30.857  1.00  0.00     0.056 A 
HETATM    9  C15 UNK     1      19.683   0.379  29.999  1.00  0.00     0.074 A 
HETATM   10 Cl1  UNK     1      20.781  -0.849  30.501  1.00  0.00    -0.081 Cl
HETATM   11  C17 UNK     1      19.091   0.317  28.738  1.00  0.00     0.138 A 
HETATM   12  C16 UNK     1      18.202   1.314  28.335  1.00  0.00     0.046 A 
HETATM   13  F1  UNK     1      19.364  -0.695  27.902  1.00  0.00    -0.204 F 
HETATM   14  C14 UNK     1      17.907   2.373  29.193  1.00  0.00     0.032 A 
ENDBRANCH   5   7
ENDBRANCH   3   5
ENDBRANCH   1   3
BRANCH   1  15
HETATM   15  C4  UNK     1      17.748   6.647  32.846  1.00  0.00     0.036 A 
HETATM   16  C5  UNK     1      18.410   7.833  33.141  1.00  0.00     0.067 A 
HETATM   17  C2  UNK     1      17.664   8.971  33.454  1.00  0.00     0.092 A 
HETATM   18  C1  UNK     1      16.269   8.962  33.483  1.00  0.00     0.004 A 
HETATM   19  O1  UNK     1      18.391  10.143  33.742  1.00  0.00    -0.275 OA
HETATM   20  C3  UNK     1      15.565  10.206  33.823  1.00  0.00    -0.043 A 
HETATM   21  C6  UNK     1      15.620   7.757  33.184  1.00  0.00     0.017 A 
HETATM   22  C8  UNK     1      16.282  11.305  34.092  1.00  0.00     0.090 A 
HETATM   23  C9  UNK     1      14.064  10.229  33.863  1.00  0.00     0.049 C 
HETATM   24  C10 UNK     1      17.754  11.331  34.066  1.00  0.00     0.288 A 
HETATM   25  O2  UNK     1      18.377  12.355  34.318  1.00  0.00    -0.260 OA
HETATM   26  C7  UNK     1      16.355   6.607  32.868  1.00  0.00     0.030 A 
ENDBRANCH   1  15
TORSDOF 4
ENDMDL
MODEL 6
REMARK VINA RESULT:      -9.1      2.051      2.744
REMARK  4 active torsions:
REMARK  status: ('A' for Active; 'I' for Inactive)
REMARK    1  A    between atoms: C11_18  and  N1_6 
REMARK    2  A    between atoms: C4_11  and  N1_6 
REMARK    3  A    between atoms: C11_18  and  N2_7 
REMARK    4  A    between atoms: C12_19  and  N2_7 
ROOT
HETATM    1  N1  UNK     1      17.964   4.090  32.280  1.00  0.00    -0.333 N 
HETATM    2  H8  UNK     1      17.568   3.441  32.957  1.00  0.00     0.168 HD
ENDROOT
BRANCH   1   3
HETATM    3  C11 UNK     1      18.288   3.483  31.059  1.00  0.00     0.176 C 
HETATM    4  S1  UNK     1      19.082   4.428  29.911  1.00  0.00    -0.041 SA
BRANCH   3   5
HETATM    5  N2  UNK     1      18.022   2.129  30.972  1.00  0.00    -0.333 N 
HETATM    6  H9  UNK     1      17.311   1.811  31.622  1.00  0.00     0.168 HD
BRANCH   5   7
HETATM    7  C12 UNK     1      18.832   1.047  30.547  1.00  0.00     0.036 A 
HETATM    8  C13 UNK     1      19.303   0.146  31.486  1.00  0.00     0.056 A 
HETATM    9  C15 UNK     1      20.101  -0.919  31.067  1.00  0.00     0.074 A 
HETATM   10 Cl1  UNK     1      20.696  -2.050  32.222  1.00  0.00    -0.081 Cl
HETATM   11  C17 UNK     1      20.417  -1.066  29.717  1.00  0.00     0.138 A 
HETATM   12  C16 UNK     1      19.933  -0.147  28.784  1.00  0.00     0.046 A 
HETATM   13  F1  UNK     1      21.183  -2.083  29.299  1.00  0.00    -0.204 F 
HETATM   14  C14 UNK     1      19.135   0.917  29.203  1.00  0.00     0.032 A 
ENDBRANCH   5   7
ENDBRANCH   3   5
ENDBRANCH   1   3
BRANCH   1  15
HETATM   15  C4  UNK     1      17.893   5.429  32.666  1.00  0.00     0.036 A 
HETATM   16  C5  UNK     1      19.030   6.086  33.123  1.00  0.00     0.067 A 
HETATM   17  C2  UNK     1      18.937   7.426  33.503  1.00  0.00     0.092 A 
HETATM   18  C1  UNK     1      17.737   8.136  33.440  1.00  0.00     0.004 A 
HETATM   19  O1  UNK     1      20.122   8.038  33.956  1.00  0.00    -0.275 OA
HETATM   20  C3  UNK     1      17.731   9.544  33.860  1.00  0.00    -0.043 A 
HETATM   21  C6  UNK     1      16.603   7.456  32.978  1.00  0.00     0.017 A 
HETATM   22  C8  UNK     1      18.873  10.100  34.287  1.00  0.00     0.090 A 
HETATM   23  C9  UNK     1      16.456  10.335  33.805  1.00  0.00     0.049 C 
HETATM   24  C10 UNK     1      20.147   9.364  34.358  1.00  0.00     0.288 A 
HETATM   25  O2  UNK     1      21.172   9.905  34.754  1.00  0.00    -0.260 OA
HETATM   26  C7  UNK     1      16.680   6.112  32.593  1.00  0.00     0.030 A 
ENDBRANCH   1  15
TORSDOF 4
ENDMDL
MODEL 7
REMARK VINA RESULT:      -9.0      2.125      2.511
REMARK  4 active torsions:
REMARK  status: ('A' for Active; 'I' for Inactive)
REMARK    1  A    between atoms: C11_18  and  N1_6 
REMARK    2  A    between atoms: C4_11  and  N1_6 
REMARK    3  A    between atoms: C11_18  and  N2_7 
REMARK    4  A    between atoms: C12_19  and  N2_7 
ROOT
HETATM    1  N1  UNK     1      19.343   3.807  30.065  1.00  0.00    -0.333 N 
HETATM    2  H8  UNK     1      19.985   4.059  29.316  1.00  0.00     0.168 HD
ENDROOT
BRANCH   1   3
HETATM    3  C11 UNK     1      18.954   2.461  30.028  1.00  0.00     0.176 C 
HETATM    4  S1  UNK     1      17.904   1.993  28.795  1.00  0.00    -0.041 SA
BRANCH   3   5
HETATM    5  N2  UNK     1      19.572   1.632  30.945  1.00  0.00    -0.333 N 
HETATM    6  H9  UNK     1      20.428   1.210  30.600  1.00  0.00     0.168 HD
BRANCH   5   7
HETATM    7  C12 UNK     1      19.044   0.883  32.027  1.00  0.00     0.036 A 
HETATM    8  C13 UNK     1      18.557   1.551  33.137  1.00  0.00     0.056 A 
HETATM    9  C15 UNK     1      18.038   0.814  34.202  1.00  0.00     0.074 A 
HETATM   10 Cl1  UNK     1      17.428   1.628  35.590  1.00  0.00    -0.081 Cl
HETATM   11  C17 UNK     1      18.017  -0.580  34.140  1.00  0.00     0.138 A 
HETATM   12  C16 UNK     1      18.513  -1.236  33.013  1.00  0.00     0.046 A 
HETATM   13  F1  UNK     1      17.523  -1.303  35.156  1.00  0.00    -0.204 F 
HETATM   14  C14 UNK     1      19.030  -0.499  31.949  1.00  0.00     0.032 A 
ENDBRANCH   5   7
ENDBRANCH   3   5
ENDBRANCH   1   3
BRANCH   1  15
HETATM   15  C4  UNK     1      19.183   4.798  31.034  1.00  0.00     0.036 A 
HETATM   16  C5  UNK     1      17.927   5.050  31.575  1.00  0.00     0.067 A 
HETATM   17  C2  UNK     1      17.789   6.045  32.544  1.00  0.00     0.092 A 
HETATM   18  C1  UNK     1      18.873   6.802  32.994  1.00  0.00     0.004 A 
HETATM   19  O1  UNK     1      16.494   6.253  33.055  1.00  0.00    -0.275 OA
HETATM   20  C3  UNK     1      18.636   7.829  34.017  1.00  0.00    -0.043 A 
HETATM   21  C6  UNK     1      20.129   6.533  32.436  1.00  0.00     0.017 A 
HETATM   22  C8  UNK     1      17.393   8.005  34.485  1.00  0.00     0.090 A 
HETATM   23  C9  UNK     1      19.780   8.660  34.521  1.00  0.00     0.049 C 
HETATM   24  C10 UNK     1      16.240   7.214  34.021  1.00  0.00     0.288 A 
HETATM   25  O2  UNK     1      15.116   7.403  34.472  1.00  0.00    -0.260 OA
HETATM   26  C7  UNK     1      20.283   5.539  31.462  1.00  0.00     0.030 A 
ENDBRANCH   1  15
TORSDOF 4
ENDMDL
MODEL 8
REMARK VINA RESULT:      -8.9      3.910      5.139
REMARK  4 active torsions:
REMARK  status: ('A' for Active; 'I' for Inactive)
REMARK    1  A    between atoms: C11_18  and  N1_6 
REMARK    2  A    between atoms: C4_11  and  N1_6 
REMARK    3  A    between atoms: C11_18  and  N2_7 
REMARK    4  A    between atoms: C12_19  and  N2_7 
ROOT
HETATM    1  N1  UNK     1      18.639  -0.307  31.141  1.00  0.00    -0.333 N 
HETATM    2  H8  UNK     1      18.566  -0.763  30.234  1.00  0.00     0.168 HD
ENDROOT
BRANCH   1   3
HETATM    3  C11 UNK     1      18.914  -1.199  32.186  1.00  0.00     0.176 C 
HETATM    4  S1  UNK     1      20.465  -1.858  32.253  1.00  0.00    -0.041 SA
BRANCH   3   5
HETATM    5  N2  UNK     1      17.911  -1.355  33.124  1.00  0.00    -0.333 N 
HETATM    6  H9  UNK     1      17.002  -1.557  32.719  1.00  0.00     0.168 HD
BRANCH   5   7
HETATM    7  C12 UNK     1      17.770  -0.830  34.433  1.00  0.00     0.036 A 
HETATM    8  C13 UNK     1      16.553  -0.296  34.819  1.00  0.00     0.056 A 
HETATM    9  C15 UNK     1      16.415   0.222  36.108  1.00  0.00     0.074 A 
HETATM   10 Cl1  UNK     1      14.908   0.890  36.605  1.00  0.00    -0.081 Cl
HETATM   11  C17 UNK     1      17.496   0.199  36.988  1.00  0.00     0.138 A 
HETATM   12  C16 UNK     1      18.716  -0.343  36.581  1.00  0.00     0.046 A 
HETATM   13  F1  UNK     1      17.380   0.693  38.229  1.00  0.00    -0.204 F 
HETATM   14  C14 UNK     1      18.853  -0.861  35.294  1.00  0.00     0.032 A 
ENDBRANCH   5   7
ENDBRANCH   3   5
ENDBRANCH   1   3
BRANCH   1  15
HETATM   15  C4  UNK     1      18.651   1.087  31.078  1.00  0.00     0.036 A 
HETATM   16  C5  UNK     1      18.315   1.840  32.198  1.00  0.00     0.067 A 
HETATM   17  C2  UNK     1      18.334   3.233  32.113  1.00  0.00     0.092 A 
HETATM   18  C1  UNK     1      18.680   3.904  30.939  1.00  0.00     0.004 A 
HETATM   19  O1  UNK     1      17.986   3.941  33.280  1.00  0.00    -0.275 OA
HETATM   20  C3  UNK     1      18.673   5.372  30.940  1.00  0.00    -0.043 A 
HETATM   21  C6  UNK     1      19.014   3.127  29.822  1.00  0.00     0.017 A 
HETATM   22  C8  UNK     1      18.338   6.020  32.064  1.00  0.00     0.090 A 
HETATM   23  C9  UNK     1      19.040   6.123  29.692  1.00  0.00     0.049 C 
HETATM   24  C10 UNK     1      17.971   5.327  33.311  1.00  0.00     0.288 A 
HETATM   25  O2  UNK     1      17.670   5.952  34.321  1.00  0.00    -0.260 OA
HETATM   26  C7  UNK     1      18.999   1.729  29.891  1.00  0.00     0.030 A 
ENDBRANCH   1  15
TORSDOF 4
ENDMDL
MODEL 9
REMARK VINA RESULT:      -8.9      5.191      8.021
REMARK  4 active torsions:
REMARK  status: ('A' for Active; 'I' for Inactive)
REMARK    1  A    between atoms: C11_18  and  N1_6 
REMARK    2  A    between atoms: C4_11  and  N1_6 
REMARK    3  A    between atoms: C11_18  and  N2_7 
REMARK    4  A    between atoms: C12_19  and  N2_7 
ROOT
HETATM    1  N1  UNK     1      19.082  -1.118  31.293  1.00  0.00    -0.333 N 
HETATM    2  H8  UNK     1      18.739  -1.921  30.770  1.00  0.00     0.168 HD
ENDROOT
BRANCH   1   3
HETATM    3  C11 UNK     1      19.327   0.001  30.484  1.00  0.00     0.176 C 
HETATM    4  S1  UNK     1      20.655  -0.069  29.448  1.00  0.00    -0.041 SA
BRANCH   3   5
HETATM    5  N2  UNK     1      18.377   1.003  30.540  1.00  0.00    -0.333 N 
HETATM    6  H9  UNK     1      17.534   0.795  30.014  1.00  0.00     0.168 HD
BRANCH   5   7
HETATM    7  C12 UNK     1      18.506   2.399  30.747  1.00  0.00     0.036 A 
HETATM    8  C13 UNK     1      18.264   2.921  32.006  1.00  0.00     0.056 A 
HETATM    9  C15 UNK     1      18.391   4.295  32.210  1.00  0.00     0.074 A 
HETATM   10 Cl1  UNK     1      18.094   4.961  33.770  1.00  0.00    -0.081 Cl
HETATM   11  C17 UNK     1      18.757   5.126  31.151  1.00  0.00     0.138 A 
HETATM   12  C16 UNK     1      18.996   4.583  29.888  1.00  0.00     0.046 A 
HETATM   13  F1  UNK     1      18.882   6.449  31.330  1.00  0.00    -0.204 F 
HETATM   14  C14 UNK     1      18.870   3.209  29.686  1.00  0.00     0.032 A 
ENDBRANCH   5   7
ENDBRANCH   3   5
ENDBRANCH   1   3
BRANCH   1  15
HETATM   15  C4  UNK     1      19.024  -1.272  32.678  1.00  0.00     0.036 A 
HETATM   16  C5  UNK     1      19.834  -2.209  33.311  1.00  0.00     0.067 A 
HETATM   17  C2  UNK     1      19.761  -2.346  34.698  1.00  0.00     0.092 A 
HETATM   18  C1  UNK     1      18.900  -1.573  35.479  1.00  0.00     0.004 A 
HETATM   19  O1  UNK     1      20.606  -3.310  35.282  1.00  0.00    -0.275 OA
HETATM   20  C3  UNK     1      18.889  -1.785  36.933  1.00  0.00    -0.043 A 
HETATM   21  C6  UNK     1      18.092  -0.636  34.822  1.00  0.00     0.017 A 
HETATM   22  C8  UNK     1      19.703  -2.708  37.461  1.00  0.00     0.090 A 
HETATM   23  C9  UNK     1      17.974  -0.970  37.801  1.00  0.00     0.049 C 
HETATM   24  C10 UNK     1      20.617  -3.532  36.651  1.00  0.00     0.288 A 
HETATM   25  O2  UNK     1      21.348  -4.368  37.168  1.00  0.00    -0.260 OA
HETATM   26  C7  UNK     1      18.154  -0.486  33.432  1.00  0.00     0.030 A 
ENDBRANCH   1  15
TORSDOF 4
ENDMDL
MODEL 10
REMARK VINA RESULT:      -8.8      5.009      8.848
REMARK  4 active torsions:
REMARK  status: ('A' for Active; 'I' for Inactive)
REMARK    1  A    between atoms: C11_18  and  N1_6 
REMARK    2  A    between atoms: C4_11  and  N1_6 
REMARK    3  A    between atoms: C11_18  and  N2_7 
REMARK    4  A    between atoms: C12_19  and  N2_7 
ROOT
HETATM    1  N1  UNK     1      17.692   3.968  31.540  1.00  0.00    -0.333 N 
HETATM    2  H8  UNK     1      16.710   3.903  31.801  1.00  0.00     0.168 HD
ENDROOT
BRANCH   1   3
HETATM    3  C11 UNK     1      18.231   5.246  31.740  1.00  0.00     0.176 C 
HETATM    4  S1  UNK     1      19.226   5.865  30.528  1.00  0.00    -0.041 SA
BRANCH   3   5
HETATM    5  N2  UNK     1      17.791   5.915  32.868  1.00  0.00    -0.333 N 
HETATM    6  H9  UNK     1      16.970   5.498  33.294  1.00  0.00     0.168 HD
BRANCH   5   7
HETATM    7  C12 UNK     1      17.925   7.271  33.258  1.00  0.00     0.036 A 
HETATM    8  C13 UNK     1      19.154   7.729  33.699  1.00  0.00     0.056 A 
HETATM    9  C15 UNK     1      19.285   9.064  34.084  1.00  0.00     0.074 A 
HETATM   10 Cl1  UNK     1      20.807   9.651  34.635  1.00  0.00    -0.081 Cl
HETATM   11  C17 UNK     1      18.184   9.918  34.023  1.00  0.00     0.138 A 
HETATM   12  C16 UNK     1      16.953   9.439  33.576  1.00  0.00     0.046 A 
HETATM   13  F1  UNK     1      18.293  11.203  34.390  1.00  0.00    -0.204 F 
HETATM   14  C14 UNK     1      16.822   8.105  33.191  1.00  0.00     0.032 A 
ENDBRANCH   5   7
ENDBRANCH   3   5
ENDBRANCH   1   3
BRANCH   1  15
HETATM   15  C4  UNK     1      18.287   2.740  31.250  1.00  0.00     0.036 A 
HETATM   16  C5  UNK     1      18.477   1.801  32.258  1.00  0.00     0.067 A 
HETATM   17  C2  UNK     1      19.073   0.578  31.946  1.00  0.00     0.092 A 
HETATM   18  C1  UNK     1      19.488   0.260  30.651  1.00  0.00     0.004 A 
HETATM   19  O1  UNK     1      19.239  -0.332  33.008  1.00  0.00    -0.275 OA
HETATM   20  C3  UNK     1      20.106  -1.051  30.413  1.00  0.00    -0.043 A 
HETATM   21  C6  UNK     1      19.287   1.220  29.650  1.00  0.00     0.017 A 
HETATM   22  C8  UNK     1      20.251  -1.897  31.442  1.00  0.00     0.090 A 
HETATM   23  C9  UNK     1      20.563  -1.423  29.032  1.00  0.00     0.049 C 
HETATM   24  C10 UNK     1      19.819  -1.576  32.813  1.00  0.00     0.288 A 
HETATM   25  O2  UNK     1      19.967  -2.375  33.730  1.00  0.00    -0.260 OA
HETATM   26  C7  UNK     1      18.691   2.451  29.948  1.00  0.00     0.030 A 
ENDBRANCH   1  15
TORSDOF 4
ENDMDL
