MODEL 1
REMARK VINA RESULT:      -7.8      0.000      0.000
REMARK  7 active torsions:
REMARK  status: ('A' for Active; 'I' for Inactive)
REMARK    1  A    between atoms: C14_21  and  O3_3 
REMARK    2  A    between atoms: C20_27  and  O3_3 
REMARK    3  A    between atoms: C23_30  and  O6_6 
REMARK    4  A    between atoms: C25_32  and  O6_6 
REMARK    5  A    between atoms: C12_19  and  C6_13 
REMARK    6  A    between atoms: C10_17  and  C14_21 
REMARK    7  A    between atoms: C20_27  and  C23_30 
ROOT
HETATM    1  O1  UNK     1      31.925  -5.392  33.732  1.00  0.00    -0.293 OA
HETATM    2  N1  UNK     1      32.439  -8.963  36.800  1.00  0.00    -0.362 N 
HETATM    3  C1  UNK     1      34.962  -6.588  35.312  1.00  0.00    -0.036 C 
HETATM    4  C2  UNK     1      34.444  -7.957  35.799  1.00  0.00     0.067 C 
HETATM    5  C3  UNK     1      34.162  -6.155  34.075  1.00  0.00     0.092 C 
HETATM    6  C4  UNK     1      32.942  -8.038  35.905  1.00  0.00     0.021 C 
HETATM    7  C5  UNK     1      32.104  -7.238  35.212  1.00  0.00     0.024 C 
HETATM    8  C6  UNK     1      30.588  -7.367  35.356  1.00  0.00     0.104 C 
HETATM    9  C7  UNK     1      32.666  -6.187  34.309  1.00  0.00     0.159 C 
HETATM   10  C8  UNK     1      34.841  -5.531  36.430  1.00  0.00     0.015 C 
HETATM   11  C9  UNK     1      36.449  -6.715  34.935  1.00  0.00     0.015 C 
HETATM   12  C10 UNK     1      30.190  -8.285  36.515  1.00  0.00     0.052 C 
HETATM   13  C11 UNK     1      31.103  -9.054  37.152  1.00  0.00     0.018 C 
HETATM   14  C13 UNK     1      30.801 -10.029  38.258  1.00  0.00     0.069 C 
HETATM   15  H12 UNK     1      33.101  -9.546  37.300  1.00  0.00     0.165 HD
ENDROOT
BRANCH   8  16
HETATM   16  C12 UNK     1      29.974  -7.860  34.068  1.00  0.00     0.029 A 
HETATM   17  C15 UNK     1      28.918  -7.036  33.426  1.00  0.00     0.194 A 
HETATM   18  O5  UNK     1      28.535  -5.978  33.907  1.00  0.00    -0.287 OA
HETATM   19  C17 UNK     1      28.352  -7.564  32.171  1.00  0.00     0.048 A 
HETATM   20  C18 UNK     1      28.825  -8.776  31.669  1.00  0.00     0.089 A 
HETATM   21  C19 UNK     1      27.352  -6.864  31.491  1.00  0.00     0.018 A 
HETATM   22  O2  UNK     1      29.806  -9.505  32.295  1.00  0.00    -0.321 OA
HETATM   23  C21 UNK     1      28.304  -9.294  30.484  1.00  0.00     0.038 A 
HETATM   24  C16 UNK     1      30.323  -9.002  33.464  1.00  0.00     0.154 A 
HETATM   25  C24 UNK     1      27.307  -8.596  29.802  1.00  0.00     0.003 A 
HETATM   26  C22 UNK     1      26.832  -7.384  30.305  1.00  0.00     0.001 A 
ENDBRANCH   8  16
BRANCH  12  27
HETATM   27  C14 UNK     1      28.781  -8.245  36.938  1.00  0.00     0.292 C 
HETATM   28  O4  UNK     1      28.050  -9.218  36.920  1.00  0.00    -0.259 OA
BRANCH  27  29
HETATM   29  O3  UNK     1      28.487  -6.981  37.329  1.00  0.00    -0.316 OA
BRANCH  29  30
HETATM   30  C20 UNK     1      28.485  -6.769  38.744  1.00  0.00     0.205 C 
BRANCH  30  31
HETATM   31  C23 UNK     1      29.113  -5.422  39.043  1.00  0.00     0.195 C 
BRANCH  31  32
HETATM   32  O6  UNK     1      29.721  -4.920  37.859  1.00  0.00    -0.385 OA
BRANCH  32  33
HETATM   33  C25 UNK     1      31.044  -4.465  38.106  1.00  0.00     0.113 C 
HETATM   34  C27 UNK     1      31.587  -3.800  36.850  1.00  0.00     0.039 C 
HETATM   35  C26 UNK     1      31.905  -5.640  38.543  1.00  0.00     0.039 C 
ENDBRANCH  32  33
ENDBRANCH  31  32
ENDBRANCH  30  31
ENDBRANCH  29  30
ENDBRANCH  27  29
ENDBRANCH  12  27
TORSDOF 7
ENDMDL
MODEL 2
REMARK VINA RESULT:      -7.7      2.385      6.782
REMARK  7 active torsions:
REMARK  status: ('A' for Active; 'I' for Inactive)
REMARK    1  A    between atoms: C14_21  and  O3_3 
REMARK    2  A    between atoms: C20_27  and  O3_3 
REMARK    3  A    between atoms: C23_30  and  O6_6 
REMARK    4  A    between atoms: C25_32  and  O6_6 
REMARK    5  A    between atoms: C12_19  and  C6_13 
REMARK    6  A    between atoms: C10_17  and  C14_21 
REMARK    7  A    between atoms: C20_27  and  C23_30 
ROOT
HETATM    1  O1  UNK     1      29.334  -5.552  32.409  1.00  0.00    -0.293 OA
HETATM    2  N1  UNK     1      31.662  -9.676  32.480  1.00  0.00    -0.362 N 
HETATM    3  C1  UNK     1      28.953  -8.395  30.190  1.00  0.00    -0.036 C 
HETATM    4  C2  UNK     1      29.680  -9.453  31.046  1.00  0.00     0.067 C 
HETATM    5  C3  UNK     1      28.373  -7.312  31.111  1.00  0.00     0.092 C 
HETATM    6  C4  UNK     1      30.617  -8.868  32.072  1.00  0.00     0.021 C 
HETATM    7  C5  UNK     1      30.499  -7.614  32.556  1.00  0.00     0.024 C 
HETATM    8  C6  UNK     1      31.476  -7.074  33.600  1.00  0.00     0.104 C 
HETATM    9  C7  UNK     1      29.411  -6.725  32.045  1.00  0.00     0.159 C 
HETATM   10  C8  UNK     1      29.918  -7.770  29.162  1.00  0.00     0.015 C 
HETATM   11  C9  UNK     1      27.805  -9.072  29.418  1.00  0.00     0.015 C 
HETATM   12  C10 UNK     1      32.680  -7.999  33.803  1.00  0.00     0.052 C 
HETATM   13  C11 UNK     1      32.709  -9.246  33.277  1.00  0.00     0.018 C 
HETATM   14  C13 UNK     1      33.816 -10.247  33.470  1.00  0.00     0.069 C 
HETATM   15  H12 UNK     1      31.716 -10.612  32.093  1.00  0.00     0.165 HD
ENDROOT
BRANCH   8  16
HETATM   16  C12 UNK     1      30.773  -6.842  34.915  1.00  0.00     0.029 A 
HETATM   17  C15 UNK     1      30.990  -5.551  35.616  1.00  0.00     0.194 A 
HETATM   18  O5  UNK     1      31.717  -4.677  35.162  1.00  0.00    -0.287 OA
HETATM   19  C17 UNK     1      30.279  -5.376  36.896  1.00  0.00     0.048 A 
HETATM   20  C18 UNK     1      29.464  -6.405  37.366  1.00  0.00     0.089 A 
HETATM   21  C19 UNK     1      30.419  -4.197  37.633  1.00  0.00     0.018 A 
HETATM   22  O2  UNK     1      29.290  -7.583  36.684  1.00  0.00    -0.321 OA
HETATM   23  C21 UNK     1      28.783  -6.261  38.575  1.00  0.00     0.038 A 
HETATM   24  C16 UNK     1      29.959  -7.733  35.494  1.00  0.00     0.154 A 
HETATM   25  C24 UNK     1      28.919  -5.084  39.312  1.00  0.00     0.003 A 
HETATM   26  C22 UNK     1      29.736  -4.055  38.842  1.00  0.00     0.001 A 
ENDBRANCH   8  16
BRANCH  12  27
HETATM   27  C14 UNK     1      33.823  -7.445  34.546  1.00  0.00     0.292 C 
HETATM   28  O4  UNK     1      34.104  -7.775  35.684  1.00  0.00    -0.259 OA
BRANCH  27  29
HETATM   29  O3  UNK     1      34.458  -6.551  33.750  1.00  0.00    -0.316 OA
BRANCH  29  30
HETATM   30  C20 UNK     1      35.870  -6.749  33.621  1.00  0.00     0.205 C 
BRANCH  30  31
HETATM   31  C23 UNK     1      36.148  -7.496  32.331  1.00  0.00     0.195 C 
BRANCH  31  32
HETATM   32  O6  UNK     1      35.654  -6.733  31.237  1.00  0.00    -0.385 OA
BRANCH  32  33
HETATM   33  C25 UNK     1      35.080  -7.566  30.239  1.00  0.00     0.113 C 
HETATM   34  C27 UNK     1      33.570  -7.385  30.244  1.00  0.00     0.039 C 
HETATM   35  C26 UNK     1      35.479  -9.010  30.501  1.00  0.00     0.039 C 
ENDBRANCH  32  33
ENDBRANCH  31  32
ENDBRANCH  30  31
ENDBRANCH  29  30
ENDBRANCH  27  29
ENDBRANCH  12  27
TORSDOF 7
ENDMDL
MODEL 3
REMARK VINA RESULT:      -7.6      1.651      2.287
REMARK  7 active torsions:
REMARK  status: ('A' for Active; 'I' for Inactive)
REMARK    1  A    between atoms: C14_21  and  O3_3 
REMARK    2  A    between atoms: C20_27  and  O3_3 
REMARK    3  A    between atoms: C23_30  and  O6_6 
REMARK    4  A    between atoms: C25_32  and  O6_6 
REMARK    5  A    between atoms: C12_19  and  C6_13 
REMARK    6  A    between atoms: C10_17  and  C14_21 
REMARK    7  A    between atoms: C20_27  and  C23_30 
ROOT
HETATM    1  O1  UNK     1      30.372  -5.270  32.900  1.00  0.00    -0.293 OA
HETATM    2  N1  UNK     1      31.359  -7.982  36.656  1.00  0.00    -0.362 N 
HETATM    3  C1  UNK     1      32.982  -4.827  35.378  1.00  0.00    -0.036 C 
HETATM    4  C2  UNK     1      32.961  -6.243  35.990  1.00  0.00     0.067 C 
HETATM    5  C3  UNK     1      32.498  -4.897  33.923  1.00  0.00     0.092 C 
HETATM    6  C4  UNK     1      31.677  -6.995  35.742  1.00  0.00     0.021 C 
HETATM    7  C5  UNK     1      30.840  -6.719  34.720  1.00  0.00     0.024 C 
HETATM    8  C6  UNK     1      29.553  -7.517  34.514  1.00  0.00     0.104 C 
HETATM    9  C7  UNK     1      31.160  -5.595  33.788  1.00  0.00     0.159 C 
HETATM   10  C8  UNK     1      32.094  -3.867  36.197  1.00  0.00     0.015 C 
HETATM   11  C9  UNK     1      34.424  -4.286  35.408  1.00  0.00     0.015 C 
HETATM   12  C10 UNK     1      29.239  -8.430  35.702  1.00  0.00     0.052 C 
HETATM   13  C11 UNK     1      30.145  -8.649  36.684  1.00  0.00     0.018 C 
HETATM   14  C13 UNK     1      29.953  -9.573  37.856  1.00  0.00     0.069 C 
HETATM   15  H12 UNK     1      32.014  -8.160  37.409  1.00  0.00     0.165 HD
ENDROOT
BRANCH   8  16
HETATM   16  C12 UNK     1      29.630  -8.326  33.243  1.00  0.00     0.029 A 
HETATM   17  C15 UNK     1      28.597  -8.105  32.199  1.00  0.00     0.194 A 
HETATM   18  O5  UNK     1      27.694  -7.291  32.339  1.00  0.00    -0.287 OA
HETATM   19  C17 UNK     1      28.718  -8.922  30.977  1.00  0.00     0.048 A 
HETATM   20  C18 UNK     1      29.767  -9.834  30.872  1.00  0.00     0.089 A 
HETATM   21  C19 UNK     1      27.795  -8.788  29.937  1.00  0.00     0.018 A 
HETATM   22  O2  UNK     1      30.702 -10.006  31.862  1.00  0.00    -0.321 OA
HETATM   23  C21 UNK     1      29.901 -10.617  29.725  1.00  0.00     0.038 A 
HETATM   24  C16 UNK     1      30.576  -9.239  32.994  1.00  0.00     0.154 A 
HETATM   25  C24 UNK     1      28.981 -10.485  28.685  1.00  0.00     0.003 A 
HETATM   26  C22 UNK     1      27.930  -9.573  28.790  1.00  0.00     0.001 A 
ENDBRANCH   8  16
BRANCH  12  27
HETATM   27  C14 UNK     1      27.887  -9.010  35.754  1.00  0.00     0.292 C 
HETATM   28  O4  UNK     1      27.631 -10.142  35.387  1.00  0.00    -0.259 OA
BRANCH  27  29
HETATM   29  O3  UNK     1      27.043  -8.081  36.263  1.00  0.00    -0.316 OA
BRANCH  29  30
HETATM   30  C20 UNK     1      26.277  -8.512  37.393  1.00  0.00     0.205 C 
BRANCH  30  31
HETATM   31  C23 UNK     1      26.362  -7.458  38.479  1.00  0.00     0.195 C 
BRANCH  31  32
HETATM   32  O6  UNK     1      26.814  -6.237  37.906  1.00  0.00    -0.385 OA
BRANCH  32  33
HETATM   33  C25 UNK     1      27.897  -5.686  38.643  1.00  0.00     0.113 C 
HETATM   34  C27 UNK     1      29.001  -5.276  37.681  1.00  0.00     0.039 C 
HETATM   35  C26 UNK     1      28.382  -6.708  39.661  1.00  0.00     0.039 C 
ENDBRANCH  32  33
ENDBRANCH  31  32
ENDBRANCH  30  31
ENDBRANCH  29  30
ENDBRANCH  27  29
ENDBRANCH  12  27
TORSDOF 7
ENDMDL
MODEL 4
REMARK VINA RESULT:      -7.6      2.079      5.547
REMARK  7 active torsions:
REMARK  status: ('A' for Active; 'I' for Inactive)
REMARK    1  A    between atoms: C14_21  and  O3_3 
REMARK    2  A    between atoms: C20_27  and  O3_3 
REMARK    3  A    between atoms: C23_30  and  O6_6 
REMARK    4  A    between atoms: C25_32  and  O6_6 
REMARK    5  A    between atoms: C12_19  and  C6_13 
REMARK    6  A    between atoms: C10_17  and  C14_21 
REMARK    7  A    between atoms: C20_27  and  C23_30 
ROOT
HETATM    1  O1  UNK     1      28.590  -9.640  35.750  1.00  0.00    -0.293 OA
HETATM    2  N1  UNK     1      28.866  -5.288  37.598  1.00  0.00    -0.362 N 
HETATM    3  C1  UNK     1      26.647  -8.212  38.459  1.00  0.00    -0.036 C 
HETATM    4  C2  UNK     1      26.971  -6.724  38.216  1.00  0.00     0.067 C 
HETATM    5  C3  UNK     1      26.758  -8.978  37.133  1.00  0.00     0.092 C 
HETATM    6  C4  UNK     1      28.226  -6.498  37.410  1.00  0.00     0.021 C 
HETATM    7  C5  UNK     1      28.747  -7.419  36.573  1.00  0.00     0.024 C 
HETATM    8  C6  UNK     1      30.020  -7.134  35.777  1.00  0.00     0.104 C 
HETATM    9  C7  UNK     1      28.087  -8.754  36.441  1.00  0.00     0.159 C 
HETATM   10  C8  UNK     1      27.603  -8.813  39.511  1.00  0.00     0.015 C 
HETATM   11  C9  UNK     1      25.209  -8.334  38.996  1.00  0.00     0.015 C 
HETATM   12  C10 UNK     1      30.716  -5.849  36.234  1.00  0.00     0.052 C 
HETATM   13  C11 UNK     1      30.112  -4.981  37.078  1.00  0.00     0.018 C 
HETATM   14  C13 UNK     1      30.688  -3.668  37.536  1.00  0.00     0.069 C 
HETATM   15  H12 UNK     1      28.442  -4.622  38.234  1.00  0.00     0.165 HD
ENDROOT
BRANCH   8  16
HETATM   16  C12 UNK     1      29.717  -7.064  34.300  1.00  0.00     0.029 A 
HETATM   17  C15 UNK     1      30.525  -7.893  33.370  1.00  0.00     0.194 A 
HETATM   18  O5  UNK     1      31.422  -8.626  33.764  1.00  0.00    -0.287 OA
HETATM   19  C17 UNK     1      30.187  -7.785  31.939  1.00  0.00     0.048 A 
HETATM   20  C18 UNK     1      29.155  -6.933  31.546  1.00  0.00     0.089 A 
HETATM   21  C19 UNK     1      30.890  -8.524  30.984  1.00  0.00     0.018 A 
HETATM   22  O2  UNK     1      28.432  -6.185  32.441  1.00  0.00    -0.321 OA
HETATM   23  C21 UNK     1      28.819  -6.816  30.198  1.00  0.00     0.038 A 
HETATM   24  C16 UNK     1      28.758  -6.294  33.771  1.00  0.00     0.154 A 
HETATM   25  C24 UNK     1      29.518  -7.554  29.243  1.00  0.00     0.003 A 
HETATM   26  C22 UNK     1      30.552  -8.405  29.635  1.00  0.00     0.001 A 
ENDBRANCH   8  16
BRANCH  12  27
HETATM   27  C14 UNK     1      32.092  -5.636  35.758  1.00  0.00     0.292 C 
HETATM   28  O4  UNK     1      32.380  -4.841  34.882  1.00  0.00    -0.259 OA
BRANCH  27  29
HETATM   29  O3  UNK     1      32.918  -6.454  36.453  1.00  0.00    -0.316 OA
BRANCH  29  30
HETATM   30  C20 UNK     1      33.877  -5.787  37.281  1.00  0.00     0.205 C 
BRANCH  30  31
HETATM   31  C23 UNK     1      35.214  -5.761  36.566  1.00  0.00     0.195 C 
BRANCH  31  32
HETATM   32  O6  UNK     1      35.346  -6.943  35.785  1.00  0.00    -0.385 OA
BRANCH  32  33
HETATM   33  C25 UNK     1      35.857  -6.657  34.491  1.00  0.00     0.113 C 
HETATM   34  C27 UNK     1      34.840  -7.086  33.444  1.00  0.00     0.039 C 
HETATM   35  C26 UNK     1      37.190  -7.367  34.311  1.00  0.00     0.039 C 
ENDBRANCH  32  33
ENDBRANCH  31  32
ENDBRANCH  30  31
ENDBRANCH  29  30
ENDBRANCH  27  29
ENDBRANCH  12  27
TORSDOF 7
ENDMDL
MODEL 5
REMARK VINA RESULT:      -7.5      2.315      6.699
REMARK  7 active torsions:
REMARK  status: ('A' for Active; 'I' for Inactive)
REMARK    1  A    between atoms: C14_21  and  O3_3 
REMARK    2  A    between atoms: C20_27  and  O3_3 
REMARK    3  A    between atoms: C23_30  and  O6_6 
REMARK    4  A    between atoms: C25_32  and  O6_6 
REMARK    5  A    between atoms: C12_19  and  C6_13 
REMARK    6  A    between atoms: C10_17  and  C14_21 
REMARK    7  A    between atoms: C20_27  and  C23_30 
ROOT
HETATM    1  O1  UNK     1      31.981  -5.622  37.160  1.00  0.00    -0.293 OA
HETATM    2  N1  UNK     1      28.064  -6.703  34.726  1.00  0.00    -0.362 N 
HETATM    3  C1  UNK     1      28.658  -6.326  38.431  1.00  0.00    -0.036 C 
HETATM    4  C2  UNK     1      28.062  -6.980  37.167  1.00  0.00     0.067 C 
HETATM    5  C3  UNK     1      30.179  -6.532  38.438  1.00  0.00     0.092 C 
HETATM    6  C4  UNK     1      28.796  -6.630  35.897  1.00  0.00     0.021 C 
HETATM    7  C5  UNK     1      30.082  -6.223  35.870  1.00  0.00     0.024 C 
HETATM    8  C6  UNK     1      30.777  -5.886  34.551  1.00  0.00     0.104 C 
HETATM    9  C7  UNK     1      30.835  -6.071  37.152  1.00  0.00     0.159 C 
HETATM   10  C8  UNK     1      28.317  -4.822  38.479  1.00  0.00     0.015 C 
HETATM   11  C9  UNK     1      28.050  -6.993  39.679  1.00  0.00     0.015 C 
HETATM   12  C10 UNK     1      29.797  -5.822  33.377  1.00  0.00     0.052 C 
HETATM   13  C11 UNK     1      28.520  -6.255  33.498  1.00  0.00     0.018 C 
HETATM   14  C13 UNK     1      27.503  -6.289  32.390  1.00  0.00     0.069 C 
HETATM   15  H12 UNK     1      27.101  -7.014  34.788  1.00  0.00     0.165 HD
ENDROOT
BRANCH   8  16
HETATM   16  C12 UNK     1      31.873  -6.882  34.260  1.00  0.00     0.029 A 
HETATM   17  C15 UNK     1      33.264  -6.382  34.113  1.00  0.00     0.194 A 
HETATM   18  O5  UNK     1      33.545  -5.196  34.221  1.00  0.00    -0.287 OA
HETATM   19  C17 UNK     1      34.295  -7.397  33.828  1.00  0.00     0.048 A 
HETATM   20  C18 UNK     1      33.918  -8.735  33.715  1.00  0.00     0.089 A 
HETATM   21  C19 UNK     1      35.633  -7.028  33.672  1.00  0.00     0.018 A 
HETATM   22  O2  UNK     1      32.619  -9.154  33.860  1.00  0.00    -0.321 OA
HETATM   23  C21 UNK     1      34.877  -9.711  33.446  1.00  0.00     0.038 A 
HETATM   24  C16 UNK     1      31.669  -8.198  34.123  1.00  0.00     0.154 A 
HETATM   25  C24 UNK     1      36.214  -9.346  33.290  1.00  0.00     0.003 A 
HETATM   26  C22 UNK     1      36.591  -8.007  33.403  1.00  0.00     0.001 A 
ENDBRANCH   8  16
BRANCH  12  27
HETATM   27  C14 UNK     1      30.293  -5.214  32.132  1.00  0.00     0.292 C 
HETATM   28  O4  UNK     1      30.193  -4.026  31.881  1.00  0.00    -0.259 OA
BRANCH  27  29
HETATM   29  O3  UNK     1      30.850  -6.188  31.372  1.00  0.00    -0.316 OA
BRANCH  29  30
HETATM   30  C20 UNK     1      30.574  -6.097  29.971  1.00  0.00     0.205 C 
BRANCH  30  31
HETATM   31  C23 UNK     1      29.810  -7.332  29.536  1.00  0.00     0.195 C 
BRANCH  31  32
HETATM   32  O6  UNK     1      30.268  -8.450  30.288  1.00  0.00    -0.385 OA
BRANCH  32  33
HETATM   33  C25 UNK     1      29.227  -9.392  30.506  1.00  0.00     0.113 C 
HETATM   34  C27 UNK     1      27.961  -8.908  29.816  1.00  0.00     0.039 C 
HETATM   35  C26 UNK     1      29.023  -9.575  32.003  1.00  0.00     0.039 C 
ENDBRANCH  32  33
ENDBRANCH  31  32
ENDBRANCH  30  31
ENDBRANCH  29  30
ENDBRANCH  27  29
ENDBRANCH  12  27
TORSDOF 7
ENDMDL
MODEL 6
REMARK VINA RESULT:      -7.4      3.057      6.921
REMARK  7 active torsions:
REMARK  status: ('A' for Active; 'I' for Inactive)
REMARK    1  A    between atoms: C14_21  and  O3_3 
REMARK    2  A    between atoms: C20_27  and  O3_3 
REMARK    3  A    between atoms: C23_30  and  O6_6 
REMARK    4  A    between atoms: C25_32  and  O6_6 
REMARK    5  A    between atoms: C12_19  and  C6_13 
REMARK    6  A    between atoms: C10_17  and  C14_21 
REMARK    7  A    between atoms: C20_27  and  C23_30 
ROOT
HETATM    1  O1  UNK     1      28.550  -6.232  33.988  1.00  0.00    -0.293 OA
HETATM    2  N1  UNK     1      29.058 -10.191  31.439  1.00  0.00    -0.362 N 
HETATM    3  C1  UNK     1      27.578  -6.840  30.547  1.00  0.00    -0.036 C 
HETATM    4  C2  UNK     1      27.653  -8.380  30.556  1.00  0.00     0.067 C 
HETATM    5  C3  UNK     1      27.279  -6.339  31.968  1.00  0.00     0.092 C 
HETATM    6  C4  UNK     1      28.509  -8.942  31.663  1.00  0.00     0.021 C 
HETATM    7  C5  UNK     1      28.782  -8.275  32.803  1.00  0.00     0.024 C 
HETATM    8  C6  UNK     1      29.654  -8.896  33.894  1.00  0.00     0.104 C 
HETATM    9  C7  UNK     1      28.247  -6.893  32.995  1.00  0.00     0.159 C 
HETATM   10  C8  UNK     1      28.898  -6.233  30.028  1.00  0.00     0.015 C 
HETATM   11  C9  UNK     1      26.445  -6.394  29.605  1.00  0.00     0.015 C 
HETATM   12  C10 UNK     1      30.343 -10.181  33.426  1.00  0.00     0.052 C 
HETATM   13  C11 UNK     1      30.002 -10.782  32.262  1.00  0.00     0.018 C 
HETATM   14  C13 UNK     1      30.577 -12.074  31.748  1.00  0.00     0.069 C 
HETATM   15  H12 UNK     1      28.829 -10.661  30.570  1.00  0.00     0.165 HD
ENDROOT
BRANCH   8  16
HETATM   16  C12 UNK     1      28.838  -9.167  35.134  1.00  0.00     0.029 A 
HETATM   17  C15 UNK     1      29.234  -8.502  36.402  1.00  0.00     0.194 A 
HETATM   18  O5  UNK     1      30.194  -7.747  36.469  1.00  0.00    -0.287 OA
HETATM   19  C17 UNK     1      28.403  -8.801  37.583  1.00  0.00     0.048 A 
HETATM   20  C18 UNK     1      27.320  -9.670  37.449  1.00  0.00     0.089 A 
HETATM   21  C19 UNK     1      28.695  -8.226  38.823  1.00  0.00     0.018 A 
HETATM   22  O2  UNK     1      26.989 -10.263  36.256  1.00  0.00    -0.321 OA
HETATM   23  C21 UNK     1      26.522  -9.967  38.553  1.00  0.00     0.038 A 
HETATM   24  C16 UNK     1      27.772  -9.976  35.165  1.00  0.00     0.154 A 
HETATM   25  C24 UNK     1      26.809  -9.394  39.792  1.00  0.00     0.003 A 
HETATM   26  C22 UNK     1      27.893  -8.526  39.926  1.00  0.00     0.001 A 
ENDBRANCH   8  16
BRANCH  12  27
HETATM   27  C14 UNK     1      31.432 -10.695  34.273  1.00  0.00     0.292 C 
HETATM   28  O4  UNK     1      31.333 -11.702  34.950  1.00  0.00    -0.259 OA
BRANCH  27  29
HETATM   29  O3  UNK     1      32.498  -9.868  34.147  1.00  0.00    -0.316 OA
BRANCH  29  30
HETATM   30  C20 UNK     1      33.565 -10.372  33.337  1.00  0.00     0.205 C 
BRANCH  30  31
HETATM   31  C23 UNK     1      33.841  -9.389  32.216  1.00  0.00     0.195 C 
BRANCH  31  32
HETATM   32  O6  UNK     1      33.233  -9.864  31.021  1.00  0.00    -0.385 OA
BRANCH  32  33
HETATM   33  C25 UNK     1      32.724  -8.795  30.236  1.00  0.00     0.113 C 
HETATM   34  C27 UNK     1      32.109  -7.749  31.154  1.00  0.00     0.039 C 
HETATM   35  C26 UNK     1      31.712  -9.342  29.241  1.00  0.00     0.039 C 
ENDBRANCH  32  33
ENDBRANCH  31  32
ENDBRANCH  30  31
ENDBRANCH  29  30
ENDBRANCH  27  29
ENDBRANCH  12  27
TORSDOF 7
ENDMDL
MODEL 7
REMARK VINA RESULT:      -7.4      2.055      5.636
REMARK  7 active torsions:
REMARK  status: ('A' for Active; 'I' for Inactive)
REMARK    1  A    between atoms: C14_21  and  O3_3 
REMARK    2  A    between atoms: C20_27  and  O3_3 
REMARK    3  A    between atoms: C23_30  and  O6_6 
REMARK    4  A    between atoms: C25_32  and  O6_6 
REMARK    5  A    between atoms: C12_19  and  C6_13 
REMARK    6  A    between atoms: C10_17  and  C14_21 
REMARK    7  A    between atoms: C20_27  and  C23_30 
ROOT
HETATM    1  O1  UNK     1      27.867  -6.997  32.234  1.00  0.00    -0.293 OA
HETATM    2  N1  UNK     1      31.330 -10.227  32.168  1.00  0.00    -0.362 N 
HETATM    3  C1  UNK     1      28.826  -9.221  29.534  1.00  0.00    -0.036 C 
HETATM    4  C2  UNK     1      29.681 -10.214  30.348  1.00  0.00     0.067 C 
HETATM    5  C3  UNK     1      27.773  -8.588  30.455  1.00  0.00     0.092 C 
HETATM    6  C4  UNK     1      30.177  -9.660  31.659  1.00  0.00     0.021 C 
HETATM    7  C5  UNK     1      29.579  -8.639  32.308  1.00  0.00     0.024 C 
HETATM    8  C6  UNK     1      30.124  -8.120  33.639  1.00  0.00     0.104 C 
HETATM    9  C7  UNK     1      28.379  -7.983  31.704  1.00  0.00     0.159 C 
HETATM   10  C8  UNK     1      29.715  -8.130  28.901  1.00  0.00     0.015 C 
HETATM   11  C9  UNK     1      28.117  -9.978  28.397  1.00  0.00     0.015 C 
HETATM   12  C10 UNK     1      31.500  -8.703  33.971  1.00  0.00     0.052 C 
HETATM   13  C11 UNK     1      32.020  -9.732  33.262  1.00  0.00     0.018 C 
HETATM   14  C13 UNK     1      33.332 -10.411  33.549  1.00  0.00     0.069 C 
HETATM   15  H12 UNK     1      31.749 -10.993  31.652  1.00  0.00     0.165 HD
ENDROOT
BRANCH   8  16
HETATM   16  C12 UNK     1      29.153  -8.408  34.757  1.00  0.00     0.029 A 
HETATM   17  C15 UNK     1      28.812  -7.312  35.699  1.00  0.00     0.194 A 
HETATM   18  O5  UNK     1      29.291  -6.190  35.595  1.00  0.00    -0.287 OA
HETATM   19  C17 UNK     1      27.859  -7.647  36.774  1.00  0.00     0.048 A 
HETATM   20  C18 UNK     1      27.344  -8.942  36.845  1.00  0.00     0.089 A 
HETATM   21  C19 UNK     1      27.475  -6.685  37.711  1.00  0.00     0.018 A 
HETATM   22  O2  UNK     1      27.686  -9.925  35.951  1.00  0.00    -0.321 OA
HETATM   23  C21 UNK     1      26.442  -9.281  37.853  1.00  0.00     0.038 A 
HETATM   24  C16 UNK     1      28.575  -9.599  34.956  1.00  0.00     0.154 A 
HETATM   25  C24 UNK     1      26.056  -8.322  38.790  1.00  0.00     0.003 A 
HETATM   26  C22 UNK     1      26.572  -7.028  38.719  1.00  0.00     0.001 A 
ENDBRANCH   8  16
BRANCH  12  27
HETATM   27  C14 UNK     1      32.250  -8.054  35.058  1.00  0.00     0.292 C 
HETATM   28  O4  UNK     1      32.522  -8.610  36.107  1.00  0.00    -0.259 OA
BRANCH  27  29
HETATM   29  O3  UNK     1      32.556  -6.792  34.673  1.00  0.00    -0.316 OA
BRANCH  29  30
HETATM   30  C20 UNK     1      33.832  -6.316  35.112  1.00  0.00     0.205 C 
BRANCH  30  31
HETATM   31  C23 UNK     1      33.627  -5.138  36.045  1.00  0.00     0.195 C 
BRANCH  31  32
HETATM   32  O6  UNK     1      33.485  -5.620  37.376  1.00  0.00    -0.385 OA
BRANCH  32  33
HETATM   33  C25 UNK     1      32.322  -5.092  37.999  1.00  0.00     0.113 C 
HETATM   34  C27 UNK     1      31.388  -6.236  38.364  1.00  0.00     0.039 C 
HETATM   35  C26 UNK     1      31.659  -4.096  37.060  1.00  0.00     0.039 C 
ENDBRANCH  32  33
ENDBRANCH  31  32
ENDBRANCH  30  31
ENDBRANCH  29  30
ENDBRANCH  27  29
ENDBRANCH  12  27
TORSDOF 7
ENDMDL
MODEL 8
REMARK VINA RESULT:      -7.4      2.032      5.070
REMARK  7 active torsions:
REMARK  status: ('A' for Active; 'I' for Inactive)
REMARK    1  A    between atoms: C14_21  and  O3_3 
REMARK    2  A    between atoms: C20_27  and  O3_3 
REMARK    3  A    between atoms: C23_30  and  O6_6 
REMARK    4  A    between atoms: C25_32  and  O6_6 
REMARK    5  A    between atoms: C12_19  and  C6_13 
REMARK    6  A    between atoms: C10_17  and  C14_21 
REMARK    7  A    between atoms: C20_27  and  C23_30 
ROOT
HETATM    1  O1  UNK     1      28.789 -10.134  35.295  1.00  0.00    -0.293 OA
HETATM    2  N1  UNK     1      30.163  -5.607  35.530  1.00  0.00    -0.362 N 
HETATM    3  C1  UNK     1      27.868  -7.622  37.743  1.00  0.00    -0.036 C 
HETATM    4  C2  UNK     1      28.322  -6.368  36.968  1.00  0.00     0.067 C 
HETATM    5  C3  UNK     1      27.509  -8.732  36.745  1.00  0.00     0.092 C 
HETATM    6  C4  UNK     1      29.332  -6.653  35.885  1.00  0.00     0.021 C 
HETATM    7  C5  UNK     1      29.474  -7.861  35.301  1.00  0.00     0.024 C 
HETATM    8  C6  UNK     1      30.512  -8.093  34.204  1.00  0.00     0.104 C 
HETATM    9  C7  UNK     1      28.621  -9.003  35.752  1.00  0.00     0.159 C 
HETATM   10  C8  UNK     1      28.978  -8.098  38.704  1.00  0.00     0.015 C 
HETATM   11  C9  UNK     1      26.626  -7.274  38.584  1.00  0.00     0.015 C 
HETATM   12  C10 UNK     1      31.479  -6.915  34.061  1.00  0.00     0.052 C 
HETATM   13  C11 UNK     1      31.253  -5.736  34.687  1.00  0.00     0.018 C 
HETATM   14  C13 UNK     1      32.110  -4.505  34.561  1.00  0.00     0.069 C 
HETATM   15  H12 UNK     1      30.024  -4.715  35.991  1.00  0.00     0.165 HD
ENDROOT
BRANCH   8  16
HETATM   16  C12 UNK     1      29.835  -8.372  32.884  1.00  0.00     0.029 A 
HETATM   17  C15 UNK     1      30.346  -9.488  32.048  1.00  0.00     0.194 A 
HETATM   18  O5  UNK     1      31.292 -10.182  32.396  1.00  0.00    -0.287 OA
HETATM   19  C17 UNK     1      29.650  -9.717  30.769  1.00  0.00     0.048 A 
HETATM   20  C18 UNK     1      28.578  -8.895  30.422  1.00  0.00     0.089 A 
HETATM   21  C19 UNK     1      30.055 -10.742  29.910  1.00  0.00     0.018 A 
HETATM   22  O2  UNK     1      28.137  -7.874  31.227  1.00  0.00    -0.321 OA
HETATM   23  C21 UNK     1      27.904  -9.093  29.217  1.00  0.00     0.038 A 
HETATM   24  C16 UNK     1      28.796  -7.671  32.415  1.00  0.00     0.154 A 
HETATM   25  C24 UNK     1      28.307 -10.116  28.359  1.00  0.00     0.003 A 
HETATM   26  C22 UNK     1      29.380 -10.939  28.704  1.00  0.00     0.001 A 
ENDBRANCH   8  16
BRANCH  12  27
HETATM   27  C14 UNK     1      32.692  -7.146  33.260  1.00  0.00     0.292 C 
HETATM   28  O4  UNK     1      32.811  -6.778  32.106  1.00  0.00    -0.259 OA
BRANCH  27  29
HETATM   29  O3  UNK     1      33.591  -7.809  34.027  1.00  0.00    -0.316 OA
BRANCH  29  30
HETATM   30  C20 UNK     1      34.668  -7.010  34.527  1.00  0.00     0.205 C 
BRANCH  30  31
HETATM   31  C23 UNK     1      34.765  -7.195  36.029  1.00  0.00     0.195 C 
BRANCH  31  32
HETATM   32  O6  UNK     1      34.014  -6.172  36.672  1.00  0.00    -0.385 OA
BRANCH  32  33
HETATM   33  C25 UNK     1      33.328  -6.670  37.813  1.00  0.00     0.113 C 
HETATM   34  C27 UNK     1      32.619  -7.964  37.445  1.00  0.00     0.039 C 
HETATM   35  C26 UNK     1      32.356  -5.612  38.313  1.00  0.00     0.039 C 
ENDBRANCH  32  33
ENDBRANCH  31  32
ENDBRANCH  30  31
ENDBRANCH  29  30
ENDBRANCH  27  29
ENDBRANCH  12  27
TORSDOF 7
ENDMDL
MODEL 9
REMARK VINA RESULT:      -7.4      2.323      5.919
REMARK  7 active torsions:
REMARK  status: ('A' for Active; 'I' for Inactive)
REMARK    1  A    between atoms: C14_21  and  O3_3 
REMARK    2  A    between atoms: C20_27  and  O3_3 
REMARK    3  A    between atoms: C23_30  and  O6_6 
REMARK    4  A    between atoms: C25_32  and  O6_6 
REMARK    5  A    between atoms: C12_19  and  C6_13 
REMARK    6  A    between atoms: C10_17  and  C14_21 
REMARK    7  A    between atoms: C20_27  and  C23_30 
ROOT
HETATM    1  O1  UNK     1      29.165  -7.513  36.070  1.00  0.00    -0.293 OA
HETATM    2  N1  UNK     1      32.947  -4.743  35.400  1.00  0.00    -0.362 N 
HETATM    3  C1  UNK     1      30.443  -4.884  38.216  1.00  0.00    -0.036 C 
HETATM    4  C2  UNK     1      31.369  -4.186  37.198  1.00  0.00     0.067 C 
HETATM    5  C3  UNK     1      29.298  -5.579  37.465  1.00  0.00     0.092 C 
HETATM    6  C4  UNK     1      31.759  -5.059  36.032  1.00  0.00     0.021 C 
HETATM    7  C5  UNK     1      31.036  -6.123  35.625  1.00  0.00     0.024 C 
HETATM    8  C6  UNK     1      31.478  -6.970  34.432  1.00  0.00     0.104 C 
HETATM    9  C7  UNK     1      29.795  -6.499  36.369  1.00  0.00     0.159 C 
HETATM   10  C8  UNK     1      31.233  -5.905  39.060  1.00  0.00     0.015 C 
HETATM   11  C9  UNK     1      29.856  -3.828  39.171  1.00  0.00     0.015 C 
HETATM   12  C10 UNK     1      32.895  -6.625  33.967  1.00  0.00     0.052 C 
HETATM   13  C11 UNK     1      33.544  -5.532  34.431  1.00  0.00     0.018 C 
HETATM   14  C13 UNK     1      34.909  -5.077  33.991  1.00  0.00     0.069 C 
HETATM   15  H12 UNK     1      33.461  -3.935  35.734  1.00  0.00     0.165 HD
ENDROOT
BRANCH   8  16
HETATM   16  C12 UNK     1      30.504  -6.822  33.288  1.00  0.00     0.029 A 
HETATM   17  C15 UNK     1      29.878  -8.047  32.728  1.00  0.00     0.194 A 
HETATM   18  O5  UNK     1      30.125  -9.163  33.165  1.00  0.00    -0.287 OA
HETATM   19  C17 UNK     1      28.936  -7.846  31.612  1.00  0.00     0.048 A 
HETATM   20  C18 UNK     1      28.691  -6.552  31.154  1.00  0.00     0.089 A 
HETATM   21  C19 UNK     1      28.295  -8.935  31.016  1.00  0.00     0.018 A 
HETATM   22  O2  UNK     1      29.292  -5.446  31.702  1.00  0.00    -0.321 OA
HETATM   23  C21 UNK     1      27.804  -6.338  30.100  1.00  0.00     0.038 A 
HETATM   24  C16 UNK     1      30.168  -5.648  32.741  1.00  0.00     0.154 A 
HETATM   25  C24 UNK     1      27.162  -7.424  29.504  1.00  0.00     0.003 A 
HETATM   26  C22 UNK     1      27.407  -8.719  29.960  1.00  0.00     0.001 A 
ENDBRANCH   8  16
BRANCH  12  27
HETATM   27  C14 UNK     1      33.535  -7.569  33.037  1.00  0.00     0.292 C 
HETATM   28  O4  UNK     1      34.195  -8.524  33.403  1.00  0.00    -0.259 OA
BRANCH  27  29
HETATM   29  O3  UNK     1      33.255  -7.179  31.770  1.00  0.00    -0.316 OA
BRANCH  29  30
HETATM   30  C20 UNK     1      33.821  -7.999  30.743  1.00  0.00     0.205 C 
BRANCH  30  31
HETATM   31  C23 UNK     1      32.744  -8.913  30.191  1.00  0.00     0.195 C 
BRANCH  31  32
HETATM   32  O6  UNK     1      32.882  -8.991  28.777  1.00  0.00    -0.385 OA
BRANCH  32  33
HETATM   33  C25 UNK     1      31.648  -8.736  28.120  1.00  0.00     0.113 C 
HETATM   34  C27 UNK     1      31.105  -7.391  28.580  1.00  0.00     0.039 C 
HETATM   35  C26 UNK     1      30.679  -9.870  28.415  1.00  0.00     0.039 C 
ENDBRANCH  32  33
ENDBRANCH  31  32
ENDBRANCH  30  31
ENDBRANCH  29  30
ENDBRANCH  27  29
ENDBRANCH  12  27
TORSDOF 7
ENDMDL
MODEL 10
REMARK VINA RESULT:      -7.3      2.259      6.239
REMARK  7 active torsions:
REMARK  status: ('A' for Active; 'I' for Inactive)
REMARK    1  A    between atoms: C14_21  and  O3_3 
REMARK    2  A    between atoms: C20_27  and  O3_3 
REMARK    3  A    between atoms: C23_30  and  O6_6 
REMARK    4  A    between atoms: C25_32  and  O6_6 
REMARK    5  A    between atoms: C12_19  and  C6_13 
REMARK    6  A    between atoms: C10_17  and  C14_21 
REMARK    7  A    between atoms: C20_27  and  C23_30 
ROOT
HETATM    1  O1  UNK     1      28.490  -6.199  33.925  1.00  0.00    -0.293 OA
HETATM    2  N1  UNK     1      29.024 -10.172  31.402  1.00  0.00    -0.362 N 
HETATM    3  C1  UNK     1      27.479  -6.852  30.504  1.00  0.00    -0.036 C 
HETATM    4  C2  UNK     1      27.578  -8.391  30.524  1.00  0.00     0.067 C 
HETATM    5  C3  UNK     1      27.193  -6.344  31.925  1.00  0.00     0.092 C 
HETATM    6  C4  UNK     1      28.459  -8.930  31.623  1.00  0.00     0.021 C 
HETATM    7  C5  UNK     1      28.737  -8.249  32.754  1.00  0.00     0.024 C 
HETATM    8  C6  UNK     1      29.634  -8.847  33.838  1.00  0.00     0.104 C 
HETATM    9  C7  UNK     1      28.183  -6.873  32.942  1.00  0.00     0.159 C 
HETATM   10  C8  UNK     1      28.782  -6.229  29.961  1.00  0.00     0.015 C 
HETATM   11  C9  UNK     1      26.326  -6.432  29.574  1.00  0.00     0.015 C 
HETATM   12  C10 UNK     1      30.337 -10.124  33.371  1.00  0.00     0.052 C 
HETATM   13  C11 UNK     1      29.988 -10.741  32.217  1.00  0.00     0.018 C 
HETATM   14  C13 UNK     1      30.576 -12.028  31.706  1.00  0.00     0.069 C 
HETATM   15  H12 UNK     1      28.790 -10.653  30.541  1.00  0.00     0.165 HD
ENDROOT
BRANCH   8  16
HETATM   16  C12 UNK     1      28.839  -9.120  35.092  1.00  0.00     0.029 A 
HETATM   17  C15 UNK     1      29.230  -8.422  36.343  1.00  0.00     0.194 A 
HETATM   18  O5  UNK     1      30.169  -7.638  36.386  1.00  0.00    -0.287 OA
HETATM   19  C17 UNK     1      28.421  -8.725  37.539  1.00  0.00     0.048 A 
HETATM   20  C18 UNK     1      27.363  -9.626  37.432  1.00  0.00     0.089 A 
HETATM   21  C19 UNK     1      28.709  -8.120  38.765  1.00  0.00     0.018 A 
HETATM   22  O2  UNK     1      27.035 -10.249  36.253  1.00  0.00    -0.321 OA
HETATM   23  C21 UNK     1      26.585  -9.928  38.550  1.00  0.00     0.038 A 
HETATM   24  C16 UNK     1      27.798  -9.958  35.148  1.00  0.00     0.154 A 
HETATM   25  C24 UNK     1      26.870  -9.325  39.775  1.00  0.00     0.003 A 
HETATM   26  C22 UNK     1      27.929  -8.423  39.883  1.00  0.00     0.001 A 
ENDBRANCH   8  16
BRANCH  12  27
HETATM   27  C14 UNK     1      31.445 -10.614  34.206  1.00  0.00     0.292 C 
HETATM   28  O4  UNK     1      31.330 -11.532  34.997  1.00  0.00    -0.259 OA
BRANCH  27  29
HETATM   29  O3  UNK     1      32.548  -9.879  33.927  1.00  0.00    -0.316 OA
BRANCH  29  30
HETATM   30  C20 UNK     1      33.061  -9.114  35.023  1.00  0.00     0.205 C 
BRANCH  30  31
HETATM   31  C23 UNK     1      33.469  -7.743  34.520  1.00  0.00     0.195 C 
BRANCH  31  32
HETATM   32  O6  UNK     1      34.497  -7.229  35.358  1.00  0.00    -0.385 OA
BRANCH  32  33
HETATM   33  C25 UNK     1      34.043  -6.116  36.116  1.00  0.00     0.113 C 
HETATM   34  C27 UNK     1      34.683  -4.847  35.576  1.00  0.00     0.039 C 
HETATM   35  C26 UNK     1      34.376  -6.340  37.584  1.00  0.00     0.039 C 
ENDBRANCH  32  33
ENDBRANCH  31  32
ENDBRANCH  30  31
ENDBRANCH  29  30
ENDBRANCH  27  29
ENDBRANCH  12  27
TORSDOF 7
ENDMDL
