MODEL 1
REMARK VINA RESULT:      -8.1      0.000      0.000
REMARK  1 active torsions:
REMARK  status: ('A' for Active; 'I' for Inactive)
REMARK    1  A    between atoms: C2_7  and  C4_9 
ROOT
HETATM    1 Cl2  UNK     1      14.638  10.615  35.522  1.00  0.00    -0.084 Cl
HETATM    2  O1  UNK     1      16.613   6.046  32.390  1.00  0.00    -0.309 OA
HETATM    3  O2  UNK     1      19.149   7.730  35.100  1.00  0.00    -0.287 OA
HETATM    4  C1  UNK     1      17.014   7.738  34.086  1.00  0.00     0.050 A 
HETATM    5  C2  UNK     1      17.903   5.573  32.575  1.00  0.00     0.091 A 
HETATM    6  C3  UNK     1      16.198   7.114  33.143  1.00  0.00     0.090 A 
HETATM    7  C5  UNK     1      18.382   7.232  34.288  1.00  0.00     0.187 A 
HETATM    8  C6  UNK     1      18.782   6.082  33.452  1.00  0.00     0.093 A 
HETATM    9  C7  UNK     1      16.538   8.823  34.826  1.00  0.00     0.042 A 
HETATM   10  C8  UNK     1      14.898   7.573  32.935  1.00  0.00     0.040 A 
HETATM   11  C11 UNK     1      15.236   9.280  34.615  1.00  0.00     0.035 A 
HETATM   12  C12 UNK     1      14.418   8.656  33.672  1.00  0.00     0.026 A 
ENDROOT
BRANCH   5  13
HETATM   13  C4  UNK     1      18.245   4.456  31.746  1.00  0.00     0.020 A 
HETATM   14  C10 UNK     1      18.107   3.171  32.283  1.00  0.00     0.017 A 
HETATM   15  C14 UNK     1      18.429   2.051  31.517  1.00  0.00     0.025 A 
HETATM   16  C15 UNK     1      18.890   2.209  30.210  1.00  0.00     0.035 A 
HETATM   17  C13 UNK     1      19.029   3.487  29.669  1.00  0.00     0.048 A 
HETATM   18 Cl3  UNK     1      19.287   0.826  29.265  1.00  0.00    -0.084 Cl
HETATM   19  C9  UNK     1      18.707   4.608  30.435  1.00  0.00     0.048 A 
HETATM   20 Cl1  UNK     1      18.897   6.169  29.716  1.00  0.00    -0.083 Cl
ENDBRANCH   5  13
TORSDOF 1
ENDMDL
MODEL 2
REMARK VINA RESULT:      -8.0      9.527     12.911
REMARK  1 active torsions:
REMARK  status: ('A' for Active; 'I' for Inactive)
REMARK    1  A    between atoms: C2_7  and  C4_9 
ROOT
HETATM    1 Cl2  UNK     1      20.335 -10.425  37.175  1.00  0.00    -0.084 Cl
HETATM    2  O1  UNK     1      18.814  -4.778  36.558  1.00  0.00    -0.309 OA
HETATM    3  O2  UNK     1      22.466  -5.595  38.171  1.00  0.00    -0.287 OA
HETATM    4  C1  UNK     1      20.447  -6.430  37.269  1.00  0.00     0.050 A 
HETATM    5  C2  UNK     1      19.677  -3.770  36.958  1.00  0.00     0.091 A 
HETATM    6  C3  UNK     1      19.213  -6.080  36.722  1.00  0.00     0.090 A 
HETATM    7  C5  UNK     1      21.367  -5.360  37.687  1.00  0.00     0.187 A 
HETATM    8  C6  UNK     1      20.892  -3.976  37.492  1.00  0.00     0.093 A 
HETATM    9  C7  UNK     1      20.801  -7.773  37.412  1.00  0.00     0.042 A 
HETATM   10  C8  UNK     1      18.324  -7.075  36.316  1.00  0.00     0.040 A 
HETATM   11  C11 UNK     1      19.909  -8.766  37.005  1.00  0.00     0.035 A 
HETATM   12  C12 UNK     1      18.674  -8.418  36.458  1.00  0.00     0.026 A 
ENDROOT
BRANCH   5  13
HETATM   13  C4  UNK     1      19.175  -2.446  36.745  1.00  0.00     0.020 A 
HETATM   14  C10 UNK     1      18.451  -1.842  37.778  1.00  0.00     0.017 A 
HETATM   15  C14 UNK     1      17.940  -0.554  37.619  1.00  0.00     0.025 A 
HETATM   16  C15 UNK     1      18.151   0.137  36.426  1.00  0.00     0.035 A 
HETATM   17  C13 UNK     1      18.873  -0.459  35.392  1.00  0.00     0.048 A 
HETATM   18 Cl3  UNK     1      17.520   1.726  36.230  1.00  0.00    -0.084 Cl
HETATM   19  C9  UNK     1      19.384  -1.748  35.551  1.00  0.00     0.048 A 
HETATM   20 Cl1  UNK     1      20.272  -2.440  34.239  1.00  0.00    -0.083 Cl
ENDBRANCH   5  13
TORSDOF 1
ENDMDL
MODEL 3
REMARK VINA RESULT:      -7.7      2.149      6.993
REMARK  1 active torsions:
REMARK  status: ('A' for Active; 'I' for Inactive)
REMARK    1  A    between atoms: C2_7  and  C4_9 
ROOT
HETATM    1 Cl2  UNK     1      19.302  -1.704  31.961  1.00  0.00    -0.084 Cl
HETATM    2  O1  UNK     1      17.981   3.900  33.159  1.00  0.00    -0.309 OA
HETATM    3  O2  UNK     1      18.993   2.966  29.324  1.00  0.00    -0.287 OA
HETATM    4  C1  UNK     1      18.654   2.219  31.540  1.00  0.00     0.050 A 
HETATM    5  C2  UNK     1      18.023   4.861  32.161  1.00  0.00     0.091 A 
HETATM    6  C3  UNK     1      18.298   2.607  32.832  1.00  0.00     0.090 A 
HETATM    7  C5  UNK     1      18.692   3.237  30.478  1.00  0.00     0.187 A 
HETATM    8  C6  UNK     1      18.345   4.615  30.881  1.00  0.00     0.093 A 
HETATM    9  C7  UNK     1      18.967   0.886  31.264  1.00  0.00     0.042 A 
HETATM   10  C8  UNK     1      18.252   1.661  33.855  1.00  0.00     0.040 A 
HETATM   11  C11 UNK     1      18.921  -0.058  32.290  1.00  0.00     0.035 A 
HETATM   12  C12 UNK     1      18.564   0.329  33.583  1.00  0.00     0.026 A 
ENDROOT
BRANCH   5  13
HETATM   13  C4  UNK     1      17.675   6.179  32.597  1.00  0.00     0.020 A 
HETATM   14  C10 UNK     1      16.324   6.544  32.579  1.00  0.00     0.017 A 
HETATM   15  C14 UNK     1      15.935   7.818  32.993  1.00  0.00     0.025 A 
HETATM   16  C15 UNK     1      16.893   8.734  33.427  1.00  0.00     0.035 A 
HETATM   17  C13 UNK     1      18.241   8.376  33.448  1.00  0.00     0.048 A 
HETATM   18 Cl3  UNK     1      16.412  10.306  33.936  1.00  0.00    -0.084 Cl
HETATM   19  C9  UNK     1      18.631   7.102  33.034  1.00  0.00     0.048 A 
HETATM   20 Cl1  UNK     1      20.315   6.709  33.080  1.00  0.00    -0.083 Cl
ENDBRANCH   5  13
TORSDOF 1
ENDMDL
MODEL 4
REMARK VINA RESULT:      -7.6      1.964      6.940
REMARK  1 active torsions:
REMARK  status: ('A' for Active; 'I' for Inactive)
REMARK    1  A    between atoms: C2_7  and  C4_9 
ROOT
HETATM    1 Cl2  UNK     1      19.565  -0.945  29.645  1.00  0.00    -0.084 Cl
HETATM    2  O1  UNK     1      18.187   4.507  31.368  1.00  0.00    -0.309 OA
HETATM    3  O2  UNK     1      18.608   1.654  34.248  1.00  0.00    -0.287 OA
HETATM    4  C1  UNK     1      18.665   2.196  31.948  1.00  0.00     0.050 A 
HETATM    5  C2  UNK     1      18.010   4.795  32.712  1.00  0.00     0.091 A 
HETATM    6  C3  UNK     1      18.508   3.221  31.015  1.00  0.00     0.090 A 
HETATM    7  C5  UNK     1      18.482   2.503  33.377  1.00  0.00     0.187 A 
HETATM    8  C6  UNK     1      18.137   3.901  33.705  1.00  0.00     0.093 A 
HETATM    9  C7  UNK     1      18.991   0.904  31.532  1.00  0.00     0.042 A 
HETATM   10  C8  UNK     1      18.677   2.956  29.656  1.00  0.00     0.040 A 
HETATM   11  C11 UNK     1      19.160   0.643  30.171  1.00  0.00     0.035 A 
HETATM   12  C12 UNK     1      19.003   1.667  29.235  1.00  0.00     0.026 A 
ENDROOT
BRANCH   5  13
HETATM   13  C4  UNK     1      17.680   6.162  32.983  1.00  0.00     0.020 A 
HETATM   14  C10 UNK     1      16.328   6.518  33.025  1.00  0.00     0.017 A 
HETATM   15  C14 UNK     1      15.957   7.837  33.283  1.00  0.00     0.025 A 
HETATM   16  C15 UNK     1      16.935   8.807  33.501  1.00  0.00     0.035 A 
HETATM   17  C13 UNK     1      18.285   8.459  33.461  1.00  0.00     0.048 A 
HETATM   18 Cl3  UNK     1      16.475  10.435  33.819  1.00  0.00    -0.084 Cl
HETATM   19  C9  UNK     1      18.657   7.139  33.203  1.00  0.00     0.048 A 
HETATM   20 Cl1  UNK     1      20.344   6.760  33.164  1.00  0.00    -0.083 Cl
ENDBRANCH   5  13
TORSDOF 1
ENDMDL
MODEL 5
REMARK VINA RESULT:      -7.6      9.118     11.280
REMARK  1 active torsions:
REMARK  status: ('A' for Active; 'I' for Inactive)
REMARK    1  A    between atoms: C2_7  and  C4_9 
ROOT
HETATM    1 Cl2  UNK     1      17.904   2.166  35.495  1.00  0.00    -0.084 Cl
HETATM    2  O1  UNK     1      19.100  -3.212  37.553  1.00  0.00    -0.309 OA
HETATM    3  O2  UNK     1      20.552  -2.219  33.876  1.00  0.00    -0.287 OA
HETATM    4  C1  UNK     1      19.312  -1.565  35.779  1.00  0.00     0.050 A 
HETATM    5  C2  UNK     1      19.847  -4.103  36.798  1.00  0.00     0.091 A 
HETATM    6  C3  UNK     1      18.847  -1.970  37.030  1.00  0.00     0.090 A 
HETATM    7  C5  UNK     1      20.111  -2.509  34.980  1.00  0.00     0.187 A 
HETATM    8  C6  UNK     1      20.355  -3.834  35.585  1.00  0.00     0.093 A 
HETATM    9  C7  UNK     1      19.023  -0.287  35.297  1.00  0.00     0.042 A 
HETATM   10  C8  UNK     1      18.089  -1.094  37.808  1.00  0.00     0.040 A 
HETATM   11  C11 UNK     1      18.264   0.587  36.078  1.00  0.00     0.035 A 
HETATM   12  C12 UNK     1      17.798   0.184  37.330  1.00  0.00     0.026 A 
ENDROOT
BRANCH   5  13
HETATM   13  C4  UNK     1      20.061  -5.372  37.426  1.00  0.00     0.020 A 
HETATM   14  C10 UNK     1      21.285  -5.591  38.068  1.00  0.00     0.017 A 
HETATM   15  C14 UNK     1      21.542  -6.811  38.692  1.00  0.00     0.025 A 
HETATM   16  C15 UNK     1      20.577  -7.819  38.679  1.00  0.00     0.035 A 
HETATM   17  C13 UNK     1      19.355  -7.606  38.041  1.00  0.00     0.048 A 
HETATM   18 Cl3  UNK     1      20.896  -9.325  39.449  1.00  0.00    -0.084 Cl
HETATM   19  C9  UNK     1      19.098  -6.386  37.416  1.00  0.00     0.048 A 
HETATM   20 Cl1  UNK     1      17.567  -6.174  36.640  1.00  0.00    -0.083 Cl
ENDBRANCH   5  13
TORSDOF 1
ENDMDL
MODEL 6
REMARK VINA RESULT:      -7.4      2.659      6.807
REMARK  1 active torsions:
REMARK  status: ('A' for Active; 'I' for Inactive)
REMARK    1  A    between atoms: C2_7  and  C4_9 
ROOT
HETATM    1 Cl2  UNK     1      18.322  -1.325  33.926  1.00  0.00    -0.084 Cl
HETATM    2  O1  UNK     1      18.367   4.547  34.261  1.00  0.00    -0.309 OA
HETATM    3  O2  UNK     1      18.183   2.857  30.556  1.00  0.00    -0.287 OA
HETATM    4  C1  UNK     1      18.294   2.538  32.896  1.00  0.00     0.050 A 
HETATM    5  C2  UNK     1      18.322   5.316  33.109  1.00  0.00     0.091 A 
HETATM    6  C3  UNK     1      18.355   3.181  34.132  1.00  0.00     0.090 A 
HETATM    7  C5  UNK     1      18.240   3.355  31.672  1.00  0.00     0.187 A 
HETATM    8  C6  UNK     1      18.257   4.819  31.863  1.00  0.00     0.093 A 
HETATM    9  C7  UNK     1      18.285   1.144  32.824  1.00  0.00     0.042 A 
HETATM   10  C8  UNK     1      18.405   2.430  35.305  1.00  0.00     0.040 A 
HETATM   11  C11 UNK     1      18.335   0.395  34.001  1.00  0.00     0.035 A 
HETATM   12  C12 UNK     1      18.396   1.037  35.239  1.00  0.00     0.026 A 
ENDROOT
BRANCH   5  13
HETATM   13  C4  UNK     1      18.337   6.729  33.343  1.00  0.00     0.020 A 
HETATM   14  C10 UNK     1      19.510   7.301  33.845  1.00  0.00     0.017 A 
HETATM   15  C14 UNK     1      19.574   8.672  34.091  1.00  0.00     0.025 A 
HETATM   16  C15 UNK     1      18.465   9.479  33.837  1.00  0.00     0.035 A 
HETATM   17  C13 UNK     1      17.292   8.915  33.337  1.00  0.00     0.048 A 
HETATM   18 Cl3  UNK     1      18.544  11.171  34.143  1.00  0.00    -0.084 Cl
HETATM   19  C9  UNK     1      17.228   7.543  33.090  1.00  0.00     0.048 A 
HETATM   20 Cl1  UNK     1      15.750   6.894  32.469  1.00  0.00    -0.083 Cl
ENDBRANCH   5  13
TORSDOF 1
ENDMDL
MODEL 7
REMARK VINA RESULT:      -7.4      2.134      6.808
REMARK  1 active torsions:
REMARK  status: ('A' for Active; 'I' for Inactive)
REMARK    1  A    between atoms: C2_7  and  C4_9 
ROOT
HETATM    1 Cl2  UNK     1      18.794   0.927  29.497  1.00  0.00    -0.084 Cl
HETATM    2  O1  UNK     1      18.559   6.389  31.664  1.00  0.00    -0.309 OA
HETATM    3  O2  UNK     1      18.124   3.290  34.275  1.00  0.00    -0.287 OA
HETATM    4  C1  UNK     1      18.463   3.991  32.043  1.00  0.00     0.050 A 
HETATM    5  C2  UNK     1      18.356   6.599  33.018  1.00  0.00     0.091 A 
HETATM    6  C3  UNK     1      18.606   5.097  31.205  1.00  0.00     0.090 A 
HETATM    7  C5  UNK     1      18.254   4.214  33.483  1.00  0.00     0.187 A 
HETATM    8  C6  UNK     1      18.210   5.622  33.927  1.00  0.00     0.093 A 
HETATM    9  C7  UNK     1      18.520   2.698  31.521  1.00  0.00     0.042 A 
HETATM   10  C8  UNK     1      18.807   4.914  29.838  1.00  0.00     0.040 A 
HETATM   11  C11 UNK     1      18.721   2.517  30.152  1.00  0.00     0.035 A 
HETATM   12  C12 UNK     1      18.864   3.623  29.312  1.00  0.00     0.026 A 
ENDROOT
BRANCH   5  13
HETATM   13  C4  UNK     1      18.324   7.978  33.402  1.00  0.00     0.020 A 
HETATM   14  C10 UNK     1      19.488   8.540  33.937  1.00  0.00     0.017 A 
HETATM   15  C14 UNK     1      19.507   9.879  34.328  1.00  0.00     0.025 A 
HETATM   16  C15 UNK     1      18.363  10.663  34.186  1.00  0.00     0.035 A 
HETATM   17  C13 UNK     1      17.199  10.109  33.653  1.00  0.00     0.048 A 
HETATM   18 Cl3  UNK     1      18.387  12.315  34.669  1.00  0.00    -0.084 Cl
HETATM   19  C9  UNK     1      17.180   8.770  33.262  1.00  0.00     0.048 A 
HETATM   20 Cl1  UNK     1      15.712   8.133  32.607  1.00  0.00    -0.083 Cl
ENDBRANCH   5  13
TORSDOF 1
ENDMDL
MODEL 8
REMARK VINA RESULT:      -7.3      2.644      7.952
REMARK  1 active torsions:
REMARK  status: ('A' for Active; 'I' for Inactive)
REMARK    1  A    between atoms: C2_7  and  C4_9 
ROOT
HETATM    1 Cl2  UNK     1      19.855   5.038  30.856  1.00  0.00    -0.084 Cl
HETATM    2  O1  UNK     1      17.448   9.258  34.171  1.00  0.00    -0.309 OA
HETATM    3  O2  UNK     1      15.258   7.810  31.053  1.00  0.00    -0.287 OA
HETATM    4  C1  UNK     1      17.273   7.735  32.286  1.00  0.00     0.050 A 
HETATM    5  C2  UNK     1      16.179   9.737  33.885  1.00  0.00     0.091 A 
HETATM    6  C3  UNK     1      17.967   8.273  33.369  1.00  0.00     0.090 A 
HETATM    7  C5  UNK     1      15.923   8.239  31.986  1.00  0.00     0.187 A 
HETATM    8  C6  UNK     1      15.409   9.299  32.876  1.00  0.00     0.093 A 
HETATM    9  C7  UNK     1      17.851   6.734  31.503  1.00  0.00     0.042 A 
HETATM   10  C8  UNK     1      19.246   7.811  33.676  1.00  0.00     0.040 A 
HETATM   11  C11 UNK     1      19.133   6.273  31.812  1.00  0.00     0.035 A 
HETATM   12  C12 UNK     1      19.828   6.811  32.896  1.00  0.00     0.026 A 
ENDROOT
BRANCH   5  13
HETATM   13  C4  UNK     1      15.721  10.760  34.777  1.00  0.00     0.020 A 
HETATM   14  C10 UNK     1      14.581  10.502  35.545  1.00  0.00     0.017 A 
HETATM   15  C14 UNK     1      14.095  11.467  36.427  1.00  0.00     0.025 A 
HETATM   16  C15 UNK     1      14.746  12.695  36.545  1.00  0.00     0.035 A 
HETATM   17  C13 UNK     1      15.883  12.958  35.783  1.00  0.00     0.048 A 
HETATM   18 Cl3  UNK     1      14.144  13.885  37.633  1.00  0.00    -0.084 Cl
HETATM   19  C9  UNK     1      16.370  11.993  34.900  1.00  0.00     0.048 A 
HETATM   20 Cl1  UNK     1      17.784  12.370  33.979  1.00  0.00    -0.083 Cl
ENDBRANCH   5  13
TORSDOF 1
ENDMDL
MODEL 9
REMARK VINA RESULT:      -7.3      2.022      2.939
REMARK  1 active torsions:
REMARK  status: ('A' for Active; 'I' for Inactive)
REMARK    1  A    between atoms: C2_7  and  C4_9 
ROOT
HETATM    1 Cl2  UNK     1      18.456  11.555  34.237  1.00  0.00    -0.084 Cl
HETATM    2  O1  UNK     1      18.954   5.774  33.276  1.00  0.00    -0.309 OA
HETATM    3  O2  UNK     1      15.750   7.701  31.653  1.00  0.00    -0.287 OA
HETATM    4  C1  UNK     1      17.722   7.842  32.948  1.00  0.00     0.050 A 
HETATM    5  C2  UNK     1      18.002   5.103  32.525  1.00  0.00     0.091 A 
HETATM    6  C3  UNK     1      18.794   7.122  33.473  1.00  0.00     0.090 A 
HETATM    7  C5  UNK     1      16.714   7.131  32.145  1.00  0.00     0.187 A 
HETATM    8  C6  UNK     1      16.928   5.681  31.963  1.00  0.00     0.093 A 
HETATM    9  C7  UNK     1      17.610   9.215  33.181  1.00  0.00     0.042 A 
HETATM   10  C8  UNK     1      19.764   7.773  34.235  1.00  0.00     0.040 A 
HETATM   11  C11 UNK     1      18.582   9.863  33.944  1.00  0.00     0.035 A 
HETATM   12  C12 UNK     1      19.656   9.144  34.470  1.00  0.00     0.026 A 
ENDROOT
BRANCH   5  13
HETATM   13  C4  UNK     1      18.253   3.701  32.372  1.00  0.00     0.020 A 
HETATM   14  C10 UNK     1      18.100   2.878  33.493  1.00  0.00     0.017 A 
HETATM   15  C14 UNK     1      18.335   1.507  33.395  1.00  0.00     0.025 A 
HETATM   16  C15 UNK     1      18.725   0.951  32.177  1.00  0.00     0.035 A 
HETATM   17  C13 UNK     1      18.879   1.766  31.055  1.00  0.00     0.048 A 
HETATM   18 Cl3  UNK     1      19.015  -0.741  32.057  1.00  0.00    -0.084 Cl
HETATM   19  C9  UNK     1      18.644   3.138  31.153  1.00  0.00     0.048 A 
HETATM   20 Cl1  UNK     1      18.849   4.103  29.732  1.00  0.00    -0.083 Cl
ENDBRANCH   5  13
TORSDOF 1
ENDMDL
MODEL 10
REMARK VINA RESULT:      -7.3      8.253     11.228
REMARK  1 active torsions:
REMARK  status: ('A' for Active; 'I' for Inactive)
REMARK    1  A    between atoms: C2_7  and  C4_9 
ROOT
HETATM    1 Cl2  UNK     1      19.166   0.466  30.836  1.00  0.00    -0.084 Cl
HETATM    2  O1  UNK     1      20.487  -3.614  34.860  1.00  0.00    -0.309 OA
HETATM    3  O2  UNK     1      17.785  -0.741  35.885  1.00  0.00    -0.287 OA
HETATM    4  C1  UNK     1      19.232  -1.628  34.241  1.00  0.00     0.050 A 
HETATM    5  C2  UNK     1      19.895  -3.583  36.113  1.00  0.00     0.091 A 
HETATM    6  C3  UNK     1      20.147  -2.641  33.955  1.00  0.00     0.090 A 
HETATM    7  C5  UNK     1      18.598  -1.598  35.569  1.00  0.00     0.187 A 
HETATM    8  C6  UNK     1      18.997  -2.666  36.508  1.00  0.00     0.093 A 
HETATM    9  C7  UNK     1      18.924  -0.663  33.280  1.00  0.00     0.042 A 
HETATM   10  C8  UNK     1      20.760  -2.693  32.704  1.00  0.00     0.040 A 
HETATM   11  C11 UNK     1      19.539  -0.717  32.029  1.00  0.00     0.035 A 
HETATM   12  C12 UNK     1      20.455  -1.730  31.741  1.00  0.00     0.026 A 
ENDROOT
BRANCH   5  13
HETATM   13  C4  UNK     1      20.309  -4.639  36.987  1.00  0.00     0.020 A 
HETATM   14  C10 UNK     1      21.559  -4.530  37.605  1.00  0.00     0.017 A 
HETATM   15  C14 UNK     1      22.009  -5.533  38.463  1.00  0.00     0.025 A 
HETATM   16  C15 UNK     1      21.210  -6.650  38.709  1.00  0.00     0.035 A 
HETATM   17  C13 UNK     1      19.963  -6.764  38.096  1.00  0.00     0.048 A 
HETATM   18 Cl3  UNK     1      21.766  -7.888  39.768  1.00  0.00    -0.084 Cl
HETATM   19  C9  UNK     1      19.513  -5.761  37.237  1.00  0.00     0.048 A 
HETATM   20 Cl1  UNK     1      17.958  -5.952  36.504  1.00  0.00    -0.083 Cl
ENDBRANCH   5  13
TORSDOF 1
ENDMDL
