MODEL 1
REMARK VINA RESULT:      -7.8      0.000      0.000
REMARK  3 active torsions:
REMARK  status: ('A' for Active; 'I' for Inactive)
REMARK    1  A    between atoms: C7_11  and  N1_3 
REMARK    2  A    between atoms: C8_12  and  N2_4 
REMARK    3  A    between atoms: C12_16  and  C7_11 
ROOT
HETATM    1  O1  UNK     1      19.362   1.487  29.831  1.00  0.00    -0.274 OA
HETATM    2  O2  UNK     1      18.678   3.634  29.563  1.00  0.00    -0.259 OA
HETATM    3  C8  UNK     1      18.440   1.593  32.517  1.00  0.00     0.057 A 
HETATM    4  C12 UNK     1      18.319   2.671  31.709  1.00  0.00     0.073 A 
HETATM    5  C13 UNK     1      19.061   0.362  31.972  1.00  0.00     0.025 A 
HETATM    6  C14 UNK     1      18.789   2.655  30.295  1.00  0.00     0.298 A 
HETATM    7  C15 UNK     1      19.499   0.355  30.649  1.00  0.00     0.092 A 
HETATM    8  C16 UNK     1      19.245  -0.825  32.704  1.00  0.00     0.016 A 
HETATM    9  C17 UNK     1      20.094  -0.761  30.054  1.00  0.00     0.038 A 
HETATM   10  C18 UNK     1      19.840  -1.953  32.123  1.00  0.00     0.001 A 
HETATM   11  C19 UNK     1      20.264  -1.921  30.799  1.00  0.00     0.003 A 
ENDROOT
BRANCH   3  12
HETATM   12  N2  UNK     1      18.023   1.568  33.817  1.00  0.00    -0.379 N 
HETATM   13  C5  UNK     1      16.745   0.974  34.215  1.00  0.00     0.123 C 
HETATM   14  C9  UNK     1      16.970  -0.038  35.338  1.00  0.00     0.020 C 
HETATM   15  C11 UNK     1      17.730   0.588  36.505  1.00  0.00     0.003 C 
HETATM   16  C10 UNK     1      19.030   1.231  36.024  1.00  0.00     0.020 C 
HETATM   17  C6  UNK     1      18.772   2.222  34.890  1.00  0.00     0.123 C 
ENDBRANCH   3  12
BRANCH   4  18
HETATM   18  C7  UNK     1      17.711   3.988  32.121  1.00  0.00     0.319 C 
BRANCH  18  19
HETATM   19  N1  UNK     1      18.680   4.828  32.810  1.00  0.00     0.092 N 
HETATM   20  C1  UNK     1      18.056   5.691  33.814  1.00  0.00     0.273 C 
HETATM   21  C3  UNK     1      19.144   6.713  34.108  1.00  0.00     0.032 C 
HETATM   22  C4  UNK     1      20.008   6.748  32.851  1.00  0.00     0.032 C 
HETATM   23  C2  UNK     1      19.373   5.742  31.903  1.00  0.00     0.273 C 
ENDBRANCH  18  19
ENDBRANCH   4  18
TORSDOF 3
ENDMDL
MODEL 2
REMARK VINA RESULT:      -7.4     13.530     15.408
REMARK  3 active torsions:
REMARK  status: ('A' for Active; 'I' for Inactive)
REMARK    1  A    between atoms: C7_11  and  N1_3 
REMARK    2  A    between atoms: C8_12  and  N2_4 
REMARK    3  A    between atoms: C12_16  and  C7_11 
ROOT
HETATM    1  O1  UNK     1      30.527  -4.473  38.095  1.00  0.00    -0.274 OA
HETATM    2  O2  UNK     1      28.801  -4.973  39.481  1.00  0.00    -0.259 OA
HETATM    3  C8  UNK     1      29.447  -6.291  36.196  1.00  0.00     0.057 A 
HETATM    4  C12 UNK     1      28.830  -6.095  37.383  1.00  0.00     0.073 A 
HETATM    5  C13 UNK     1      30.693  -5.539  35.910  1.00  0.00     0.025 A 
HETATM    6  C14 UNK     1      29.363  -5.151  38.405  1.00  0.00     0.298 A 
HETATM    7  C15 UNK     1      31.186  -4.658  36.870  1.00  0.00     0.092 A 
HETATM    8  C16 UNK     1      31.431  -5.649  34.718  1.00  0.00     0.016 A 
HETATM    9  C17 UNK     1      32.352  -3.909  36.685  1.00  0.00     0.038 A 
HETATM   10  C18 UNK     1      32.601  -4.907  34.515  1.00  0.00     0.001 A 
HETATM   11  C19 UNK     1      33.061  -4.037  35.498  1.00  0.00     0.003 A 
ENDROOT
BRANCH   3  12
HETATM   12  N2  UNK     1      28.992  -7.147  35.235  1.00  0.00    -0.379 N 
HETATM   13  C5  UNK     1      27.961  -6.760  34.270  1.00  0.00     0.123 C 
HETATM   14  C9  UNK     1      28.444  -7.047  32.850  1.00  0.00     0.020 C 
HETATM   15  C11 UNK     1      28.892  -8.499  32.699  1.00  0.00     0.003 C 
HETATM   16  C10 UNK     1      29.932  -8.859  33.758  1.00  0.00     0.020 C 
HETATM   17  C6  UNK     1      29.424  -8.543  35.164  1.00  0.00     0.123 C 
ENDBRANCH   3  12
BRANCH   4  18
HETATM   18  C7  UNK     1      27.560  -6.786  37.814  1.00  0.00     0.319 C 
BRANCH  18  19
HETATM   19  N1  UNK     1      27.827  -8.127  38.310  1.00  0.00     0.092 N 
HETATM   20  C1  UNK     1      26.901  -9.119  37.762  1.00  0.00     0.273 C 
HETATM   21  C3  UNK     1      27.102 -10.316  38.681  1.00  0.00     0.032 C 
HETATM   22  C4  UNK     1      27.607  -9.730  39.995  1.00  0.00     0.032 C 
HETATM   23  C2  UNK     1      27.674  -8.227  39.762  1.00  0.00     0.273 C 
ENDBRANCH  18  19
ENDBRANCH   4  18
TORSDOF 3
ENDMDL
MODEL 3
REMARK VINA RESULT:      -7.4     13.893     15.922
REMARK  3 active torsions:
REMARK  status: ('A' for Active; 'I' for Inactive)
REMARK    1  A    between atoms: C7_11  and  N1_3 
REMARK    2  A    between atoms: C8_12  and  N2_4 
REMARK    3  A    between atoms: C12_16  and  C7_11 
ROOT
HETATM    1  O1  UNK     1      28.103  -5.312  39.216  1.00  0.00    -0.274 OA
HETATM    2  O2  UNK     1      29.813  -3.859  39.550  1.00  0.00    -0.259 OA
HETATM    3  C8  UNK     1      29.942  -7.099  37.990  1.00  0.00     0.057 A 
HETATM    4  C12 UNK     1      30.362  -5.906  38.467  1.00  0.00     0.073 A 
HETATM    5  C13 UNK     1      28.508  -7.452  38.121  1.00  0.00     0.025 A 
HETATM    6  C14 UNK     1      29.430  -4.941  39.117  1.00  0.00     0.298 A 
HETATM    7  C15 UNK     1      27.642  -6.545  38.729  1.00  0.00     0.092 A 
HETATM    8  C16 UNK     1      27.942  -8.658  37.670  1.00  0.00     0.016 A 
HETATM    9  C17 UNK     1      26.276  -6.796  38.896  1.00  0.00     0.038 A 
HETATM   10  C18 UNK     1      26.576  -8.926  37.828  1.00  0.00     0.001 A 
HETATM   11  C19 UNK     1      25.744  -7.995  38.441  1.00  0.00     0.003 A 
ENDROOT
BRANCH   3  12
HETATM   12  N2  UNK     1      30.763  -8.008  37.388  1.00  0.00    -0.379 N 
HETATM   13  C5  UNK     1      31.597  -8.936  38.156  1.00  0.00     0.123 C 
HETATM   14  C9  UNK     1      31.356 -10.367  37.680  1.00  0.00     0.020 C 
HETATM   15  C11 UNK     1      31.555 -10.491  36.171  1.00  0.00     0.003 C 
HETATM   16  C10 UNK     1      30.697  -9.471  35.425  1.00  0.00     0.020 C 
HETATM   17  C6  UNK     1      30.948  -8.053  35.938  1.00  0.00     0.123 C 
ENDBRANCH   3  12
BRANCH   4  18
HETATM   18  C7  UNK     1      31.785  -5.410  38.405  1.00  0.00     0.319 C 
BRANCH  18  19
HETATM   19  N1  UNK     1      32.204  -5.167  37.033  1.00  0.00     0.092 N 
HETATM   20  C1  UNK     1      33.602  -5.537  36.803  1.00  0.00     0.273 C 
HETATM   21  C3  UNK     1      33.920  -4.857  35.479  1.00  0.00     0.032 C 
HETATM   22  C4  UNK     1      32.948  -3.684  35.390  1.00  0.00     0.032 C 
HETATM   23  C2  UNK     1      32.120  -3.754  36.665  1.00  0.00     0.273 C 
ENDBRANCH  18  19
ENDBRANCH   4  18
TORSDOF 3
ENDMDL
MODEL 4
REMARK VINA RESULT:      -7.3      5.537      8.867
REMARK  3 active torsions:
REMARK  status: ('A' for Active; 'I' for Inactive)
REMARK    1  A    between atoms: C7_11  and  N1_3 
REMARK    2  A    between atoms: C8_12  and  N2_4 
REMARK    3  A    between atoms: C12_16  and  C7_11 
ROOT
HETATM    1  O1  UNK     1      19.287  10.985  34.449  1.00  0.00    -0.274 OA
HETATM    2  O2  UNK     1      20.904   9.397  34.573  1.00  0.00    -0.259 OA
HETATM    3  C8  UNK     1      17.434   8.953  33.733  1.00  0.00     0.057 A 
HETATM    4  C12 UNK     1      18.728   8.644  33.975  1.00  0.00     0.073 A 
HETATM    5  C13 UNK     1      17.007  10.367  33.851  1.00  0.00     0.025 A 
HETATM    6  C14 UNK     1      19.731   9.679  34.353  1.00  0.00     0.298 A 
HETATM    7  C15 UNK     1      17.950  11.331  34.204  1.00  0.00     0.092 A 
HETATM    8  C16 UNK     1      15.695  10.822  33.628  1.00  0.00     0.016 A 
HETATM    9  C17 UNK     1      17.635  12.686  34.339  1.00  0.00     0.038 A 
HETATM   10  C18 UNK     1      15.362  12.177  33.758  1.00  0.00     0.001 A 
HETATM   11  C19 UNK     1      16.331  13.108  34.114  1.00  0.00     0.003 A 
ENDROOT
BRANCH   3  12
HETATM   12  N2  UNK     1      16.486   8.034  33.384  1.00  0.00    -0.379 N 
HETATM   13  C5  UNK     1      15.698   7.308  34.381  1.00  0.00     0.123 C 
HETATM   14  C9  UNK     1      14.209   7.448  34.070  1.00  0.00     0.020 C 
HETATM   15  C11 UNK     1      13.899   7.024  32.636  1.00  0.00     0.003 C 
HETATM   16  C10 UNK     1      14.781   7.780  31.644  1.00  0.00     0.020 C 
HETATM   17  C6  UNK     1      16.261   7.634  31.995  1.00  0.00     0.123 C 
ENDBRANCH   3  12
BRANCH   4  18
HETATM   18  C7  UNK     1      19.308   7.254  33.895  1.00  0.00     0.319 C 
BRANCH  18  19
HETATM   19  N1  UNK     1      19.855   6.981  32.574  1.00  0.00     0.092 N 
HETATM   20  C1  UNK     1      19.102   5.951  31.859  1.00  0.00     0.273 C 
HETATM   21  C3  UNK     1      20.044   5.564  30.728  1.00  0.00     0.032 C 
HETATM   22  C4  UNK     1      21.440   5.907  31.236  1.00  0.00     0.032 C 
HETATM   23  C2  UNK     1      21.227   6.477  32.632  1.00  0.00     0.273 C 
ENDBRANCH  18  19
ENDBRANCH   4  18
TORSDOF 3
ENDMDL
MODEL 5
REMARK VINA RESULT:      -7.2     13.794     15.307
REMARK  3 active torsions:
REMARK  status: ('A' for Active; 'I' for Inactive)
REMARK    1  A    between atoms: C7_11  and  N1_3 
REMARK    2  A    between atoms: C8_12  and  N2_4 
REMARK    3  A    between atoms: C12_16  and  C7_11 
ROOT
HETATM    1  O1  UNK     1      27.695  -9.936  35.759  1.00  0.00    -0.274 OA
HETATM    2  O2  UNK     1      28.457  -9.969  33.622  1.00  0.00    -0.259 OA
HETATM    3  C8  UNK     1      29.537  -7.845  36.318  1.00  0.00     0.057 A 
HETATM    4  C12 UNK     1      29.469  -8.384  35.080  1.00  0.00     0.073 A 
HETATM    5  C13 UNK     1      28.632  -8.366  37.370  1.00  0.00     0.025 A 
HETATM    6  C14 UNK     1      28.517  -9.481  34.746  1.00  0.00     0.298 A 
HETATM    7  C15 UNK     1      27.745  -9.392  37.052  1.00  0.00     0.092 A 
HETATM    8  C16 UNK     1      28.600  -7.894  38.695  1.00  0.00     0.016 A 
HETATM    9  C17 UNK     1      26.858  -9.943  37.981  1.00  0.00     0.038 A 
HETATM   10  C18 UNK     1      27.718  -8.434  39.639  1.00  0.00     0.001 A 
HETATM   11  C19 UNK     1      26.846  -9.458  39.282  1.00  0.00     0.003 A 
ENDROOT
BRANCH   3  12
HETATM   12  N2  UNK     1      30.394  -6.840  36.663  1.00  0.00    -0.379 N 
HETATM   13  C5  UNK     1      30.005  -5.429  36.612  1.00  0.00     0.123 C 
HETATM   14  C9  UNK     1      30.303  -4.759  37.952  1.00  0.00     0.020 C 
HETATM   15  C11 UNK     1      31.759  -4.965  38.364  1.00  0.00     0.003 C 
HETATM   16  C10 UNK     1      32.120  -6.450  38.355  1.00  0.00     0.020 C 
HETATM   17  C6  UNK     1      31.793  -7.092  37.008  1.00  0.00     0.123 C 
ENDBRANCH   3  12
BRANCH   4  18
HETATM   18  C7  UNK     1      30.322  -7.959  33.910  1.00  0.00     0.319 C 
BRANCH  18  19
HETATM   19  N1  UNK     1      29.721  -6.846  33.191  1.00  0.00     0.092 N 
HETATM   20  C1  UNK     1      29.316  -7.213  31.833  1.00  0.00     0.273 C 
HETATM   21  C3  UNK     1      29.095  -5.862  31.167  1.00  0.00     0.032 C 
HETATM   22  C4  UNK     1      29.971  -4.886  31.946  1.00  0.00     0.032 C 
HETATM   23  C2  UNK     1      30.646  -5.725  33.020  1.00  0.00     0.273 C 
ENDBRANCH  18  19
ENDBRANCH   4  18
TORSDOF 3
ENDMDL
MODEL 6
REMARK VINA RESULT:      -7.1     14.620     16.180
REMARK  3 active torsions:
REMARK  status: ('A' for Active; 'I' for Inactive)
REMARK    1  A    between atoms: C7_11  and  N1_3 
REMARK    2  A    between atoms: C8_12  and  N2_4 
REMARK    3  A    between atoms: C12_16  and  C7_11 
ROOT
HETATM    1  O1  UNK     1      29.152  -5.623  38.462  1.00  0.00    -0.274 OA
HETATM    2  O2  UNK     1      30.245  -3.940  37.402  1.00  0.00    -0.259 OA
HETATM    3  C8  UNK     1      30.017  -7.392  36.413  1.00  0.00     0.057 A 
HETATM    4  C12 UNK     1      30.362  -6.086  36.379  1.00  0.00     0.073 A 
HETATM    5  C13 UNK     1      29.182  -7.878  37.538  1.00  0.00     0.025 A 
HETATM    6  C14 UNK     1      29.930  -5.126  37.434  1.00  0.00     0.298 A 
HETATM    7  C15 UNK     1      28.780  -6.975  38.520  1.00  0.00     0.092 A 
HETATM    8  C16 UNK     1      28.755  -9.209  37.693  1.00  0.00     0.016 A 
HETATM    9  C17 UNK     1      27.994  -7.346  39.615  1.00  0.00     0.038 A 
HETATM   10  C18 UNK     1      27.966  -9.598  38.783  1.00  0.00     0.001 A 
HETATM   11  C19 UNK     1      27.586  -8.667  39.744  1.00  0.00     0.003 A 
ENDROOT
BRANCH   3  12
HETATM   12  N2  UNK     1      30.391  -8.302  35.466  1.00  0.00    -0.379 N 
HETATM   13  C5  UNK     1      31.620  -9.091  35.585  1.00  0.00     0.123 C 
HETATM   14  C9  UNK     1      31.302 -10.576  35.417  1.00  0.00     0.020 C 
HETATM   15  C11 UNK     1      30.544 -10.837  34.117  1.00  0.00     0.003 C 
HETATM   16  C10 UNK     1      29.300  -9.955  34.027  1.00  0.00     0.020 C 
HETATM   17  C6  UNK     1      29.650  -8.480  34.218  1.00  0.00     0.123 C 
ENDBRANCH   3  12
BRANCH   4  18
HETATM   18  C7  UNK     1      31.204  -5.448  35.302  1.00  0.00     0.319 C 
BRANCH  18  19
HETATM   19  N1  UNK     1      32.623  -5.681  35.529  1.00  0.00     0.092 N 
HETATM   20  C1  UNK     1      33.346  -4.450  35.851  1.00  0.00     0.273 C 
HETATM   21  C3  UNK     1      34.802  -4.851  35.661  1.00  0.00     0.032 C 
HETATM   22  C4  UNK     1      34.770  -6.011  34.671  1.00  0.00     0.032 C 
HETATM   23  C2  UNK     1      33.297  -6.219  34.348  1.00  0.00     0.273 C 
ENDBRANCH  18  19
ENDBRANCH   4  18
TORSDOF 3
ENDMDL
MODEL 7
REMARK VINA RESULT:      -7.1     14.292     15.772
REMARK  3 active torsions:
REMARK  status: ('A' for Active; 'I' for Inactive)
REMARK    1  A    between atoms: C7_11  and  N1_3 
REMARK    2  A    between atoms: C8_12  and  N2_4 
REMARK    3  A    between atoms: C12_16  and  C7_11 
ROOT
HETATM    1  O1  UNK     1      28.756  -6.190  39.415  1.00  0.00    -0.274 OA
HETATM    2  O2  UNK     1      30.093  -4.356  39.405  1.00  0.00    -0.259 OA
HETATM    3  C8  UNK     1      29.597  -6.741  36.757  1.00  0.00     0.057 A 
HETATM    4  C12 UNK     1      30.074  -5.660  37.415  1.00  0.00     0.073 A 
HETATM    5  C13 UNK     1      28.632  -7.627  37.451  1.00  0.00     0.025 A 
HETATM    6  C14 UNK     1      29.659  -5.337  38.809  1.00  0.00     0.298 A 
HETATM    7  C15 UNK     1      28.247  -7.318  38.754  1.00  0.00     0.092 A 
HETATM    8  C16 UNK     1      28.062  -8.780  36.883  1.00  0.00     0.016 A 
HETATM    9  C17 UNK     1      27.344  -8.097  39.483  1.00  0.00     0.038 A 
HETATM   10  C18 UNK     1      27.154  -9.572  37.598  1.00  0.00     0.001 A 
HETATM   11  C19 UNK     1      26.796  -9.231  38.898  1.00  0.00     0.003 A 
ENDROOT
BRANCH   3  12
HETATM   12  N2  UNK     1      29.951  -7.071  35.481  1.00  0.00    -0.379 N 
HETATM   13  C5  UNK     1      29.366  -6.409  34.312  1.00  0.00     0.123 C 
HETATM   14  C9  UNK     1      30.476  -5.893  33.397  1.00  0.00     0.020 C 
HETATM   15  C11 UNK     1      31.454  -7.007  33.029  1.00  0.00     0.003 C 
HETATM   16  C10 UNK     1      31.996  -7.690  34.284  1.00  0.00     0.020 C 
HETATM   17  C6  UNK     1      30.861  -8.177  35.184  1.00  0.00     0.123 C 
ENDBRANCH   3  12
BRANCH   4  18
HETATM   18  C7  UNK     1      31.058  -4.672  36.841  1.00  0.00     0.319 C 
BRANCH  18  19
HETATM   19  N1  UNK     1      32.333  -5.305  36.540  1.00  0.00     0.092 N 
HETATM   20  C1  UNK     1      33.096  -5.624  37.747  1.00  0.00     0.273 C 
HETATM   21  C3  UNK     1      34.492  -5.895  37.206  1.00  0.00     0.032 C 
HETATM   22  C4  UNK     1      34.570  -5.116  35.897  1.00  0.00     0.032 C 
HETATM   23  C2  UNK     1      33.213  -4.442  35.753  1.00  0.00     0.273 C 
ENDBRANCH  18  19
ENDBRANCH   4  18
TORSDOF 3
ENDMDL
MODEL 8
REMARK VINA RESULT:      -7.0     13.839     16.759
REMARK  3 active torsions:
REMARK  status: ('A' for Active; 'I' for Inactive)
REMARK    1  A    between atoms: C7_11  and  N1_3 
REMARK    2  A    between atoms: C8_12  and  N2_4 
REMARK    3  A    between atoms: C12_16  and  C7_11 
ROOT
HETATM    1  O1  UNK     1      31.908  -9.163  28.242  1.00  0.00    -0.274 OA
HETATM    2  O2  UNK     1      34.030  -8.429  28.573  1.00  0.00    -0.259 OA
HETATM    3  C8  UNK     1      31.127  -7.772  30.595  1.00  0.00     0.057 A 
HETATM    4  C12 UNK     1      32.413  -7.743  30.178  1.00  0.00     0.073 A 
HETATM    5  C13 UNK     1      30.139  -8.541  29.800  1.00  0.00     0.025 A 
HETATM    6  C14 UNK     1      32.863  -8.458  28.950  1.00  0.00     0.298 A 
HETATM    7  C15 UNK     1      30.567  -9.208  28.653  1.00  0.00     0.092 A 
HETATM    8  C16 UNK     1      28.775  -8.652  30.121  1.00  0.00     0.016 A 
HETATM    9  C17 UNK     1      29.705  -9.955  27.845  1.00  0.00     0.038 A 
HETATM   10  C18 UNK     1      27.897  -9.397  29.323  1.00  0.00     0.001 A 
HETATM   11  C19 UNK     1      28.362 -10.048  28.185  1.00  0.00     0.003 A 
ENDROOT
BRANCH   3  12
HETATM   12  N2  UNK     1      30.676  -7.132  31.713  1.00  0.00    -0.379 N 
HETATM   13  C5  UNK     1      30.278  -5.723  31.699  1.00  0.00     0.123 C 
HETATM   14  C9  UNK     1      28.878  -5.572  32.292  1.00  0.00     0.020 C 
HETATM   15  C11 UNK     1      28.792  -6.206  33.678  1.00  0.00     0.003 C 
HETATM   16  C10 UNK     1      29.261  -7.659  33.641  1.00  0.00     0.020 C 
HETATM   17  C6  UNK     1      30.655  -7.776  33.026  1.00  0.00     0.123 C 
ENDBRANCH   3  12
BRANCH   4  18
HETATM   18  C7  UNK     1      33.526  -7.006  30.880  1.00  0.00     0.319 C 
BRANCH  18  19
HETATM   19  N1  UNK     1      34.127  -7.821  31.925  1.00  0.00     0.092 N 
HETATM   20  C1  UNK     1      34.218  -7.113  33.202  1.00  0.00     0.273 C 
HETATM   21  C3  UNK     1      35.193  -7.970  33.997  1.00  0.00     0.032 C 
HETATM   22  C4  UNK     1      36.038  -8.688  32.950  1.00  0.00     0.032 C 
HETATM   23  C2  UNK     1      35.501  -8.210  31.609  1.00  0.00     0.273 C 
ENDBRANCH  18  19
ENDBRANCH   4  18
TORSDOF 3
ENDMDL
MODEL 9
REMARK VINA RESULT:      -6.9     15.200     17.542
REMARK  3 active torsions:
REMARK  status: ('A' for Active; 'I' for Inactive)
REMARK    1  A    between atoms: C7_11  and  N1_3 
REMARK    2  A    between atoms: C8_12  and  N2_4 
REMARK    3  A    between atoms: C12_16  and  C7_11 
ROOT
HETATM    1  O1  UNK     1      31.246 -10.726  36.628  1.00  0.00    -0.274 OA
HETATM    2  O2  UNK     1      30.790  -9.772  38.636  1.00  0.00    -0.259 OA
HETATM    3  C8  UNK     1      32.679  -8.379  35.908  1.00  0.00     0.057 A 
HETATM    4  C12 UNK     1      32.086  -8.475  37.120  1.00  0.00     0.073 A 
HETATM    5  C13 UNK     1      32.566  -9.522  34.970  1.00  0.00     0.025 A 
HETATM    6  C14 UNK     1      31.327  -9.687  37.536  1.00  0.00     0.298 A 
HETATM    7  C15 UNK     1      31.853 -10.653  35.365  1.00  0.00     0.092 A 
HETATM    8  C16 UNK     1      33.135  -9.552  33.684  1.00  0.00     0.016 A 
HETATM    9  C17 UNK     1      31.697 -11.774  34.545  1.00  0.00     0.038 A 
HETATM   10  C18 UNK     1      32.987 -10.668  32.849  1.00  0.00     0.001 A 
HETATM   11  C19 UNK     1      32.269 -11.779  33.280  1.00  0.00     0.003 A 
ENDROOT
BRANCH   3  12
HETATM   12  N2  UNK     1      33.382  -7.287  35.491  1.00  0.00    -0.379 N 
HETATM   13  C5  UNK     1      32.815  -6.298  34.571  1.00  0.00     0.123 C 
HETATM   14  C9  UNK     1      32.963  -4.896  35.159  1.00  0.00     0.020 C 
HETATM   15  C11 UNK     1      34.414  -4.602  35.535  1.00  0.00     0.003 C 
HETATM   16  C10 UNK     1      34.966  -5.688  36.457  1.00  0.00     0.020 C 
HETATM   17  C6  UNK     1      34.785  -7.078  35.848  1.00  0.00     0.123 C 
ENDBRANCH   3  12
BRANCH   4  18
HETATM   18  C7  UNK     1      32.115  -7.398  38.176  1.00  0.00     0.319 C 
BRANCH  18  19
HETATM   19  N1  UNK     1      31.150  -6.347  37.891  1.00  0.00     0.092 N 
HETATM   20  C1  UNK     1      31.612  -5.031  38.331  1.00  0.00     0.273 C 
HETATM   21  C3  UNK     1      30.341  -4.195  38.298  1.00  0.00     0.032 C 
HETATM   22  C4  UNK     1      29.202  -5.195  38.466  1.00  0.00     0.032 C 
HETATM   23  C2  UNK     1      29.878  -6.554  38.583  1.00  0.00     0.273 C 
ENDBRANCH  18  19
ENDBRANCH   4  18
TORSDOF 3
ENDMDL
MODEL 10
REMARK VINA RESULT:      -6.9     14.231     16.563
REMARK  3 active torsions:
REMARK  status: ('A' for Active; 'I' for Inactive)
REMARK    1  A    between atoms: C7_11  and  N1_3 
REMARK    2  A    between atoms: C8_12  and  N2_4 
REMARK    3  A    between atoms: C12_16  and  C7_11 
ROOT
HETATM    1  O1  UNK     1      31.914  -3.784  36.849  1.00  0.00    -0.274 OA
HETATM    2  O2  UNK     1      33.648  -3.571  35.400  1.00  0.00    -0.259 OA
HETATM    3  C8  UNK     1      31.175  -6.182  35.515  1.00  0.00     0.057 A 
HETATM    4  C12 UNK     1      32.250  -5.474  35.103  1.00  0.00     0.073 A 
HETATM    5  C13 UNK     1      30.396  -5.683  36.673  1.00  0.00     0.025 A 
HETATM    6  C14 UNK     1      32.672  -4.213  35.775  1.00  0.00     0.298 A 
HETATM    7  C15 UNK     1      30.794  -4.502  37.297  1.00  0.00     0.092 A 
HETATM    8  C16 UNK     1      29.261  -6.322  37.202  1.00  0.00     0.016 A 
HETATM    9  C17 UNK     1      30.119  -3.959  38.394  1.00  0.00     0.038 A 
HETATM   10  C18 UNK     1      28.572  -5.792  38.300  1.00  0.00     0.001 A 
HETATM   11  C19 UNK     1      29.001  -4.611  38.897  1.00  0.00     0.003 A 
ENDROOT
BRANCH   3  12
HETATM   12  N2  UNK     1      30.757  -7.341  34.926  1.00  0.00    -0.379 N 
HETATM   13  C5  UNK     1      31.242  -8.654  35.355  1.00  0.00     0.123 C 
HETATM   14  C9  UNK     1      30.059  -9.576  35.646  1.00  0.00     0.020 C 
HETATM   15  C11 UNK     1      29.106  -9.648  34.454  1.00  0.00     0.003 C 
HETATM   16  C10 UNK     1      28.670  -8.249  34.023  1.00  0.00     0.020 C 
HETATM   17  C6  UNK     1      29.876  -7.349  33.758  1.00  0.00     0.123 C 
ENDBRANCH   3  12
BRANCH   4  18
HETATM   18  C7  UNK     1      33.137  -5.856  33.944  1.00  0.00     0.319 C 
BRANCH  18  19
HETATM   19  N1  UNK     1      34.142  -6.830  34.342  1.00  0.00     0.092 N 
HETATM   20  C1  UNK     1      35.471  -6.234  34.488  1.00  0.00     0.273 C 
HETATM   21  C3  UNK     1      36.388  -7.448  34.514  1.00  0.00     0.032 C 
HETATM   22  C4  UNK     1      35.627  -8.539  33.767  1.00  0.00     0.032 C 
HETATM   23  C2  UNK     1      34.311  -7.895  33.354  1.00  0.00     0.273 C 
ENDBRANCH  18  19
ENDBRANCH   4  18
TORSDOF 3
ENDMDL
