MODEL 1
REMARK VINA RESULT:      -7.7      0.000      0.000
REMARK  5 active torsions:
REMARK  status: ('A' for Active; 'I' for Inactive)
REMARK    1  A    between atoms: C12_20  and  O3_5 
REMARK    2  A    between atoms: C20_28  and  O3_5 
REMARK    3  A    between atoms: C7_15  and  N1_8 
REMARK    4  A    between atoms: C1_9  and  C5_13 
REMARK    5  A    between atoms: C12_20  and  C3_11 
ROOT
HETATM    1  O1  UNK     1      30.765  -8.644  33.186  1.00  0.00    -0.292 OA
HETATM    2  O2  UNK     1      29.207  -5.152  31.482  1.00  0.00    -0.274 OA
HETATM    3  O4  UNK     1      30.743  -3.909  32.619  1.00  0.00    -0.259 OA
HETATM    4  C1  UNK     1      31.907  -6.143  34.014  1.00  0.00     0.107 C 
HETATM    5  C2  UNK     1      30.782  -6.255  33.002  1.00  0.00     0.066 A 
HETATM    6  C3  UNK     1      32.504  -7.501  34.343  1.00  0.00     0.081 C 
HETATM    7  C4  UNK     1      30.283  -7.455  32.666  1.00  0.00     0.104 A 
HETATM    8  C6  UNK     1      29.179  -7.575  31.718  1.00  0.00     0.033 A 
HETATM    9  C7  UNK     1      31.936  -8.659  33.946  1.00  0.00     0.155 C 
HETATM   10  C8  UNK     1      30.266  -5.012  32.372  1.00  0.00     0.298 A 
HETATM   11  C9  UNK     1      28.665  -6.410  31.153  1.00  0.00     0.092 A 
HETATM   12  C13 UNK     1      28.604  -8.797  31.346  1.00  0.00     0.017 A 
HETATM   13  C14 UNK     1      27.610  -6.431  30.242  1.00  0.00     0.038 A 
HETATM   14  C17 UNK     1      27.546  -8.833  30.434  1.00  0.00     0.001 A 
HETATM   15  C19 UNK     1      27.048  -7.652  29.884  1.00  0.00     0.003 A 
ENDROOT
BRANCH   4  16
HETATM   16  C5  UNK     1      31.421  -5.473  35.266  1.00  0.00    -0.006 A 
HETATM   17  C10 UNK     1      32.113  -4.383  35.780  1.00  0.00     0.126 A 
HETATM   18  F1  UNK     1      33.213  -3.920  35.171  1.00  0.00    -0.205 F 
HETATM   19  C15 UNK     1      31.657  -3.763  36.944  1.00  0.00     0.085 A 
HETATM   20  C18 UNK     1      30.513  -4.238  37.585  1.00  0.00     0.119 A 
HETATM   21  C16 UNK     1      29.824  -5.332  37.063  1.00  0.00     0.043 A 
HETATM   22  F2  UNK     1      30.077  -3.642  38.703  1.00  0.00    -0.206 F 
HETATM   23  C11 UNK     1      30.279  -5.952  35.899  1.00  0.00     0.014 A 
ENDBRANCH   4  16
BRANCH   6  24
HETATM   24  C12 UNK     1      33.768  -7.495  35.102  1.00  0.00     0.294 C 
HETATM   25  O5  UNK     1      34.775  -6.931  34.718  1.00  0.00    -0.259 OA
BRANCH  24  26
HETATM   26  O3  UNK     1      33.583  -8.203  36.242  1.00  0.00    -0.318 OA
BRANCH  26  27
HETATM   27  C20 UNK     1      33.571  -7.424  37.442  1.00  0.00     0.174 C 
HETATM   28  C21 UNK     1      32.363  -7.810  38.269  1.00  0.00     0.034 C 
ENDBRANCH  26  27
ENDBRANCH  24  26
ENDBRANCH   6  24
BRANCH   9  29
HETATM   29  N1  UNK     1      32.393  -9.919  34.209  1.00  0.00    -0.379 N 
HETATM   30  H7  UNK     1      32.851 -10.129  35.085  1.00  0.00     0.158 HD
HETATM   31  H8  UNK     1      32.266 -10.642  33.512  1.00  0.00     0.158 HD
ENDBRANCH   9  29
TORSDOF 5
ENDMDL
MODEL 2
REMARK VINA RESULT:      -7.6      3.110      6.393
REMARK  5 active torsions:
REMARK  status: ('A' for Active; 'I' for Inactive)
REMARK    1  A    between atoms: C12_20  and  O3_5 
REMARK    2  A    between atoms: C20_28  and  O3_5 
REMARK    3  A    between atoms: C7_15  and  N1_8 
REMARK    4  A    between atoms: C1_9  and  C5_13 
REMARK    5  A    between atoms: C12_20  and  C3_11 
ROOT
HETATM    1  O1  UNK     1      31.510  -5.983  34.957  1.00  0.00    -0.292 OA
HETATM    2  O2  UNK     1      28.062  -7.310  36.925  1.00  0.00    -0.274 OA
HETATM    3  O4  UNK     1      27.780  -8.929  35.344  1.00  0.00    -0.259 OA
HETATM    4  C1  UNK     1      30.036  -8.128  33.745  1.00  0.00     0.107 C 
HETATM    5  C2  UNK     1      29.629  -7.465  35.047  1.00  0.00     0.066 A 
HETATM    6  C3  UNK     1      31.422  -7.691  33.301  1.00  0.00     0.081 C 
HETATM    7  C4  UNK     1      30.355  -6.457  35.556  1.00  0.00     0.104 A 
HETATM    8  C6  UNK     1      29.956  -5.787  36.790  1.00  0.00     0.033 A 
HETATM    9  C7  UNK     1      32.084  -6.672  33.887  1.00  0.00     0.155 C 
HETATM   10  C8  UNK     1      28.427  -7.973  35.758  1.00  0.00     0.298 A 
HETATM   11  C9  UNK     1      28.809  -6.234  37.441  1.00  0.00     0.092 A 
HETATM   12  C13 UNK     1      30.661  -4.718  37.356  1.00  0.00     0.017 A 
HETATM   13  C14 UNK     1      28.352  -5.651  38.623  1.00  0.00     0.038 A 
HETATM   14  C17 UNK     1      30.216  -4.123  38.541  1.00  0.00     0.001 A 
HETATM   15  C19 UNK     1      29.063  -4.588  39.173  1.00  0.00     0.003 A 
ENDROOT
BRANCH   4  16
HETATM   16  C5  UNK     1      29.031  -7.836  32.670  1.00  0.00    -0.006 A 
HETATM   17  C10 UNK     1      28.576  -8.862  31.851  1.00  0.00     0.126 A 
HETATM   18  F1  UNK     1      29.025 -10.115  32.008  1.00  0.00    -0.205 F 
HETATM   19  C15 UNK     1      27.641  -8.586  30.853  1.00  0.00     0.085 A 
HETATM   20  C18 UNK     1      27.168  -7.285  30.682  1.00  0.00     0.119 A 
HETATM   21  C16 UNK     1      27.630  -6.260  31.507  1.00  0.00     0.043 A 
HETATM   22  F2  UNK     1      26.271  -7.020  29.723  1.00  0.00    -0.206 F 
HETATM   23  C11 UNK     1      28.564  -6.536  32.505  1.00  0.00     0.014 A 
ENDBRANCH   4  16
BRANCH   6  24
HETATM   24  C12 UNK     1      32.033  -8.463  32.203  1.00  0.00     0.294 C 
HETATM   25  O5  UNK     1      32.277  -9.652  32.279  1.00  0.00    -0.259 OA
BRANCH  24  26
HETATM   26  O3  UNK     1      32.251  -7.624  31.163  1.00  0.00    -0.318 OA
BRANCH  26  27
HETATM   27  C20 UNK     1      31.638  -8.017  29.930  1.00  0.00     0.174 C 
HETATM   28  C21 UNK     1      30.749  -6.894  29.441  1.00  0.00     0.034 C 
ENDBRANCH  26  27
ENDBRANCH  24  26
ENDBRANCH   6  24
BRANCH   9  29
HETATM   29  N1  UNK     1      33.320  -6.202  33.545  1.00  0.00    -0.379 N 
HETATM   30  H7  UNK     1      33.772  -6.511  32.694  1.00  0.00     0.158 HD
HETATM   31  H8  UNK     1      33.780  -5.539  34.156  1.00  0.00     0.158 HD
ENDBRANCH   9  29
TORSDOF 5
ENDMDL
MODEL 3
REMARK VINA RESULT:      -7.6      2.823      5.395
REMARK  5 active torsions:
REMARK  status: ('A' for Active; 'I' for Inactive)
REMARK    1  A    between atoms: C12_20  and  O3_5 
REMARK    2  A    between atoms: C20_28  and  O3_5 
REMARK    3  A    between atoms: C7_15  and  N1_8 
REMARK    4  A    between atoms: C1_9  and  C5_13 
REMARK    5  A    between atoms: C12_20  and  C3_11 
ROOT
HETATM    1  O1  UNK     1      29.283  -8.521  35.039  1.00  0.00    -0.292 OA
HETATM    2  O2  UNK     1      29.039  -6.131  38.467  1.00  0.00    -0.274 OA
HETATM    3  O4  UNK     1      30.263  -4.512  37.429  1.00  0.00    -0.259 OA
HETATM    4  C1  UNK     1      30.680  -6.012  35.007  1.00  0.00     0.107 C 
HETATM    5  C2  UNK     1      29.869  -6.503  36.191  1.00  0.00     0.066 A 
HETATM    6  C3  UNK     1      30.464  -6.881  33.779  1.00  0.00     0.081 C 
HETATM    7  C4  UNK     1      29.249  -7.693  36.148  1.00  0.00     0.104 A 
HETATM    8  C6  UNK     1      28.493  -8.192  37.293  1.00  0.00     0.033 A 
HETATM    9  C7  UNK     1      29.810  -8.060  33.830  1.00  0.00     0.155 C 
HETATM   10  C8  UNK     1      29.754  -5.627  37.386  1.00  0.00     0.298 A 
HETATM   11  C9  UNK     1      28.413  -7.393  38.430  1.00  0.00     0.092 A 
HETATM   12  C13 UNK     1      27.844  -9.433  37.313  1.00  0.00     0.017 A 
HETATM   13  C14 UNK     1      27.716  -7.792  39.570  1.00  0.00     0.038 A 
HETATM   14  C17 UNK     1      27.141  -9.847  38.448  1.00  0.00     0.001 A 
HETATM   15  C19 UNK     1      27.078  -9.028  39.575  1.00  0.00     0.003 A 
ENDROOT
BRANCH   4  16
HETATM   16  C5  UNK     1      32.138  -5.959  35.355  1.00  0.00    -0.006 A 
HETATM   17  C10 UNK     1      32.854  -4.784  35.160  1.00  0.00     0.126 A 
HETATM   18  F1  UNK     1      32.256  -3.692  34.663  1.00  0.00    -0.205 F 
HETATM   19  C15 UNK     1      34.209  -4.739  35.486  1.00  0.00     0.085 A 
HETATM   20  C18 UNK     1      34.840  -5.870  36.004  1.00  0.00     0.119 A 
HETATM   21  C16 UNK     1      34.115  -7.046  36.197  1.00  0.00     0.043 A 
HETATM   22  F2  UNK     1      36.142  -5.827  36.316  1.00  0.00    -0.206 F 
HETATM   23  C11 UNK     1      32.759  -7.091  35.872  1.00  0.00     0.014 A 
ENDBRANCH   4  16
BRANCH   6  24
HETATM   24  C12 UNK     1      30.982  -6.354  32.503  1.00  0.00     0.294 C 
HETATM   25  O5  UNK     1      31.842  -6.914  31.850  1.00  0.00    -0.259 OA
BRANCH  24  26
HETATM   26  O3  UNK     1      30.342  -5.192  32.231  1.00  0.00    -0.318 OA
BRANCH  26  27
HETATM   27  C20 UNK     1      29.888  -5.053  30.881  1.00  0.00     0.174 C 
HETATM   28  C21 UNK     1      28.626  -5.869  30.698  1.00  0.00     0.034 C 
ENDBRANCH  26  27
ENDBRANCH  24  26
ENDBRANCH   6  24
BRANCH   9  29
HETATM   29  N1  UNK     1      29.585  -8.910  32.785  1.00  0.00    -0.379 N 
HETATM   30  H7  UNK     1      30.091  -9.784  32.713  1.00  0.00     0.158 HD
HETATM   31  H8  UNK     1      28.904  -8.654  32.082  1.00  0.00     0.158 HD
ENDBRANCH   9  29
TORSDOF 5
ENDMDL
MODEL 4
REMARK VINA RESULT:      -7.5      2.756      3.472
REMARK  5 active torsions:
REMARK  status: ('A' for Active; 'I' for Inactive)
REMARK    1  A    between atoms: C12_20  and  O3_5 
REMARK    2  A    between atoms: C20_28  and  O3_5 
REMARK    3  A    between atoms: C7_15  and  N1_8 
REMARK    4  A    between atoms: C1_9  and  C5_13 
REMARK    5  A    between atoms: C12_20  and  C3_11 
ROOT
HETATM    1  O1  UNK     1      28.037  -8.273  34.609  1.00  0.00    -0.292 OA
HETATM    2  O2  UNK     1      30.771  -5.547  32.990  1.00  0.00    -0.274 OA
HETATM    3  O4  UNK     1      32.019  -5.665  34.895  1.00  0.00    -0.259 OA
HETATM    4  C1  UNK     1      30.227  -7.448  36.273  1.00  0.00     0.107 C 
HETATM    5  C2  UNK     1      30.019  -6.949  34.855  1.00  0.00     0.066 A 
HETATM    6  C3  UNK     1      29.291  -8.598  36.607  1.00  0.00     0.081 C 
HETATM    7  C4  UNK     1      28.967  -7.364  34.132  1.00  0.00     0.104 A 
HETATM    8  C6  UNK     1      28.737  -6.868  32.779  1.00  0.00     0.033 A 
HETATM    9  C7  UNK     1      28.265  -8.954  35.807  1.00  0.00     0.155 C 
HETATM   10  C8  UNK     1      31.020  -6.015  34.276  1.00  0.00     0.298 A 
HETATM   11  C9  UNK     1      29.650  -5.962  32.245  1.00  0.00     0.092 A 
HETATM   12  C13 UNK     1      27.646  -7.248  31.987  1.00  0.00     0.017 A 
HETATM   13  C14 UNK     1      29.507  -5.433  30.963  1.00  0.00     0.038 A 
HETATM   14  C17 UNK     1      27.490  -6.727  30.699  1.00  0.00     0.001 A 
HETATM   15  C19 UNK     1      28.418  -5.820  30.188  1.00  0.00     0.003 A 
ENDROOT
BRANCH   4  16
HETATM   16  C5  UNK     1      30.044  -6.328  37.254  1.00  0.00    -0.006 A 
HETATM   17  C10 UNK     1      31.128  -5.876  37.998  1.00  0.00     0.126 A 
HETATM   18  F1  UNK     1      32.340  -6.429  37.849  1.00  0.00    -0.205 F 
HETATM   19  C15 UNK     1      30.954  -4.834  38.909  1.00  0.00     0.085 A 
HETATM   20  C18 UNK     1      29.696  -4.252  39.071  1.00  0.00     0.119 A 
HETATM   21  C16 UNK     1      28.613  -4.711  38.322  1.00  0.00     0.043 A 
HETATM   22  F2  UNK     1      29.529  -3.252  39.947  1.00  0.00    -0.206 F 
HETATM   23  C11 UNK     1      28.787  -5.752  37.410  1.00  0.00     0.014 A 
ENDBRANCH   4  16
BRANCH   6  24
HETATM   24  C12 UNK     1      29.578  -9.337  37.850  1.00  0.00     0.294 C 
HETATM   25  O5  UNK     1      30.702  -9.642  38.200  1.00  0.00    -0.259 OA
BRANCH  24  26
HETATM   26  O3  UNK     1      28.404  -9.587  38.477  1.00  0.00    -0.318 OA
BRANCH  26  27
HETATM   27  C20 UNK     1      27.988  -8.582  39.407  1.00  0.00     0.174 C 
HETATM   28  C21 UNK     1      26.541  -8.229  39.138  1.00  0.00     0.034 C 
ENDBRANCH  26  27
ENDBRANCH  24  26
ENDBRANCH   6  24
BRANCH   9  29
HETATM   29  N1  UNK     1      27.368  -9.959  36.034  1.00  0.00    -0.379 N 
HETATM   30  H7  UNK     1      26.661 -10.185  35.347  1.00  0.00     0.158 HD
HETATM   31  H8  UNK     1      27.420 -10.475  36.904  1.00  0.00     0.158 HD
ENDBRANCH   9  29
TORSDOF 5
ENDMDL
MODEL 5
REMARK VINA RESULT:      -7.3      2.654      3.369
REMARK  5 active torsions:
REMARK  status: ('A' for Active; 'I' for Inactive)
REMARK    1  A    between atoms: C12_20  and  O3_5 
REMARK    2  A    between atoms: C20_28  and  O3_5 
REMARK    3  A    between atoms: C7_15  and  N1_8 
REMARK    4  A    between atoms: C1_9  and  C5_13 
REMARK    5  A    between atoms: C12_20  and  C3_11 
ROOT
HETATM    1  O1  UNK     1      31.102  -9.764  32.751  1.00  0.00    -0.292 OA
HETATM    2  O2  UNK     1      27.796  -7.765  31.140  1.00  0.00    -0.274 OA
HETATM    3  O4  UNK     1      27.731  -6.398  32.964  1.00  0.00    -0.259 OA
HETATM    4  C1  UNK     1      29.908  -7.690  34.337  1.00  0.00     0.107 C 
HETATM    5  C2  UNK     1      29.404  -8.088  32.962  1.00  0.00     0.066 A 
HETATM    6  C3  UNK     1      31.242  -8.344  34.657  1.00  0.00     0.081 C 
HETATM    7  C4  UNK     1      29.999  -9.076  32.276  1.00  0.00     0.104 A 
HETATM    8  C6  UNK     1      29.504  -9.490  30.967  1.00  0.00     0.033 A 
HETATM    9  C7  UNK     1      31.771  -9.324  33.895  1.00  0.00     0.155 C 
HETATM   10  C8  UNK     1      28.256  -7.342  32.383  1.00  0.00     0.298 A 
HETATM   11  C9  UNK     1      28.405  -8.821  30.435  1.00  0.00     0.092 A 
HETATM   12  C13 UNK     1      30.071 -10.528  30.215  1.00  0.00     0.017 A 
HETATM   13  C14 UNK     1      27.863  -9.153  29.194  1.00  0.00     0.038 A 
HETATM   14  C17 UNK     1      29.539 -10.872  28.969  1.00  0.00     0.001 A 
HETATM   15  C19 UNK     1      28.437 -10.186  28.459  1.00  0.00     0.003 A 
ENDROOT
BRANCH   4  16
HETATM   16  C5  UNK     1      28.894  -8.037  35.388  1.00  0.00    -0.006 A 
HETATM   17  C10 UNK     1      28.563  -7.104  36.363  1.00  0.00     0.126 A 
HETATM   18  F1  UNK     1      29.139  -5.894  36.378  1.00  0.00    -0.205 F 
HETATM   19  C15 UNK     1      27.620  -7.430  37.338  1.00  0.00     0.085 A 
HETATM   20  C18 UNK     1      27.015  -8.688  37.330  1.00  0.00     0.119 A 
HETATM   21  C16 UNK     1      27.354  -9.618  36.348  1.00  0.00     0.043 A 
HETATM   22  F2  UNK     1      26.111  -9.001  38.268  1.00  0.00    -0.206 F 
HETATM   23  C11 UNK     1      28.296  -9.292  35.373  1.00  0.00     0.014 A 
ENDBRANCH   4  16
BRANCH   6  24
HETATM   24  C12 UNK     1      31.957  -7.830  35.840  1.00  0.00     0.294 C 
HETATM   25  O5  UNK     1      32.272  -6.663  35.974  1.00  0.00    -0.259 OA
BRANCH  24  26
HETATM   26  O3  UNK     1      32.174  -8.863  36.688  1.00  0.00    -0.318 OA
BRANCH  26  27
HETATM   27  C20 UNK     1      31.616  -8.700  37.995  1.00  0.00     0.174 C 
HETATM   28  C21 UNK     1      30.644  -9.830  38.262  1.00  0.00     0.034 C 
ENDBRANCH  26  27
ENDBRANCH  24  26
ENDBRANCH   6  24
BRANCH   9  29
HETATM   29  N1  UNK     1      32.950  -9.977  34.115  1.00  0.00    -0.379 N 
HETATM   30  H7  UNK     1      33.318 -10.075  35.053  1.00  0.00     0.158 HD
HETATM   31  H8  UNK     1      33.453 -10.361  33.326  1.00  0.00     0.158 HD
ENDBRANCH   9  29
TORSDOF 5
ENDMDL
MODEL 6
REMARK VINA RESULT:      -7.3      2.437      3.563
REMARK  5 active torsions:
REMARK  status: ('A' for Active; 'I' for Inactive)
REMARK    1  A    between atoms: C12_20  and  O3_5 
REMARK    2  A    between atoms: C20_28  and  O3_5 
REMARK    3  A    between atoms: C7_15  and  N1_8 
REMARK    4  A    between atoms: C1_9  and  C5_13 
REMARK    5  A    between atoms: C12_20  and  C3_11 
ROOT
HETATM    1  O1  UNK     1      28.544  -7.628  34.252  1.00  0.00    -0.292 OA
HETATM    2  O2  UNK     1      31.497  -8.902  31.572  1.00  0.00    -0.274 OA
HETATM    3  O4  UNK     1      33.051  -8.812  33.239  1.00  0.00    -0.259 OA
HETATM    4  C1  UNK     1      31.236  -7.809  35.236  1.00  0.00     0.107 C 
HETATM    5  C2  UNK     1      30.841  -8.150  33.811  1.00  0.00     0.066 A 
HETATM    6  C3  UNK     1      30.019  -7.601  36.122  1.00  0.00     0.081 C 
HETATM    7  C4  UNK     1      29.565  -8.032  33.409  1.00  0.00     0.104 A 
HETATM    8  C6  UNK     1      29.177  -8.325  32.033  1.00  0.00     0.033 A 
HETATM    9  C7  UNK     1      28.767  -7.510  35.625  1.00  0.00     0.155 C 
HETATM   10  C8  UNK     1      31.890  -8.642  32.881  1.00  0.00     0.298 A 
HETATM   11  C9  UNK     1      30.163  -8.749  31.146  1.00  0.00     0.092 A 
HETATM   12  C13 UNK     1      27.868  -8.200  31.552  1.00  0.00     0.017 A 
HETATM   13  C14 UNK     1      29.884  -9.047  29.812  1.00  0.00     0.038 A 
HETATM   14  C17 UNK     1      27.572  -8.495  30.218  1.00  0.00     0.001 A 
HETATM   15  C19 UNK     1      28.578  -8.917  29.349  1.00  0.00     0.003 A 
ENDROOT
BRANCH   4  16
HETATM   16  C5  UNK     1      32.110  -6.590  35.260  1.00  0.00    -0.006 A 
HETATM   17  C10 UNK     1      33.351  -6.642  35.884  1.00  0.00     0.126 A 
HETATM   18  F1  UNK     1      33.779  -7.770  36.467  1.00  0.00    -0.205 F 
HETATM   19  C15 UNK     1      34.162  -5.506  35.904  1.00  0.00     0.085 A 
HETATM   20  C18 UNK     1      33.725  -4.327  35.300  1.00  0.00     0.119 A 
HETATM   21  C16 UNK     1      32.478  -4.283  34.677  1.00  0.00     0.043 A 
HETATM   22  F2  UNK     1      34.503  -3.237  35.321  1.00  0.00    -0.206 F 
HETATM   23  C11 UNK     1      31.668  -5.418  34.656  1.00  0.00     0.014 A 
ENDBRANCH   4  16
BRANCH   6  24
HETATM   24  C12 UNK     1      30.268  -7.530  37.573  1.00  0.00     0.294 C 
HETATM   25  O5  UNK     1      30.881  -8.382  38.187  1.00  0.00    -0.259 OA
BRANCH  24  26
HETATM   26  O3  UNK     1      29.708  -6.392  38.046  1.00  0.00    -0.318 OA
BRANCH  26  27
HETATM   27  C20 UNK     1      30.636  -5.361  38.399  1.00  0.00     0.174 C 
HETATM   28  C21 UNK     1      30.195  -4.060  37.764  1.00  0.00     0.034 C 
ENDBRANCH  26  27
ENDBRANCH  24  26
ENDBRANCH   6  24
BRANCH   9  29
HETATM   29  N1  UNK     1      27.622  -7.308  36.342  1.00  0.00    -0.379 N 
HETATM   30  H7  UNK     1      27.634  -7.340  37.353  1.00  0.00     0.158 HD
HETATM   31  H8  UNK     1      26.759  -7.125  35.846  1.00  0.00     0.158 HD
ENDBRANCH   9  29
TORSDOF 5
ENDMDL
MODEL 7
REMARK VINA RESULT:      -7.3      3.192      6.925
REMARK  5 active torsions:
REMARK  status: ('A' for Active; 'I' for Inactive)
REMARK    1  A    between atoms: C12_20  and  O3_5 
REMARK    2  A    between atoms: C20_28  and  O3_5 
REMARK    3  A    between atoms: C7_15  and  N1_8 
REMARK    4  A    between atoms: C1_9  and  C5_13 
REMARK    5  A    between atoms: C12_20  and  C3_11 
ROOT
HETATM    1  O1  UNK     1      30.570  -5.521  33.792  1.00  0.00    -0.292 OA
HETATM    2  O2  UNK     1      33.731  -7.585  35.601  1.00  0.00    -0.274 OA
HETATM    3  O4  UNK     1      34.124  -8.696  33.650  1.00  0.00    -0.259 OA
HETATM    4  C1  UNK     1      31.927  -7.505  32.221  1.00  0.00     0.107 C 
HETATM    5  C2  UNK     1      32.298  -7.175  33.655  1.00  0.00     0.066 A 
HETATM    6  C3  UNK     1      30.931  -6.507  31.655  1.00  0.00     0.081 C 
HETATM    7  C4  UNK     1      31.616  -6.244  34.340  1.00  0.00     0.104 A 
HETATM    8  C6  UNK     1      31.941  -5.940  35.730  1.00  0.00     0.033 A 
HETATM    9  C7  UNK     1      30.303  -5.592  32.424  1.00  0.00     0.155 C 
HETATM   10  C8  UNK     1      33.449  -7.883  34.272  1.00  0.00     0.298 A 
HETATM   11  C9  UNK     1      32.995  -6.629  36.327  1.00  0.00     0.092 A 
HETATM   12  C13 UNK     1      31.251  -4.995  36.501  1.00  0.00     0.017 A 
HETATM   13  C14 UNK     1      33.372  -6.405  37.651  1.00  0.00     0.038 A 
HETATM   14  C17 UNK     1      31.618  -4.760  37.829  1.00  0.00     0.001 A 
HETATM   15  C19 UNK     1      32.676  -5.464  38.404  1.00  0.00     0.003 A 
ENDROOT
BRANCH   4  16
HETATM   16  C5  UNK     1      31.375  -8.897  32.130  1.00  0.00    -0.006 A 
HETATM   17  C10 UNK     1      31.928  -9.803  31.233  1.00  0.00     0.126 A 
HETATM   18  F1  UNK     1      32.953  -9.448  30.445  1.00  0.00    -0.205 F 
HETATM   19  C15 UNK     1      31.412 -11.097  31.152  1.00  0.00     0.085 A 
HETATM   20  C18 UNK     1      30.346 -11.475  31.968  1.00  0.00     0.119 A 
HETATM   21  C16 UNK     1      29.796 -10.560  32.865  1.00  0.00     0.043 A 
HETATM   22  F2  UNK     1      29.850 -12.717  31.889  1.00  0.00    -0.206 F 
HETATM   23  C11 UNK     1      30.312  -9.267  32.948  1.00  0.00     0.014 A 
ENDBRANCH   4  16
BRANCH   6  24
HETATM   24  C12 UNK     1      30.701  -6.564  30.200  1.00  0.00     0.294 C 
HETATM   25  O5  UNK     1      31.580  -6.390  29.378  1.00  0.00    -0.259 OA
BRANCH  24  26
HETATM   26  O3  UNK     1      29.390  -6.833  29.987  1.00  0.00    -0.318 OA
BRANCH  26  27
HETATM   27  C20 UNK     1      29.124  -8.104  29.387  1.00  0.00     0.174 C 
HETATM   28  C21 UNK     1      27.959  -8.754  30.102  1.00  0.00     0.034 C 
ENDBRANCH  26  27
ENDBRANCH  24  26
ENDBRANCH   6  24
BRANCH   9  29
HETATM   29  N1  UNK     1      29.385  -4.671  32.004  1.00  0.00    -0.379 N 
HETATM   30  H7  UNK     1      28.404  -4.787  32.218  1.00  0.00     0.158 HD
HETATM   31  H8  UNK     1      29.702  -3.869  31.475  1.00  0.00     0.158 HD
ENDBRANCH   9  29
TORSDOF 5
ENDMDL
MODEL 8
REMARK VINA RESULT:      -7.2      3.728      7.395
REMARK  5 active torsions:
REMARK  status: ('A' for Active; 'I' for Inactive)
REMARK    1  A    between atoms: C12_20  and  O3_5 
REMARK    2  A    between atoms: C20_28  and  O3_5 
REMARK    3  A    between atoms: C7_15  and  N1_8 
REMARK    4  A    between atoms: C1_9  and  C5_13 
REMARK    5  A    between atoms: C12_20  and  C3_11 
ROOT
HETATM    1  O1  UNK     1      32.097  -6.583  33.598  1.00  0.00    -0.292 OA
HETATM    2  O2  UNK     1      35.320  -7.763  31.202  1.00  0.00    -0.274 OA
HETATM    3  O4  UNK     1      33.945  -7.839  29.385  1.00  0.00    -0.259 OA
HETATM    4  C1  UNK     1      31.554  -7.163  30.838  1.00  0.00     0.107 C 
HETATM    5  C2  UNK     1      32.935  -7.262  31.458  1.00  0.00     0.066 A 
HETATM    6  C3  UNK     1      30.562  -6.498  31.779  1.00  0.00     0.081 C 
HETATM    7  C4  UNK     1      33.121  -6.989  32.759  1.00  0.00     0.104 A 
HETATM    8  C6  UNK     1      34.438  -7.112  33.375  1.00  0.00     0.033 A 
HETATM    9  C7  UNK     1      30.847  -6.248  33.074  1.00  0.00     0.155 C 
HETATM   10  C8  UNK     1      34.079  -7.640  30.588  1.00  0.00     0.298 A 
HETATM   11  C9  UNK     1      35.508  -7.504  32.574  1.00  0.00     0.092 A 
HETATM   12  C13 UNK     1      34.688  -6.862  34.731  1.00  0.00     0.017 A 
HETATM   13  C14 UNK     1      36.799  -7.651  33.079  1.00  0.00     0.038 A 
HETATM   14  C17 UNK     1      35.977  -7.005  35.252  1.00  0.00     0.001 A 
HETATM   15  C19 UNK     1      37.031  -7.400  34.428  1.00  0.00     0.003 A 
ENDROOT
BRANCH   4  16
HETATM   16  C5  UNK     1      31.059  -8.522  30.440  1.00  0.00    -0.006 A 
HETATM   17  C10 UNK     1      30.791  -8.797  29.103  1.00  0.00     0.126 A 
HETATM   18  F1  UNK     1      30.970  -7.859  28.162  1.00  0.00    -0.205 F 
HETATM   19  C15 UNK     1      30.332 -10.062  28.737  1.00  0.00     0.085 A 
HETATM   20  C18 UNK     1      30.143 -11.044  29.710  1.00  0.00     0.119 A 
HETATM   21  C16 UNK     1      30.413 -10.761  31.048  1.00  0.00     0.043 A 
HETATM   22  F2  UNK     1      29.701 -12.258  29.357  1.00  0.00    -0.206 F 
HETATM   23  C11 UNK     1      30.873  -9.496  31.415  1.00  0.00     0.014 A 
ENDBRANCH   4  16
BRANCH   6  24
HETATM   24  C12 UNK     1      29.267  -6.105  31.195  1.00  0.00     0.294 C 
HETATM   25  O5  UNK     1      29.152  -5.247  30.340  1.00  0.00    -0.259 OA
BRANCH  24  26
HETATM   26  O3  UNK     1      28.296  -6.852  31.773  1.00  0.00    -0.318 OA
BRANCH  26  27
HETATM   27  C20 UNK     1      27.169  -7.132  30.936  1.00  0.00     0.174 C 
HETATM   28  C21 UNK     1      27.343  -8.503  30.318  1.00  0.00     0.034 C 
ENDBRANCH  26  27
ENDBRANCH  24  26
ENDBRANCH   6  24
BRANCH   9  29
HETATM   29  N1  UNK     1      30.015  -5.672  33.992  1.00  0.00    -0.379 N 
HETATM   30  H7  UNK     1      29.426  -6.243  34.584  1.00  0.00     0.158 HD
HETATM   31  H8  UNK     1      29.995  -4.663  34.070  1.00  0.00     0.158 HD
ENDBRANCH   9  29
TORSDOF 5
ENDMDL
MODEL 9
REMARK VINA RESULT:      -7.2      3.345      5.717
REMARK  5 active torsions:
REMARK  status: ('A' for Active; 'I' for Inactive)
REMARK    1  A    between atoms: C12_20  and  O3_5 
REMARK    2  A    between atoms: C20_28  and  O3_5 
REMARK    3  A    between atoms: C7_15  and  N1_8 
REMARK    4  A    between atoms: C1_9  and  C5_13 
REMARK    5  A    between atoms: C12_20  and  C3_11 
ROOT
HETATM    1  O1  UNK     1      30.035  -5.977  37.324  1.00  0.00    -0.292 OA
HETATM    2  O2  UNK     1      28.682  -9.789  36.244  1.00  0.00    -0.274 OA
HETATM    3  O4  UNK     1      29.913  -9.685  34.328  1.00  0.00    -0.259 OA
HETATM    4  C1  UNK     1      30.883  -7.013  34.783  1.00  0.00     0.107 C 
HETATM    5  C2  UNK     1      29.981  -7.773  35.738  1.00  0.00     0.066 A 
HETATM    6  C3  UNK     1      31.465  -5.768  35.431  1.00  0.00     0.081 C 
HETATM    7  C4  UNK     1      29.610  -7.228  36.907  1.00  0.00     0.104 A 
HETATM    8  C6  UNK     1      28.717  -7.934  37.820  1.00  0.00     0.033 A 
HETATM    9  C7  UNK     1      31.037  -5.302  36.623  1.00  0.00     0.155 C 
HETATM   10  C8  UNK     1      29.543  -9.142  35.363  1.00  0.00     0.298 A 
HETATM   11  C9  UNK     1      28.271  -9.202  37.457  1.00  0.00     0.092 A 
HETATM   12  C13 UNK     1      28.280  -7.406  39.042  1.00  0.00     0.017 A 
HETATM   13  C14 UNK     1      27.413  -9.947  38.266  1.00  0.00     0.038 A 
HETATM   14  C17 UNK     1      27.420  -8.141  39.864  1.00  0.00     0.001 A 
HETATM   15  C19 UNK     1      26.987  -9.409  39.476  1.00  0.00     0.003 A 
ENDROOT
BRANCH   4  16
HETATM   16  C5  UNK     1      30.135  -6.647  33.535  1.00  0.00    -0.006 A 
HETATM   17  C10 UNK     1      30.743  -6.799  32.295  1.00  0.00     0.126 A 
HETATM   18  F1  UNK     1      31.994  -7.271  32.198  1.00  0.00    -0.205 F 
HETATM   19  C15 UNK     1      30.044  -6.458  31.136  1.00  0.00     0.085 A 
HETATM   20  C18 UNK     1      28.741  -5.967  31.228  1.00  0.00     0.119 A 
HETATM   21  C16 UNK     1      28.138  -5.817  32.476  1.00  0.00     0.043 A 
HETATM   22  F2  UNK     1      28.070  -5.639  30.115  1.00  0.00    -0.206 F 
HETATM   23  C11 UNK     1      28.836  -6.158  33.634  1.00  0.00     0.014 A 
ENDBRANCH   4  16
BRANCH   6  24
HETATM   24  C12 UNK     1      32.557  -5.098  34.701  1.00  0.00     0.294 C 
HETATM   25  O5  UNK     1      32.459  -3.980  34.233  1.00  0.00    -0.259 OA
BRANCH  24  26
HETATM   26  O3  UNK     1      33.621  -5.935  34.665  1.00  0.00    -0.318 OA
BRANCH  26  27
HETATM   27  C20 UNK     1      34.878  -5.330  34.984  1.00  0.00     0.174 C 
HETATM   28  C21 UNK     1      35.262  -5.706  36.399  1.00  0.00     0.034 C 
ENDBRANCH  26  27
ENDBRANCH  24  26
ENDBRANCH   6  24
BRANCH   9  29
HETATM   29  N1  UNK     1      31.489  -4.187  37.270  1.00  0.00    -0.379 N 
HETATM   30  H7  UNK     1      31.411  -4.107  38.275  1.00  0.00     0.158 HD
HETATM   31  H8  UNK     1      31.904  -3.440  36.727  1.00  0.00     0.158 HD
ENDBRANCH   9  29
TORSDOF 5
ENDMDL
MODEL 10
REMARK VINA RESULT:      -7.2      2.293      2.981
REMARK  5 active torsions:
REMARK  status: ('A' for Active; 'I' for Inactive)
REMARK    1  A    between atoms: C12_20  and  O3_5 
REMARK    2  A    between atoms: C20_28  and  O3_5 
REMARK    3  A    between atoms: C7_15  and  N1_8 
REMARK    4  A    between atoms: C1_9  and  C5_13 
REMARK    5  A    between atoms: C12_20  and  C3_11 
ROOT
HETATM    1  O1  UNK     1      32.005  -7.775  31.881  1.00  0.00    -0.292 OA
HETATM    2  O2  UNK     1      27.852  -7.675  32.398  1.00  0.00    -0.274 OA
HETATM    3  O4  UNK     1      28.126  -6.642  34.412  1.00  0.00    -0.259 OA
HETATM    4  C1  UNK     1      31.003  -6.704  34.350  1.00  0.00     0.107 C 
HETATM    5  C2  UNK     1      30.110  -7.227  33.241  1.00  0.00     0.066 A 
HETATM    6  C3  UNK     1      32.451  -6.595  33.900  1.00  0.00     0.081 C 
HETATM    7  C4  UNK     1      30.641  -7.727  32.114  1.00  0.00     0.104 A 
HETATM    8  C6  UNK     1      29.794  -8.263  31.053  1.00  0.00     0.033 A 
HETATM    9  C7  UNK     1      32.891  -7.118  32.737  1.00  0.00     0.155 C 
HETATM   10  C8  UNK     1      28.636  -7.146  33.418  1.00  0.00     0.298 A 
HETATM   11  C9  UNK     1      28.413  -8.226  31.230  1.00  0.00     0.092 A 
HETATM   12  C13 UNK     1      30.292  -8.816  29.867  1.00  0.00     0.017 A 
HETATM   13  C14 UNK     1      27.529  -8.719  30.270  1.00  0.00     0.038 A 
HETATM   14  C17 UNK     1      29.418  -9.315  28.896  1.00  0.00     0.001 A 
HETATM   15  C19 UNK     1      28.039  -9.267  29.097  1.00  0.00     0.003 A 
ENDROOT
BRANCH   4  16
HETATM   16  C5  UNK     1      30.901  -7.581  35.562  1.00  0.00    -0.006 A 
HETATM   17  C10 UNK     1      30.457  -7.048  36.767  1.00  0.00     0.126 A 
HETATM   18  F1  UNK     1      30.117  -5.755  36.859  1.00  0.00    -0.205 F 
HETATM   19  C15 UNK     1      30.363  -7.867  37.892  1.00  0.00     0.085 A 
HETATM   20  C18 UNK     1      30.715  -9.214  37.805  1.00  0.00     0.119 A 
HETATM   21  C16 UNK     1      31.160  -9.742  36.593  1.00  0.00     0.043 A 
HETATM   22  F2  UNK     1      30.625 -10.000  38.886  1.00  0.00    -0.206 F 
HETATM   23  C11 UNK     1      31.253  -8.924  35.468  1.00  0.00     0.014 A 
ENDBRANCH   4  16
BRANCH   6  24
HETATM   24  C12 UNK     1      33.361  -5.854  34.793  1.00  0.00     0.294 C 
HETATM   25  O5  UNK     1      33.231  -4.671  35.046  1.00  0.00    -0.259 OA
BRANCH  24  26
HETATM   26  O3  UNK     1      34.308  -6.711  35.242  1.00  0.00    -0.318 OA
BRANCH  26  27
HETATM   27  C20 UNK     1      34.856  -6.390  36.524  1.00  0.00     0.174 C 
HETATM   28  C21 UNK     1      34.061  -7.107  37.594  1.00  0.00     0.034 C 
ENDBRANCH  26  27
ENDBRANCH  24  26
ENDBRANCH   6  24
BRANCH   9  29
HETATM   29  N1  UNK     1      34.172  -7.082  32.263  1.00  0.00    -0.379 N 
HETATM   30  H7  UNK     1      34.659  -6.202  32.161  1.00  0.00     0.158 HD
HETATM   31  H8  UNK     1      34.627  -7.951  32.014  1.00  0.00     0.158 HD
ENDBRANCH   9  29
TORSDOF 5
ENDMDL
