MODEL 1
REMARK VINA RESULT:      -7.9      0.000      0.000
REMARK  6 active torsions:
REMARK  status: ('A' for Active; 'I' for Inactive)
REMARK    1  A    between atoms: C14_21  and  O3_3 
REMARK    2  A    between atoms: C20_27  and  O3_3 
REMARK    3  A    between atoms: C24_31  and  O6_6 
REMARK    4  A    between atoms: C12_19  and  C6_13 
REMARK    5  A    between atoms: C10_17  and  C14_21 
REMARK    6  A    between atoms: C20_27  and  C24_31 
ROOT
HETATM    1  O1  UNK     1      30.020  -5.171  32.065  1.00  0.00    -0.293 OA
HETATM    2  N1  UNK     1      32.913  -8.918  32.202  1.00  0.00    -0.362 N 
HETATM    3  C1  UNK     1      30.281  -7.906  29.699  1.00  0.00    -0.036 C 
HETATM    4  C2  UNK     1      31.069  -8.897  30.579  1.00  0.00     0.067 C 
HETATM    5  C3  UNK     1      29.460  -6.972  30.598  1.00  0.00     0.092 C 
HETATM    6  C4  UNK     1      31.805  -8.245  31.722  1.00  0.00     0.021 C 
HETATM    7  C5  UNK     1      31.456  -7.050  32.246  1.00  0.00     0.024 C 
HETATM    8  C6  UNK     1      32.236  -6.438  33.408  1.00  0.00     0.104 C 
HETATM    9  C7  UNK     1      30.304  -6.299  31.661  1.00  0.00     0.159 C 
HETATM   10  C8  UNK     1      31.239  -7.090  28.805  1.00  0.00     0.015 C 
HETATM   11  C9  UNK     1      29.328  -8.693  28.781  1.00  0.00     0.015 C 
HETATM   12  C10 UNK     1      33.537  -7.192  33.696  1.00  0.00     0.052 C 
HETATM   13  C11 UNK     1      33.803  -8.389  33.124  1.00  0.00     0.018 C 
HETATM   14  C13 UNK     1      35.021  -9.231  33.389  1.00  0.00     0.069 C 
HETATM   15  H12 UNK     1      33.142  -9.812  31.784  1.00  0.00     0.165 HD
ENDROOT
BRANCH   8  16
HETATM   16  C12 UNK     1      31.381  -6.386  34.650  1.00  0.00     0.029 A 
HETATM   17  C15 UNK     1      31.441  -5.169  35.500  1.00  0.00     0.194 A 
HETATM   18  O5  UNK     1      32.157  -4.216  35.225  1.00  0.00    -0.287 OA
HETATM   19  C17 UNK     1      30.587  -5.170  36.704  1.00  0.00     0.048 A 
HETATM   20  C18 UNK     1      29.790  -6.285  36.969  1.00  0.00     0.089 A 
HETATM   21  C19 UNK     1      30.573  -4.074  37.568  1.00  0.00     0.018 A 
HETATM   22  O2  UNK     1      29.765  -7.389  36.154  1.00  0.00    -0.321 OA
HETATM   23  C21 UNK     1      28.975  -6.308  38.100  1.00  0.00     0.038 A 
HETATM   24  C16 UNK     1      30.565  -7.374  35.038  1.00  0.00     0.154 A 
HETATM   25  C23 UNK     1      28.959  -5.213  38.966  1.00  0.00     0.003 A 
HETATM   26  C22 UNK     1      29.756  -4.098  38.700  1.00  0.00     0.001 A 
ENDBRANCH   8  16
BRANCH  12  27
HETATM   27  C14 UNK     1      34.509  -6.524  34.579  1.00  0.00     0.292 C 
HETATM   28  O4  UNK     1      35.145  -5.541  34.249  1.00  0.00    -0.259 OA
BRANCH  27  29
HETATM   29  O3  UNK     1      34.542  -7.189  35.758  1.00  0.00    -0.316 OA
BRANCH  29  30
HETATM   30  C20 UNK     1      34.555  -6.359  36.923  1.00  0.00     0.205 C 
BRANCH  30  31
HETATM   31  C24 UNK     1      33.609  -6.940  37.956  1.00  0.00     0.193 C 
BRANCH  31  32
HETATM   32  O6  UNK     1      32.981  -8.094  37.413  1.00  0.00    -0.394 OA
HETATM   33  C25 UNK     1      32.010  -8.627  38.303  1.00  0.00     0.201 C 
ENDBRANCH  31  32
ENDBRANCH  30  31
ENDBRANCH  29  30
ENDBRANCH  27  29
ENDBRANCH  12  27
TORSDOF 6
ENDMDL
MODEL 2
REMARK VINA RESULT:      -7.8      1.749      2.243
REMARK  6 active torsions:
REMARK  status: ('A' for Active; 'I' for Inactive)
REMARK    1  A    between atoms: C14_21  and  O3_3 
REMARK    2  A    between atoms: C20_27  and  O3_3 
REMARK    3  A    between atoms: C24_31  and  O6_6 
REMARK    4  A    between atoms: C12_19  and  C6_13 
REMARK    5  A    between atoms: C10_17  and  C14_21 
REMARK    6  A    between atoms: C20_27  and  C24_31 
ROOT
HETATM    1  O1  UNK     1      28.121  -6.649  32.914  1.00  0.00    -0.293 OA
HETATM    2  N1  UNK     1      31.778  -9.544  32.095  1.00  0.00    -0.362 N 
HETATM    3  C1  UNK     1      28.746  -8.727  30.009  1.00  0.00    -0.036 C 
HETATM    4  C2  UNK     1      29.821  -9.651  30.615  1.00  0.00     0.067 C 
HETATM    5  C3  UNK     1      27.832  -8.210  31.130  1.00  0.00     0.092 C 
HETATM    6  C4  UNK     1      30.505  -9.076  31.830  1.00  0.00     0.021 C 
HETATM    7  C5  UNK     1      29.952  -8.126  32.614  1.00  0.00     0.024 C 
HETATM    8  C6  UNK     1      30.689  -7.583  33.837  1.00  0.00     0.104 C 
HETATM    9  C7  UNK     1      28.608  -7.574  32.265  1.00  0.00     0.159 C 
HETATM   10  C8  UNK     1      29.400  -7.547  29.260  1.00  0.00     0.015 C 
HETATM   11  C9  UNK     1      27.904  -9.526  28.997  1.00  0.00     0.015 C 
HETATM   12  C10 UNK     1      32.148  -8.043  33.888  1.00  0.00     0.052 C 
HETATM   13  C11 UNK     1      32.616  -9.006  33.060  1.00  0.00     0.018 C 
HETATM   14  C13 UNK     1      34.012  -9.567  33.075  1.00  0.00     0.069 C 
HETATM   15  H12 UNK     1      32.157 -10.258  31.486  1.00  0.00     0.165 HD
ENDROOT
BRANCH   8  16
HETATM   16  C12 UNK     1      29.975  -7.980  35.105  1.00  0.00     0.029 A 
HETATM   17  C15 UNK     1      29.636  -6.919  36.088  1.00  0.00     0.194 A 
HETATM   18  O5  UNK     1      29.916  -5.743  35.901  1.00  0.00    -0.287 OA
HETATM   19  C17 UNK     1      28.941  -7.361  37.312  1.00  0.00     0.048 A 
HETATM   20  C18 UNK     1      28.646  -8.715  37.473  1.00  0.00     0.089 A 
HETATM   21  C19 UNK     1      28.579  -6.440  38.298  1.00  0.00     0.018 A 
HETATM   22  O2  UNK     1      28.978  -9.663  36.537  1.00  0.00    -0.321 OA
HETATM   23  C21 UNK     1      27.988  -9.156  38.622  1.00  0.00     0.038 A 
HETATM   24  C16 UNK     1      29.625  -9.237  35.404  1.00  0.00     0.154 A 
HETATM   25  C23 UNK     1      27.627  -8.238  39.609  1.00  0.00     0.003 A 
HETATM   26  C22 UNK     1      27.921  -6.883  39.446  1.00  0.00     0.001 A 
ENDBRANCH   8  16
BRANCH  12  27
HETATM   27  C14 UNK     1      33.030  -7.346  34.839  1.00  0.00     0.292 C 
HETATM   28  O4  UNK     1      33.442  -6.215  34.663  1.00  0.00    -0.259 OA
BRANCH  27  29
HETATM   29  O3  UNK     1      33.270  -8.174  35.884  1.00  0.00    -0.316 OA
BRANCH  29  30
HETATM   30  C20 UNK     1      33.624  -7.520  37.107  1.00  0.00     0.205 C 
BRANCH  30  31
HETATM   31  C24 UNK     1      32.553  -7.796  38.144  1.00  0.00     0.193 C 
BRANCH  31  32
HETATM   32  O6  UNK     1      32.033  -6.558  38.615  1.00  0.00    -0.394 OA
HETATM   33  C25 UNK     1      32.778  -5.456  38.117  1.00  0.00     0.201 C 
ENDBRANCH  31  32
ENDBRANCH  30  31
ENDBRANCH  29  30
ENDBRANCH  27  29
ENDBRANCH  12  27
TORSDOF 6
ENDMDL
MODEL 3
REMARK VINA RESULT:      -7.8      1.423      2.554
REMARK  6 active torsions:
REMARK  status: ('A' for Active; 'I' for Inactive)
REMARK    1  A    between atoms: C14_21  and  O3_3 
REMARK    2  A    between atoms: C20_27  and  O3_3 
REMARK    3  A    between atoms: C24_31  and  O6_6 
REMARK    4  A    between atoms: C12_19  and  C6_13 
REMARK    5  A    between atoms: C10_17  and  C14_21 
REMARK    6  A    between atoms: C20_27  and  C24_31 
ROOT
HETATM    1  O1  UNK     1      29.402  -5.562  32.398  1.00  0.00    -0.293 OA
HETATM    2  N1  UNK     1      31.653  -9.728  32.455  1.00  0.00    -0.362 N 
HETATM    3  C1  UNK     1      28.948  -8.402  30.189  1.00  0.00    -0.036 C 
HETATM    4  C2  UNK     1      29.663  -9.471  31.040  1.00  0.00     0.067 C 
HETATM    5  C3  UNK     1      28.396  -7.307  31.112  1.00  0.00     0.092 C 
HETATM    6  C4  UNK     1      30.620  -8.902  32.056  1.00  0.00     0.021 C 
HETATM    7  C5  UNK     1      30.529  -7.644  32.539  1.00  0.00     0.024 C 
HETATM    8  C6  UNK     1      31.526  -7.121  33.573  1.00  0.00     0.104 C 
HETATM    9  C7  UNK     1      29.453  -6.738  32.036  1.00  0.00     0.159 C 
HETATM   10  C8  UNK     1      29.915  -7.796  29.151  1.00  0.00     0.015 C 
HETATM   11  C9  UNK     1      27.781  -9.058  29.428  1.00  0.00     0.015 C 
HETATM   12  C10 UNK     1      32.714  -8.067  33.766  1.00  0.00     0.052 C 
HETATM   13  C11 UNK     1      32.717  -9.315  33.244  1.00  0.00     0.018 C 
HETATM   14  C13 UNK     1      33.806 -10.336  33.429  1.00  0.00     0.069 C 
HETATM   15  H12 UNK     1      31.686 -10.665  32.072  1.00  0.00     0.165 HD
ENDROOT
BRANCH   8  16
HETATM   16  C12 UNK     1      30.838  -6.873  34.893  1.00  0.00     0.029 A 
HETATM   17  C15 UNK     1      31.054  -5.569  35.571  1.00  0.00     0.194 A 
HETATM   18  O5  UNK     1      31.767  -4.697  35.093  1.00  0.00    -0.287 OA
HETATM   19  C17 UNK     1      30.362  -5.380  36.859  1.00  0.00     0.048 A 
HETATM   20  C18 UNK     1      29.562  -6.409  37.357  1.00  0.00     0.089 A 
HETATM   21  C19 UNK     1      30.502  -4.189  37.575  1.00  0.00     0.018 A 
HETATM   22  O2  UNK     1      29.389  -7.600  36.696  1.00  0.00    -0.321 OA
HETATM   23  C21 UNK     1      28.897  -6.252  38.573  1.00  0.00     0.038 A 
HETATM   24  C16 UNK     1      30.041  -7.762  35.498  1.00  0.00     0.154 A 
HETATM   25  C23 UNK     1      29.035  -5.063  39.290  1.00  0.00     0.003 A 
HETATM   26  C22 UNK     1      29.835  -4.033  38.791  1.00  0.00     0.001 A 
ENDBRANCH   8  16
BRANCH  12  27
HETATM   27  C14 UNK     1      33.875  -7.532  34.498  1.00  0.00     0.292 C 
HETATM   28  O4  UNK     1      34.107  -7.792  35.663  1.00  0.00    -0.259 OA
BRANCH  27  29
HETATM   29  O3  UNK     1      34.583  -6.742  33.656  1.00  0.00    -0.316 OA
BRANCH  29  30
HETATM   30  C20 UNK     1      36.003  -6.918  33.709  1.00  0.00     0.205 C 
BRANCH  30  31
HETATM   31  C24 UNK     1      36.418  -7.915  32.645  1.00  0.00     0.193 C 
BRANCH  31  32
HETATM   32  O6  UNK     1      35.995  -7.440  31.373  1.00  0.00    -0.394 OA
HETATM   33  C25 UNK     1      35.305  -8.446  30.644  1.00  0.00     0.201 C 
ENDBRANCH  31  32
ENDBRANCH  30  31
ENDBRANCH  29  30
ENDBRANCH  27  29
ENDBRANCH  12  27
TORSDOF 6
ENDMDL
MODEL 4
REMARK VINA RESULT:      -7.8      2.344      6.451
REMARK  6 active torsions:
REMARK  status: ('A' for Active; 'I' for Inactive)
REMARK    1  A    between atoms: C14_21  and  O3_3 
REMARK    2  A    between atoms: C20_27  and  O3_3 
REMARK    3  A    between atoms: C24_31  and  O6_6 
REMARK    4  A    between atoms: C12_19  and  C6_13 
REMARK    5  A    between atoms: C10_17  and  C14_21 
REMARK    6  A    between atoms: C20_27  and  C24_31 
ROOT
HETATM    1  O1  UNK     1      28.579  -9.657  35.708  1.00  0.00    -0.293 OA
HETATM    2  N1  UNK     1      28.929  -5.308  37.551  1.00  0.00    -0.362 N 
HETATM    3  C1  UNK     1      26.681  -8.203  38.435  1.00  0.00    -0.036 C 
HETATM    4  C2  UNK     1      27.023  -6.720  38.187  1.00  0.00     0.067 C 
HETATM    5  C3  UNK     1      26.769  -8.971  37.109  1.00  0.00     0.092 C 
HETATM    6  C4  UNK     1      28.272  -6.510  37.369  1.00  0.00     0.021 C 
HETATM    7  C5  UNK     1      28.773  -7.439  36.527  1.00  0.00     0.024 C 
HETATM    8  C6  UNK     1      30.041  -7.170  35.718  1.00  0.00     0.104 C 
HETATM    9  C7  UNK     1      28.094  -8.764  36.403  1.00  0.00     0.159 C 
HETATM   10  C8  UNK     1      27.640  -8.816  39.477  1.00  0.00     0.015 C 
HETATM   11  C9  UNK     1      25.248  -8.307  38.986  1.00  0.00     0.015 C 
HETATM   12  C10 UNK     1      30.758  -5.894  36.168  1.00  0.00     0.052 C 
HETATM   13  C11 UNK     1      30.175  -5.017  37.017  1.00  0.00     0.018 C 
HETATM   14  C13 UNK     1      30.771  -3.712  37.469  1.00  0.00     0.069 C 
HETATM   15  H12 UNK     1      28.520  -4.636  38.190  1.00  0.00     0.165 HD
ENDROOT
BRANCH   8  16
HETATM   16  C12 UNK     1      29.724  -7.096  34.245  1.00  0.00     0.029 A 
HETATM   17  C15 UNK     1      30.494  -7.955  33.310  1.00  0.00     0.194 A 
HETATM   18  O5  UNK     1      31.371  -8.716  33.697  1.00  0.00    -0.287 OA
HETATM   19  C17 UNK     1      30.146  -7.842  31.881  1.00  0.00     0.048 A 
HETATM   20  C18 UNK     1      29.138  -6.957  31.497  1.00  0.00     0.089 A 
HETATM   21  C19 UNK     1      30.814  -8.607  30.923  1.00  0.00     0.018 A 
HETATM   22  O2  UNK     1      28.450  -6.181  32.396  1.00  0.00    -0.321 OA
HETATM   23  C21 UNK     1      28.791  -6.834  30.151  1.00  0.00     0.038 A 
HETATM   24  C16 UNK     1      28.785  -6.297  33.722  1.00  0.00     0.154 A 
HETATM   25  C23 UNK     1      29.457  -7.598  29.191  1.00  0.00     0.003 A 
HETATM   26  C22 UNK     1      30.465  -8.483  29.577  1.00  0.00     0.001 A 
ENDBRANCH   8  16
BRANCH  12  27
HETATM   27  C14 UNK     1      32.133  -5.699  35.678  1.00  0.00     0.292 C 
HETATM   28  O4  UNK     1      32.419  -4.928  34.781  1.00  0.00    -0.259 OA
BRANCH  27  29
HETATM   29  O3  UNK     1      32.958  -6.504  36.389  1.00  0.00    -0.316 OA
BRANCH  29  30
HETATM   30  C20 UNK     1      33.951  -5.823  37.163  1.00  0.00     0.205 C 
BRANCH  30  31
HETATM   31  C24 UNK     1      35.259  -5.819  36.397  1.00  0.00     0.193 C 
BRANCH  31  32
HETATM   32  O6  UNK     1      35.354  -7.015  35.633  1.00  0.00    -0.394 OA
HETATM   33  C25 UNK     1      36.534  -7.038  34.843  1.00  0.00     0.201 C 
ENDBRANCH  31  32
ENDBRANCH  30  31
ENDBRANCH  29  30
ENDBRANCH  27  29
ENDBRANCH  12  27
TORSDOF 6
ENDMDL
MODEL 5
REMARK VINA RESULT:      -7.7      2.609      6.606
REMARK  6 active torsions:
REMARK  status: ('A' for Active; 'I' for Inactive)
REMARK    1  A    between atoms: C14_21  and  O3_3 
REMARK    2  A    between atoms: C20_27  and  O3_3 
REMARK    3  A    between atoms: C24_31  and  O6_6 
REMARK    4  A    between atoms: C12_19  and  C6_13 
REMARK    5  A    between atoms: C10_17  and  C14_21 
REMARK    6  A    between atoms: C20_27  and  C24_31 
ROOT
HETATM    1  O1  UNK     1      31.144  -5.214  34.008  1.00  0.00    -0.293 OA
HETATM    2  N1  UNK     1      31.281  -8.518  37.398  1.00  0.00    -0.362 N 
HETATM    3  C1  UNK     1      33.782  -5.877  36.406  1.00  0.00    -0.036 C 
HETATM    4  C2  UNK     1      33.333  -7.281  36.859  1.00  0.00     0.067 C 
HETATM    5  C3  UNK     1      33.290  -5.626  34.974  1.00  0.00     0.092 C 
HETATM    6  C4  UNK     1      31.880  -7.574  36.585  1.00  0.00     0.021 C 
HETATM    7  C5  UNK     1      31.160  -6.940  35.636  1.00  0.00     0.024 C 
HETATM    8  C6  UNK     1      29.689  -7.281  35.399  1.00  0.00     0.104 C 
HETATM    9  C7  UNK     1      31.802  -5.865  34.820  1.00  0.00     0.159 C 
HETATM   10  C8  UNK     1      33.236  -4.796  37.361  1.00  0.00     0.015 C 
HETATM   11  C9  UNK     1      35.320  -5.805  36.433  1.00  0.00     0.015 C 
HETATM   12  C10 UNK     1      29.119  -8.188  36.492  1.00  0.00     0.052 C 
HETATM   13  C11 UNK     1      29.921  -8.785  37.405  1.00  0.00     0.018 C 
HETATM   14  C13 UNK     1      29.464  -9.739  38.475  1.00  0.00     0.069 C 
HETATM   15  H12 UNK     1      31.855  -8.974  38.098  1.00  0.00     0.165 HD
ENDROOT
BRANCH   8  16
HETATM   16  C12 UNK     1      29.505  -7.921  34.044  1.00  0.00     0.029 A 
HETATM   17  C15 UNK     1      28.480  -7.358  33.129  1.00  0.00     0.194 A 
HETATM   18  O5  UNK     1      27.786  -6.399  33.438  1.00  0.00    -0.287 OA
HETATM   19  C17 UNK     1      28.340  -8.022  31.819  1.00  0.00     0.048 A 
HETATM   20  C18 UNK     1      29.157  -9.112  31.520  1.00  0.00     0.089 A 
HETATM   21  C19 UNK     1      27.403  -7.569  30.888  1.00  0.00     0.018 A 
HETATM   22  O2  UNK     1      30.094  -9.600  32.398  1.00  0.00    -0.321 OA
HETATM   23  C21 UNK     1      29.042  -9.755  30.288  1.00  0.00     0.038 A 
HETATM   24  C16 UNK     1      30.213  -8.972  33.613  1.00  0.00     0.154 A 
HETATM   25  C23 UNK     1      28.107  -9.305  29.355  1.00  0.00     0.003 A 
HETATM   26  C22 UNK     1      27.290  -8.213  29.655  1.00  0.00     0.001 A 
ENDBRANCH   8  16
BRANCH  12  27
HETATM   27  C14 UNK     1      27.654  -8.333  36.537  1.00  0.00     0.292 C 
HETATM   28  O4  UNK     1      27.078  -9.376  36.294  1.00  0.00    -0.259 OA
BRANCH  27  29
HETATM   29  O3  UNK     1      27.118  -7.138  36.883  1.00  0.00    -0.316 OA
BRANCH  29  30
HETATM   30  C20 UNK     1      26.863  -6.970  38.282  1.00  0.00     0.205 C 
BRANCH  30  31
HETATM   31  C24 UNK     1      27.235  -5.558  38.687  1.00  0.00     0.193 C 
BRANCH  31  32
HETATM   32  O6  UNK     1      28.410  -5.600  39.488  1.00  0.00    -0.394 OA
HETATM   33  C25 UNK     1      29.564  -5.241  38.740  1.00  0.00     0.201 C 
ENDBRANCH  31  32
ENDBRANCH  30  31
ENDBRANCH  29  30
ENDBRANCH  27  29
ENDBRANCH  12  27
TORSDOF 6
ENDMDL
MODEL 6
REMARK VINA RESULT:      -7.7      1.515      2.194
REMARK  6 active torsions:
REMARK  status: ('A' for Active; 'I' for Inactive)
REMARK    1  A    between atoms: C14_21  and  O3_3 
REMARK    2  A    between atoms: C20_27  and  O3_3 
REMARK    3  A    between atoms: C24_31  and  O6_6 
REMARK    4  A    between atoms: C12_19  and  C6_13 
REMARK    5  A    between atoms: C10_17  and  C14_21 
REMARK    6  A    between atoms: C20_27  and  C24_31 
ROOT
HETATM    1  O1  UNK     1      29.463  -5.488  32.569  1.00  0.00    -0.293 OA
HETATM    2  N1  UNK     1      30.818 -10.025  32.662  1.00  0.00    -0.362 N 
HETATM    3  C1  UNK     1      28.489  -8.180  30.342  1.00  0.00    -0.036 C 
HETATM    4  C2  UNK     1      28.953  -9.371  31.205  1.00  0.00     0.067 C 
HETATM    5  C3  UNK     1      28.152  -6.993  31.256  1.00  0.00     0.092 C 
HETATM    6  C4  UNK     1      29.984  -9.007  32.243  1.00  0.00     0.021 C 
HETATM    7  C5  UNK     1      30.140  -7.756  32.728  1.00  0.00     0.024 C 
HETATM    8  C6  UNK     1      31.200  -7.445  33.784  1.00  0.00     0.104 C 
HETATM    9  C7  UNK     1      29.283  -6.650  32.204  1.00  0.00     0.159 C 
HETATM   10  C8  UNK     1      29.581  -7.785  29.327  1.00  0.00     0.015 C 
HETATM   11  C9  UNK     1      27.230  -8.585  29.554  1.00  0.00     0.015 C 
HETATM   12  C10 UNK     1      32.166  -8.613  34.000  1.00  0.00     0.052 C 
HETATM   13  C11 UNK     1      31.925  -9.836  33.474  1.00  0.00     0.018 C 
HETATM   14  C13 UNK     1      32.780 -11.058  33.680  1.00  0.00     0.069 C 
HETATM   15  H12 UNK     1      30.667 -10.950  32.277  1.00  0.00     0.165 HD
ENDROOT
BRANCH   8  16
HETATM   16  C12 UNK     1      30.549  -7.061  35.090  1.00  0.00     0.029 A 
HETATM   17  C15 UNK     1      30.880  -5.741  35.685  1.00  0.00     0.194 A 
HETATM   18  O5  UNK     1      31.659  -4.962  35.152  1.00  0.00    -0.287 OA
HETATM   19  C17 UNK     1      30.219  -5.416  36.963  1.00  0.00     0.048 A 
HETATM   20  C18 UNK     1      29.340  -6.342  37.527  1.00  0.00     0.089 A 
HETATM   21  C19 UNK     1      30.465  -4.200  37.604  1.00  0.00     0.018 A 
HETATM   22  O2  UNK     1      29.062  -7.552  36.941  1.00  0.00    -0.321 OA
HETATM   23  C21 UNK     1      28.703  -6.056  38.734  1.00  0.00     0.038 A 
HETATM   24  C16 UNK     1      29.685  -7.841  35.753  1.00  0.00     0.154 A 
HETATM   25  C23 UNK     1      28.947  -4.841  39.376  1.00  0.00     0.003 A 
HETATM   26  C22 UNK     1      29.826  -3.915  38.811  1.00  0.00     0.001 A 
ENDBRANCH   8  16
BRANCH  12  27
HETATM   27  C14 UNK     1      33.395  -8.325  34.759  1.00  0.00     0.292 C 
HETATM   28  O4  UNK     1      33.483  -8.458  35.964  1.00  0.00    -0.259 OA
BRANCH  27  29
HETATM   29  O3  UNK     1      34.345  -7.908  33.888  1.00  0.00    -0.316 OA
BRANCH  29  30
HETATM   30  C20 UNK     1      35.324  -7.020  34.437  1.00  0.00     0.205 C 
BRANCH  30  31
HETATM   31  C24 UNK     1      34.968  -5.596  34.059  1.00  0.00     0.193 C 
BRANCH  31  32
HETATM   32  O6  UNK     1      34.961  -4.791  35.231  1.00  0.00    -0.394 OA
HETATM   33  C25 UNK     1      35.301  -5.547  36.385  1.00  0.00     0.201 C 
ENDBRANCH  31  32
ENDBRANCH  30  31
ENDBRANCH  29  30
ENDBRANCH  27  29
ENDBRANCH  12  27
TORSDOF 6
ENDMDL
MODEL 7
REMARK VINA RESULT:      -7.6      1.871      2.779
REMARK  6 active torsions:
REMARK  status: ('A' for Active; 'I' for Inactive)
REMARK    1  A    between atoms: C14_21  and  O3_3 
REMARK    2  A    between atoms: C20_27  and  O3_3 
REMARK    3  A    between atoms: C24_31  and  O6_6 
REMARK    4  A    between atoms: C12_19  and  C6_13 
REMARK    5  A    between atoms: C10_17  and  C14_21 
REMARK    6  A    between atoms: C20_27  and  C24_31 
ROOT
HETATM    1  O1  UNK     1      28.279  -6.588  32.879  1.00  0.00    -0.293 OA
HETATM    2  N1  UNK     1      31.815  -9.639  32.098  1.00  0.00    -0.362 N 
HETATM    3  C1  UNK     1      28.810  -8.738  30.007  1.00  0.00    -0.036 C 
HETATM    4  C2  UNK     1      29.850  -9.694  30.626  1.00  0.00     0.067 C 
HETATM    5  C3  UNK     1      27.922  -8.167  31.122  1.00  0.00     0.092 C 
HETATM    6  C4  UNK     1      30.560  -9.126  31.829  1.00  0.00     0.021 C 
HETATM    7  C5  UNK     1      30.049  -8.142  32.598  1.00  0.00     0.024 C 
HETATM    8  C6  UNK     1      30.812  -7.607  33.809  1.00  0.00     0.104 C 
HETATM    9  C7  UNK     1      28.726  -7.543  32.244  1.00  0.00     0.159 C 
HETATM   10  C8  UNK     1      29.508  -7.599  29.237  1.00  0.00     0.015 C 
HETATM   11  C9  UNK     1      27.933  -9.520  29.012  1.00  0.00     0.015 C 
HETATM   12  C10 UNK     1      32.252  -8.124  33.863  1.00  0.00     0.052 C 
HETATM   13  C11 UNK     1      32.677  -9.119  33.051  1.00  0.00     0.018 C 
HETATM   14  C13 UNK     1      34.050  -9.735  33.071  1.00  0.00     0.069 C 
HETATM   15  H12 UNK     1      32.163 -10.379  31.500  1.00  0.00     0.165 HD
ENDROOT
BRANCH   8  16
HETATM   16  C12 UNK     1      30.087  -7.954  35.086  1.00  0.00     0.029 A 
HETATM   17  C15 UNK     1      29.802  -6.866  36.056  1.00  0.00     0.194 A 
HETATM   18  O5  UNK     1      30.134  -5.706  35.851  1.00  0.00    -0.287 OA
HETATM   19  C17 UNK     1      29.094  -7.259  37.289  1.00  0.00     0.048 A 
HETATM   20  C18 UNK     1      28.739  -8.596  37.471  1.00  0.00     0.089 A 
HETATM   21  C19 UNK     1      28.780  -6.309  38.264  1.00  0.00     0.018 A 
HETATM   22  O2  UNK     1      29.022  -9.570  36.546  1.00  0.00    -0.321 OA
HETATM   23  C21 UNK     1      28.068  -8.990  38.628  1.00  0.00     0.038 A 
HETATM   24  C16 UNK     1      29.682  -9.190  35.404  1.00  0.00     0.154 A 
HETATM   25  C23 UNK     1      27.754  -8.043  39.604  1.00  0.00     0.003 A 
HETATM   26  C22 UNK     1      28.109  -6.706  39.422  1.00  0.00     0.001 A 
ENDBRANCH   8  16
BRANCH  12  27
HETATM   27  C14 UNK     1      33.164  -7.447  34.800  1.00  0.00     0.292 C 
HETATM   28  O4  UNK     1      33.485  -7.915  35.876  1.00  0.00    -0.259 OA
BRANCH  27  29
HETATM   29  O3  UNK     1      33.546  -6.270  34.248  1.00  0.00    -0.316 OA
BRANCH  29  30
HETATM   30  C20 UNK     1      34.951  -6.003  34.301  1.00  0.00     0.205 C 
BRANCH  30  31
HETATM   31  C24 UNK     1      35.570  -6.338  32.958  1.00  0.00     0.193 C 
BRANCH  31  32
HETATM   32  O6  UNK     1      36.775  -7.063  33.170  1.00  0.00    -0.394 OA
HETATM   33  C25 UNK     1      36.981  -7.342  34.548  1.00  0.00     0.201 C 
ENDBRANCH  31  32
ENDBRANCH  30  31
ENDBRANCH  29  30
ENDBRANCH  27  29
ENDBRANCH  12  27
TORSDOF 6
ENDMDL
MODEL 8
REMARK VINA RESULT:      -7.5      2.035      6.656
REMARK  6 active torsions:
REMARK  status: ('A' for Active; 'I' for Inactive)
REMARK    1  A    between atoms: C14_21  and  O3_3 
REMARK    2  A    between atoms: C20_27  and  O3_3 
REMARK    3  A    between atoms: C24_31  and  O6_6 
REMARK    4  A    between atoms: C12_19  and  C6_13 
REMARK    5  A    between atoms: C10_17  and  C14_21 
REMARK    6  A    between atoms: C20_27  and  C24_31 
ROOT
HETATM    1  O1  UNK     1      31.886  -5.529  37.168  1.00  0.00    -0.293 OA
HETATM    2  N1  UNK     1      28.104  -6.884  34.661  1.00  0.00    -0.362 N 
HETATM    3  C1  UNK     1      28.607  -6.496  38.378  1.00  0.00    -0.036 C 
HETATM    4  C2  UNK     1      28.084  -7.182  37.099  1.00  0.00     0.067 C 
HETATM    5  C3  UNK     1      30.139  -6.586  38.409  1.00  0.00     0.092 C 
HETATM    6  C4  UNK     1      28.808  -6.765  35.844  1.00  0.00     0.021 C 
HETATM    7  C5  UNK     1      30.061  -6.261  35.842  1.00  0.00     0.024 C 
HETATM    8  C6  UNK     1      30.749  -5.860  34.538  1.00  0.00     0.104 C 
HETATM    9  C7  UNK     1      30.778  -6.065  37.138  1.00  0.00     0.159 C 
HETATM   10  C8  UNK     1      28.152  -5.023  38.432  1.00  0.00     0.015 C 
HETATM   11  C9  UNK     1      28.032  -7.218  39.610  1.00  0.00     0.015 C 
HETATM   12  C10 UNK     1      29.786  -5.860  33.348  1.00  0.00     0.052 C 
HETATM   13  C11 UNK     1      28.545  -6.391  33.443  1.00  0.00     0.018 C 
HETATM   14  C13 UNK     1      27.551  -6.493  32.318  1.00  0.00     0.069 C 
HETATM   15  H12 UNK     1      27.167  -7.268  34.704  1.00  0.00     0.165 HD
ENDROOT
BRANCH   8  16
HETATM   16  C12 UNK     1      31.922  -6.767  34.257  1.00  0.00     0.029 A 
HETATM   17  C15 UNK     1      33.275  -6.164  34.153  1.00  0.00     0.194 A 
HETATM   18  O5  UNK     1      33.465  -4.962  34.288  1.00  0.00    -0.287 OA
HETATM   19  C17 UNK     1      34.385  -7.094  33.875  1.00  0.00     0.048 A 
HETATM   20  C18 UNK     1      34.111  -8.454  33.730  1.00  0.00     0.089 A 
HETATM   21  C19 UNK     1      35.695  -6.624  33.758  1.00  0.00     0.018 A 
HETATM   22  O2  UNK     1      32.842  -8.970  33.835  1.00  0.00    -0.321 OA
HETATM   23  C21 UNK     1      35.145  -9.352  33.468  1.00  0.00     0.038 A 
HETATM   24  C16 UNK     1      31.819  -8.092  34.093  1.00  0.00     0.154 A 
HETATM   25  C23 UNK     1      36.455  -8.886  33.350  1.00  0.00     0.003 A 
HETATM   26  C22 UNK     1      36.729  -7.525  33.496  1.00  0.00     0.001 A 
ENDBRANCH   8  16
BRANCH  12  27
HETATM   27  C14 UNK     1      30.254  -5.204  32.116  1.00  0.00     0.292 C 
HETATM   28  O4  UNK     1      30.068  -4.027  31.874  1.00  0.00    -0.259 OA
BRANCH  27  29
HETATM   29  O3  UNK     1      30.895  -6.126  31.358  1.00  0.00    -0.316 OA
BRANCH  29  30
HETATM   30  C20 UNK     1      30.413  -6.250  30.016  1.00  0.00     0.205 C 
BRANCH  30  31
HETATM   31  C24 UNK     1      30.070  -7.701  29.745  1.00  0.00     0.193 C 
BRANCH  31  32
HETATM   32  O6  UNK     1      30.439  -8.484  30.873  1.00  0.00    -0.394 OA
HETATM   33  C25 UNK     1      29.460  -9.472  31.165  1.00  0.00     0.201 C 
ENDBRANCH  31  32
ENDBRANCH  30  31
ENDBRANCH  29  30
ENDBRANCH  27  29
ENDBRANCH  12  27
TORSDOF 6
ENDMDL
MODEL 9
REMARK VINA RESULT:      -7.3      2.092      5.179
REMARK  6 active torsions:
REMARK  status: ('A' for Active; 'I' for Inactive)
REMARK    1  A    between atoms: C14_21  and  O3_3 
REMARK    2  A    between atoms: C20_27  and  O3_3 
REMARK    3  A    between atoms: C24_31  and  O6_6 
REMARK    4  A    between atoms: C12_19  and  C6_13 
REMARK    5  A    between atoms: C10_17  and  C14_21 
REMARK    6  A    between atoms: C20_27  and  C24_31 
ROOT
HETATM    1  O1  UNK     1      33.566  -7.218  30.806  1.00  0.00    -0.293 OA
HETATM    2  N1  UNK     1      33.570  -9.139  35.135  1.00  0.00    -0.362 N 
HETATM    3  C1  UNK     1      35.945  -9.552  32.235  1.00  0.00    -0.036 C 
HETATM    4  C2  UNK     1      35.103 -10.031  33.436  1.00  0.00     0.067 C 
HETATM    5  C3  UNK     1      35.006  -9.100  31.108  1.00  0.00     0.092 C 
HETATM    6  C4  UNK     1      33.996  -9.083  33.821  1.00  0.00     0.021 C 
HETATM    7  C5  UNK     1      33.456  -8.186  32.969  1.00  0.00     0.024 C 
HETATM    8  C6  UNK     1      32.331  -7.252  33.413  1.00  0.00     0.104 C 
HETATM    9  C7  UNK     1      33.984  -8.084  31.575  1.00  0.00     0.159 C 
HETATM   10  C8  UNK     1      36.882  -8.399  32.652  1.00  0.00     0.015 C 
HETATM   11  C9  UNK     1      36.817 -10.717  31.732  1.00  0.00     0.015 C 
HETATM   12  C10 UNK     1      32.106  -7.292  34.926  1.00  0.00     0.052 C 
HETATM   13  C11 UNK     1      32.691  -8.232  35.704  1.00  0.00     0.018 C 
HETATM   14  C13 UNK     1      32.484  -8.390  37.186  1.00  0.00     0.069 C 
HETATM   15  H12 UNK     1      33.999  -9.827  35.743  1.00  0.00     0.165 HD
ENDROOT
BRANCH   8  16
HETATM   16  C12 UNK     1      31.049  -7.585  32.688  1.00  0.00     0.029 A 
HETATM   17  C15 UNK     1      30.299  -6.482  32.034  1.00  0.00     0.194 A 
HETATM   18  O5  UNK     1      30.687  -5.322  32.065  1.00  0.00    -0.287 OA
HETATM   19  C17 UNK     1      29.053  -6.861  31.342  1.00  0.00     0.048 A 
HETATM   20  C18 UNK     1      28.658  -8.199  31.339  1.00  0.00     0.089 A 
HETATM   21  C19 UNK     1      28.275  -5.897  30.697  1.00  0.00     0.018 A 
HETATM   22  O2  UNK     1      29.384  -9.188  31.957  1.00  0.00    -0.321 OA
HETATM   23  C21 UNK     1      27.484  -8.581  30.691  1.00  0.00     0.038 A 
HETATM   24  C16 UNK     1      30.541  -8.820  32.598  1.00  0.00     0.154 A 
HETATM   25  C23 UNK     1      26.704  -7.619  30.046  1.00  0.00     0.003 A 
HETATM   26  C22 UNK     1      27.100  -6.281  30.048  1.00  0.00     0.001 A 
ENDBRANCH   8  16
BRANCH  12  27
HETATM   27  C14 UNK     1      31.269  -6.224  35.500  1.00  0.00     0.292 C 
HETATM   28  O4  UNK     1      30.263  -6.439  36.148  1.00  0.00    -0.259 OA
BRANCH  27  29
HETATM   29  O3  UNK     1      31.821  -5.030  35.177  1.00  0.00    -0.316 OA
BRANCH  29  30
HETATM   30  C20 UNK     1      32.812  -4.551  36.093  1.00  0.00     0.205 C 
BRANCH  30  31
HETATM   31  C24 UNK     1      34.003  -4.037  35.309  1.00  0.00     0.193 C 
BRANCH  31  32
HETATM   32  O6  UNK     1      34.903  -5.113  35.073  1.00  0.00    -0.394 OA
HETATM   33  C25 UNK     1      35.318  -5.723  36.287  1.00  0.00     0.201 C 
ENDBRANCH  31  32
ENDBRANCH  30  31
ENDBRANCH  29  30
ENDBRANCH  27  29
ENDBRANCH  12  27
TORSDOF 6
ENDMDL
MODEL 10
REMARK VINA RESULT:      -7.3      2.892      6.667
REMARK  6 active torsions:
REMARK  status: ('A' for Active; 'I' for Inactive)
REMARK    1  A    between atoms: C14_21  and  O3_3 
REMARK    2  A    between atoms: C20_27  and  O3_3 
REMARK    3  A    between atoms: C24_31  and  O6_6 
REMARK    4  A    between atoms: C12_19  and  C6_13 
REMARK    5  A    between atoms: C10_17  and  C14_21 
REMARK    6  A    between atoms: C20_27  and  C24_31 
ROOT
HETATM    1  O1  UNK     1      30.529  -5.158  33.049  1.00  0.00    -0.293 OA
HETATM    2  N1  UNK     1      31.521  -7.933  36.756  1.00  0.00    -0.362 N 
HETATM    3  C1  UNK     1      33.212  -4.820  35.465  1.00  0.00    -0.036 C 
HETATM    4  C2  UNK     1      33.160  -6.240  36.064  1.00  0.00     0.067 C 
HETATM    5  C3  UNK     1      32.690  -4.861  34.021  1.00  0.00     0.092 C 
HETATM    6  C4  UNK     1      31.848  -6.948  35.843  1.00  0.00     0.021 C 
HETATM    7  C5  UNK     1      30.995  -6.637  34.843  1.00  0.00     0.024 C 
HETATM    8  C6  UNK     1      29.679  -7.393  34.663  1.00  0.00     0.104 C 
HETATM    9  C7  UNK     1      31.328  -5.516  33.913  1.00  0.00     0.159 C 
HETATM   10  C8  UNK     1      32.375  -3.840  36.312  1.00  0.00     0.015 C 
HETATM   11  C9  UNK     1      34.669  -4.324  35.462  1.00  0.00     0.015 C 
HETATM   12  C10 UNK     1      29.366  -8.306  35.851  1.00  0.00     0.052 C 
HETATM   13  C11 UNK     1      30.287  -8.563  36.808  1.00  0.00     0.018 C 
HETATM   14  C13 UNK     1      30.095  -9.490  37.977  1.00  0.00     0.069 C 
HETATM   15  H12 UNK     1      32.188  -8.139  37.490  1.00  0.00     0.165 HD
ENDROOT
BRANCH   8  16
HETATM   16  C12 UNK     1      29.699  -8.193  33.384  1.00  0.00     0.029 A 
HETATM   17  C15 UNK     1      28.622  -7.962  32.387  1.00  0.00     0.194 A 
HETATM   18  O5  UNK     1      27.727  -7.149  32.572  1.00  0.00    -0.287 OA
HETATM   19  C17 UNK     1      28.687  -8.772  31.156  1.00  0.00     0.048 A 
HETATM   20  C18 UNK     1      29.730  -9.685  30.999  1.00  0.00     0.089 A 
HETATM   21  C19 UNK     1      27.720  -8.630  30.158  1.00  0.00     0.018 A 
HETATM   22  O2  UNK     1      30.707  -9.865  31.947  1.00  0.00    -0.321 OA
HETATM   23  C21 UNK     1      29.813 -10.460  29.842  1.00  0.00     0.038 A 
HETATM   24  C16 UNK     1      30.633  -9.105  33.088  1.00  0.00     0.154 A 
HETATM   25  C23 UNK     1      28.847 -10.321  28.844  1.00  0.00     0.003 A 
HETATM   26  C22 UNK     1      27.804  -9.406  29.002  1.00  0.00     0.001 A 
ENDBRANCH   8  16
BRANCH  12  27
HETATM   27  C14 UNK     1      27.997  -8.843  35.931  1.00  0.00     0.292 C 
HETATM   28  O4  UNK     1      27.727 -10.014  35.740  1.00  0.00    -0.259 OA
BRANCH  27  29
HETATM   29  O3  UNK     1      27.157  -7.827  36.242  1.00  0.00    -0.316 OA
BRANCH  29  30
HETATM   30  C20 UNK     1      27.226  -7.378  37.599  1.00  0.00     0.205 C 
BRANCH  30  31
HETATM   31  C24 UNK     1      26.286  -8.213  38.446  1.00  0.00     0.193 C 
BRANCH  31  32
HETATM   32  O6  UNK     1      27.001  -8.729  39.562  1.00  0.00    -0.394 OA
HETATM   33  C25 UNK     1      27.006 -10.150  39.566  1.00  0.00     0.201 C 
ENDBRANCH  31  32
ENDBRANCH  30  31
ENDBRANCH  29  30
ENDBRANCH  27  29
ENDBRANCH  12  27
TORSDOF 6
ENDMDL
