MODEL 1
REMARK VINA RESULT:      -7.2      0.000      0.000
REMARK  8 active torsions:
REMARK  status: ('A' for Active; 'I' for Inactive)
REMARK    1  A    between atoms: C2_9  and  O1_2 
REMARK    2  A    between atoms: C3_10  and  O1_2 
REMARK    3  A    between atoms: C10_17  and  O2_3 
REMARK    4  A    between atoms: C4_11  and  O2_3 
REMARK    5  A    between atoms: C20_27  and  N1_6 
REMARK    6  A    between atoms: C1_8  and  C5_12 
REMARK    7  A    between atoms: C3_10  and  C4_11 
REMARK    8  A    between atoms: C6_13  and  C7_14 
ROOT
HETATM    1  N2  UNK     1      31.383  -9.971  35.919  1.00  0.00    -0.191 NA
HETATM    2  C5  UNK     1      28.324  -8.625  35.070  1.00  0.00     0.038 C 
HETATM    3  C7  UNK     1      29.368  -9.234  34.448  1.00  0.00     0.055 C 
HETATM    4  C24 UNK     1      30.479  -9.639  35.271  1.00  0.00     0.100 C 
ENDROOT
BRANCH   3   5
HETATM    5  C6  UNK     1      29.418  -9.501  33.020  1.00  0.00    -0.015 A 
HETATM    6  C14 UNK     1      28.513  -8.877  32.161  1.00  0.00     0.015 A 
HETATM    7  C21 UNK     1      28.563  -9.132  30.791  1.00  0.00     0.037 A 
HETATM    8  C20 UNK     1      29.519 -10.010  30.278  1.00  0.00     0.102 A 
HETATM    9  C22 UNK     1      30.425 -10.633  31.137  1.00  0.00     0.037 A 
HETATM   10  C15 UNK     1      30.374 -10.377  32.508  1.00  0.00     0.015 A 
BRANCH   8  11
HETATM   11  N1  UNK     1      29.571 -10.269  28.884  1.00  0.00    -0.116 N 
HETATM   12  O3  UNK     1      28.534 -10.107  28.196  1.00  0.00    -0.532 OA
HETATM   13  O4  UNK     1      30.652 -10.655  28.377  1.00  0.00    -0.532 OA
ENDBRANCH   8  11
ENDBRANCH   3   5
BRANCH   2  14
HETATM   14  C1  UNK     1      28.230  -8.342  36.510  1.00  0.00     0.000 A 
HETATM   15  C2  UNK     1      28.688  -7.137  37.022  1.00  0.00     0.079 A 
HETATM   16  C9  UNK     1      28.590  -6.890  38.392  1.00  0.00     0.039 A 
HETATM   17  C12 UNK     1      28.036  -7.852  39.235  1.00  0.00     0.026 A 
HETATM   18  C11 UNK     1      27.578  -9.060  38.710  1.00  0.00     0.035 A 
HETATM   19 Cl1  UNK     1      26.896 -10.246  39.753  1.00  0.00    -0.084 Cl
HETATM   20  C8  UNK     1      27.675  -9.306  37.340  1.00  0.00     0.038 A 
BRANCH  15  21
HETATM   21  O1  UNK     1      29.236  -6.180  36.220  1.00  0.00    -0.348 OA
BRANCH  21  22
HETATM   22  C3  UNK     1      30.625  -5.910  36.390  1.00  0.00     0.202 C 
BRANCH  22  23
HETATM   23  C4  UNK     1      31.312  -5.982  35.040  1.00  0.00     0.202 C 
BRANCH  23  24
HETATM   24  O2  UNK     1      30.394  -5.580  34.031  1.00  0.00    -0.349 OA
BRANCH  24  25
HETATM   25  C10 UNK     1      30.677  -5.973  32.748  1.00  0.00     0.068 A 
HETATM   26  C16 UNK     1      29.914  -5.483  31.695  1.00  0.00     0.037 A 
HETATM   27  C18 UNK     1      30.201  -5.883  30.389  1.00  0.00     0.009 A 
HETATM   28  C13 UNK     1      31.249  -6.771  30.147  1.00  0.00    -0.062 A 
HETATM   29  C19 UNK     1      32.011  -7.258  31.209  1.00  0.00     0.009 A 
HETATM   30  C23 UNK     1      31.556  -7.198  28.752  1.00  0.00     0.048 C 
HETATM   31  C17 UNK     1      31.724  -6.858  32.514  1.00  0.00     0.037 A 
ENDBRANCH  24  25
ENDBRANCH  23  24
ENDBRANCH  22  23
ENDBRANCH  21  22
ENDBRANCH  15  21
ENDBRANCH   2  14
TORSDOF 8
ENDMDL
MODEL 2
REMARK VINA RESULT:      -7.2      4.283      7.450
REMARK  8 active torsions:
REMARK  status: ('A' for Active; 'I' for Inactive)
REMARK    1  A    between atoms: C2_9  and  O1_2 
REMARK    2  A    between atoms: C3_10  and  O1_2 
REMARK    3  A    between atoms: C10_17  and  O2_3 
REMARK    4  A    between atoms: C4_11  and  O2_3 
REMARK    5  A    between atoms: C20_27  and  N1_6 
REMARK    6  A    between atoms: C1_8  and  C5_12 
REMARK    7  A    between atoms: C3_10  and  C4_11 
REMARK    8  A    between atoms: C6_13  and  C7_14 
ROOT
HETATM    1  N2  UNK     1      32.322 -10.641  34.307  1.00  0.00    -0.191 NA
HETATM    2  C5  UNK     1      32.180  -7.200  34.129  1.00  0.00     0.038 C 
HETATM    3  C7  UNK     1      31.556  -8.205  34.799  1.00  0.00     0.055 C 
HETATM    4  C24 UNK     1      31.987  -9.551  34.520  1.00  0.00     0.100 C 
ENDROOT
BRANCH   3   5
HETATM    5  C6  UNK     1      30.498  -7.994  35.774  1.00  0.00    -0.015 A 
HETATM    6  C14 UNK     1      29.479  -7.078  35.512  1.00  0.00     0.015 A 
HETATM    7  C21 UNK     1      28.464  -6.879  36.448  1.00  0.00     0.037 A 
HETATM    8  C20 UNK     1      28.466  -7.595  37.644  1.00  0.00     0.102 A 
HETATM    9  C22 UNK     1      29.485  -8.512  37.906  1.00  0.00     0.037 A 
HETATM   10  C15 UNK     1      30.500  -8.711  36.971  1.00  0.00     0.015 A 
BRANCH   8  11
HETATM   11  N1  UNK     1      27.432  -7.393  38.596  1.00  0.00    -0.116 N 
HETATM   12  O3  UNK     1      27.468  -8.028  39.677  1.00  0.00    -0.532 OA
HETATM   13  O4  UNK     1      26.510  -6.585  38.329  1.00  0.00    -0.532 OA
ENDBRANCH   8  11
ENDBRANCH   3   5
BRANCH   2  14
HETATM   14  C1  UNK     1      33.257  -7.368  33.141  1.00  0.00     0.000 A 
HETATM   15  C2  UNK     1      34.574  -7.510  33.553  1.00  0.00     0.079 A 
HETATM   16  C9  UNK     1      35.579  -7.666  32.599  1.00  0.00     0.039 A 
HETATM   17  C12 UNK     1      35.257  -7.679  31.243  1.00  0.00     0.026 A 
HETATM   18  C11 UNK     1      33.930  -7.536  30.839  1.00  0.00     0.035 A 
HETATM   19 Cl1  UNK     1      33.535  -7.550  29.165  1.00  0.00    -0.084 Cl
HETATM   20  C8  UNK     1      32.924  -7.380  31.794  1.00  0.00     0.038 A 
BRANCH  15  21
HETATM   21  O1  UNK     1      34.917  -7.500  34.873  1.00  0.00    -0.348 OA
BRANCH  21  22
HETATM   22  C3  UNK     1      35.845  -6.503  35.293  1.00  0.00     0.202 C 
BRANCH  22  23
HETATM   23  C4  UNK     1      35.227  -5.694  36.417  1.00  0.00     0.202 C 
BRANCH  23  24
HETATM   24  O2  UNK     1      34.141  -4.935  35.900  1.00  0.00    -0.349 OA
BRANCH  24  25
HETATM   25  C10 UNK     1      33.024  -4.839  36.689  1.00  0.00     0.068 A 
HETATM   26  C16 UNK     1      32.889  -5.674  37.792  1.00  0.00     0.037 A 
HETATM   27  C18 UNK     1      31.752  -5.577  38.596  1.00  0.00     0.009 A 
HETATM   28  C13 UNK     1      30.759  -4.647  38.290  1.00  0.00    -0.062 A 
HETATM   29  C19 UNK     1      30.902  -3.813  37.180  1.00  0.00     0.009 A 
HETATM   30  C23 UNK     1      29.544  -4.544  39.148  1.00  0.00     0.048 C 
HETATM   31  C17 UNK     1      32.038  -3.909  36.377  1.00  0.00     0.037 A 
ENDBRANCH  24  25
ENDBRANCH  23  24
ENDBRANCH  22  23
ENDBRANCH  21  22
ENDBRANCH  15  21
ENDBRANCH   2  14
TORSDOF 8
ENDMDL
MODEL 3
REMARK VINA RESULT:      -7.1      2.700      4.998
REMARK  8 active torsions:
REMARK  status: ('A' for Active; 'I' for Inactive)
REMARK    1  A    between atoms: C2_9  and  O1_2 
REMARK    2  A    between atoms: C3_10  and  O1_2 
REMARK    3  A    between atoms: C10_17  and  O2_3 
REMARK    4  A    between atoms: C4_11  and  O2_3 
REMARK    5  A    between atoms: C20_27  and  N1_6 
REMARK    6  A    between atoms: C1_8  and  C5_12 
REMARK    7  A    between atoms: C3_10  and  C4_11 
REMARK    8  A    between atoms: C6_13  and  C7_14 
ROOT
HETATM    1  N2  UNK     1      29.936  -3.803  32.115  1.00  0.00    -0.191 NA
HETATM    2  C5  UNK     1      30.810  -6.761  33.658  1.00  0.00     0.038 C 
HETATM    3  C7  UNK     1      30.399  -6.342  32.431  1.00  0.00     0.055 C 
HETATM    4  C24 UNK     1      30.145  -4.934  32.266  1.00  0.00     0.100 C 
ENDROOT
BRANCH   3   5
HETATM    5  C6  UNK     1      30.213  -7.228  31.293  1.00  0.00    -0.015 A 
HETATM    6  C14 UNK     1      30.981  -7.056  30.141  1.00  0.00     0.015 A 
HETATM    7  C21 UNK     1      30.803  -7.909  29.051  1.00  0.00     0.037 A 
HETATM    8  C20 UNK     1      29.859  -8.933  29.113  1.00  0.00     0.102 A 
HETATM    9  C22 UNK     1      29.092  -9.106  30.265  1.00  0.00     0.037 A 
HETATM   10  C15 UNK     1      29.270  -8.253  31.355  1.00  0.00     0.015 A 
BRANCH   8  11
HETATM   11  N1  UNK     1      29.678  -9.801  28.004  1.00  0.00    -0.116 N 
HETATM   12  O3  UNK     1      30.639  -9.997  27.222  1.00  0.00    -0.532 OA
HETATM   13  O4  UNK     1      28.561 -10.347  27.836  1.00  0.00    -0.532 OA
ENDBRANCH   8  11
ENDBRANCH   3   5
BRANCH   2  14
HETATM   14  C1  UNK     1      31.016  -5.900  34.832  1.00  0.00     0.000 A 
HETATM   15  C2  UNK     1      32.167  -5.134  34.950  1.00  0.00     0.079 A 
HETATM   16  C9  UNK     1      32.343  -4.326  36.074  1.00  0.00     0.039 A 
HETATM   17  C12 UNK     1      31.366  -4.293  37.068  1.00  0.00     0.026 A 
HETATM   18  C11 UNK     1      30.212  -5.066  36.939  1.00  0.00     0.035 A 
HETATM   19 Cl1  UNK     1      29.009  -5.024  38.168  1.00  0.00    -0.084 Cl
HETATM   20  C8  UNK     1      30.037  -5.874  35.815  1.00  0.00     0.038 A 
BRANCH  15  21
HETATM   21  O1  UNK     1      33.139  -5.150  33.994  1.00  0.00    -0.348 OA
BRANCH  21  22
HETATM   22  C3  UNK     1      34.472  -5.408  34.429  1.00  0.00     0.202 C 
BRANCH  22  23
HETATM   23  C4  UNK     1      34.666  -6.907  34.561  1.00  0.00     0.202 C 
BRANCH  23  24
HETATM   24  O2  UNK     1      34.761  -7.241  35.941  1.00  0.00    -0.349 OA
BRANCH  24  25
HETATM   25  C10 UNK     1      33.650  -7.803  36.516  1.00  0.00     0.068 A 
HETATM   26  C16 UNK     1      32.928  -8.765  35.820  1.00  0.00     0.037 A 
HETATM   27  C18 UNK     1      31.797  -9.337  36.404  1.00  0.00     0.009 A 
HETATM   28  C13 UNK     1      31.396  -8.940  37.680  1.00  0.00    -0.062 A 
HETATM   29  C19 UNK     1      32.126  -7.974  38.373  1.00  0.00     0.009 A 
HETATM   30  C23 UNK     1      30.188  -9.551  38.305  1.00  0.00     0.048 C 
HETATM   31  C17 UNK     1      33.257  -7.403  37.789  1.00  0.00     0.037 A 
ENDBRANCH  24  25
ENDBRANCH  23  24
ENDBRANCH  22  23
ENDBRANCH  21  22
ENDBRANCH  15  21
ENDBRANCH   2  14
TORSDOF 8
ENDMDL
MODEL 4
REMARK VINA RESULT:      -7.1      3.618      7.609
REMARK  8 active torsions:
REMARK  status: ('A' for Active; 'I' for Inactive)
REMARK    1  A    between atoms: C2_9  and  O1_2 
REMARK    2  A    between atoms: C3_10  and  O1_2 
REMARK    3  A    between atoms: C10_17  and  O2_3 
REMARK    4  A    between atoms: C4_11  and  O2_3 
REMARK    5  A    between atoms: C20_27  and  N1_6 
REMARK    6  A    between atoms: C1_8  and  C5_12 
REMARK    7  A    between atoms: C3_10  and  C4_11 
REMARK    8  A    between atoms: C6_13  and  C7_14 
ROOT
HETATM    1  N2  UNK     1      29.855  -4.614  31.016  1.00  0.00    -0.191 NA
HETATM    2  C5  UNK     1      30.813  -7.630  32.387  1.00  0.00     0.038 C 
HETATM    3  C7  UNK     1      30.564  -6.361  32.807  1.00  0.00     0.055 C 
HETATM    4  C24 UNK     1      30.172  -5.401  31.808  1.00  0.00     0.100 C 
ENDROOT
BRANCH   3   5
HETATM    5  C6  UNK     1      30.665  -5.932  34.193  1.00  0.00    -0.015 A 
HETATM    6  C14 UNK     1      31.724  -5.121  34.598  1.00  0.00     0.015 A 
HETATM    7  C21 UNK     1      31.818  -4.708  35.927  1.00  0.00     0.037 A 
HETATM    8  C20 UNK     1      30.852  -5.106  36.851  1.00  0.00     0.102 A 
HETATM    9  C22 UNK     1      29.792  -5.917  36.446  1.00  0.00     0.037 A 
HETATM   10  C15 UNK     1      29.699  -6.330  35.117  1.00  0.00     0.015 A 
BRANCH   8  11
HETATM   11  N1  UNK     1      30.947  -4.686  38.204  1.00  0.00    -0.116 N 
HETATM   12  O3  UNK     1      29.932  -4.207  38.764  1.00  0.00    -0.532 OA
HETATM   13  O4  UNK     1      32.044  -4.803  38.801  1.00  0.00    -0.532 OA
ENDBRANCH   8  11
ENDBRANCH   3   5
BRANCH   2  14
HETATM   14  C1  UNK     1      30.717  -8.108  30.999  1.00  0.00     0.000 A 
HETATM   15  C2  UNK     1      31.822  -8.064  30.162  1.00  0.00     0.079 A 
HETATM   16  C9  UNK     1      31.708  -8.520  28.848  1.00  0.00     0.039 A 
HETATM   17  C12 UNK     1      30.490  -9.017  28.387  1.00  0.00     0.026 A 
HETATM   18  C11 UNK     1      29.385  -9.057  29.237  1.00  0.00     0.035 A 
HETATM   19 Cl1  UNK     1      27.882  -9.668  28.664  1.00  0.00    -0.084 Cl
HETATM   20  C8  UNK     1      29.499  -8.600  30.550  1.00  0.00     0.038 A 
BRANCH  15  21
HETATM   21  O1  UNK     1      33.024  -7.582  30.587  1.00  0.00    -0.348 OA
BRANCH  21  22
HETATM   22  C3  UNK     1      34.121  -8.493  30.598  1.00  0.00     0.202 C 
BRANCH  22  23
HETATM   23  C4  UNK     1      34.164  -9.200  31.939  1.00  0.00     0.202 C 
BRANCH  23  24
HETATM   24  O2  UNK     1      34.715  -8.319  32.910  1.00  0.00    -0.349 OA
BRANCH  24  25
HETATM   25  C10 UNK     1      34.117  -8.307  34.142  1.00  0.00     0.068 A 
HETATM   26  C16 UNK     1      34.599  -7.460  35.133  1.00  0.00     0.037 A 
HETATM   27  C18 UNK     1      33.991  -7.448  36.389  1.00  0.00     0.009 A 
HETATM   28  C13 UNK     1      32.905  -8.285  36.645  1.00  0.00    -0.062 A 
HETATM   29  C19 UNK     1      32.425  -9.133  35.645  1.00  0.00     0.009 A 
HETATM   30  C23 UNK     1      32.254  -8.273  37.986  1.00  0.00     0.048 C 
HETATM   31  C17 UNK     1      33.033  -9.144  34.390  1.00  0.00     0.037 A 
ENDBRANCH  24  25
ENDBRANCH  23  24
ENDBRANCH  22  23
ENDBRANCH  21  22
ENDBRANCH  15  21
ENDBRANCH   2  14
TORSDOF 8
ENDMDL
MODEL 5
REMARK VINA RESULT:      -7.1      3.350      4.600
REMARK  8 active torsions:
REMARK  status: ('A' for Active; 'I' for Inactive)
REMARK    1  A    between atoms: C2_9  and  O1_2 
REMARK    2  A    between atoms: C3_10  and  O1_2 
REMARK    3  A    between atoms: C10_17  and  O2_3 
REMARK    4  A    between atoms: C4_11  and  O2_3 
REMARK    5  A    between atoms: C20_27  and  N1_6 
REMARK    6  A    between atoms: C1_8  and  C5_12 
REMARK    7  A    between atoms: C3_10  and  C4_11 
REMARK    8  A    between atoms: C6_13  and  C7_14 
ROOT
HETATM    1  N2  UNK     1      31.408  -9.363  37.820  1.00  0.00    -0.191 NA
HETATM    2  C5  UNK     1      29.615  -8.104  35.157  1.00  0.00     0.038 C 
HETATM    3  C7  UNK     1      30.914  -8.343  35.479  1.00  0.00     0.055 C 
HETATM    4  C24 UNK     1      31.178  -8.908  36.778  1.00  0.00     0.100 C 
ENDROOT
BRANCH   3   5
HETATM    5  C6  UNK     1      32.033  -8.068  34.592  1.00  0.00    -0.015 A 
HETATM    6  C14 UNK     1      33.294  -8.591  34.876  1.00  0.00     0.015 A 
HETATM    7  C21 UNK     1      34.365  -8.329  34.022  1.00  0.00     0.037 A 
HETATM    8  C20 UNK     1      34.176  -7.545  32.884  1.00  0.00     0.102 A 
HETATM    9  C22 UNK     1      32.914  -7.023  32.600  1.00  0.00     0.037 A 
HETATM   10  C15 UNK     1      31.843  -7.285  33.454  1.00  0.00     0.015 A 
BRANCH   8  11
HETATM   11  N1  UNK     1      35.266  -7.279  32.015  1.00  0.00    -0.116 N 
HETATM   12  O3  UNK     1      35.081  -7.327  30.775  1.00  0.00    -0.532 OA
HETATM   13  O4  UNK     1      36.386  -7.004  32.511  1.00  0.00    -0.532 OA
ENDBRANCH   8  11
ENDBRANCH   3   5
BRANCH   2  14
HETATM   14  C1  UNK     1      28.454  -8.371  36.020  1.00  0.00     0.000 A 
HETATM   15  C2  UNK     1      28.094  -7.473  37.014  1.00  0.00     0.079 A 
HETATM   16  C9  UNK     1      26.991  -7.749  37.822  1.00  0.00     0.039 A 
HETATM   17  C12 UNK     1      26.259  -8.919  37.627  1.00  0.00     0.026 A 
HETATM   18  C11 UNK     1      26.629  -9.815  36.624  1.00  0.00     0.035 A 
HETATM   19 Cl1  UNK     1      25.725 -11.259  36.387  1.00  0.00    -0.084 Cl
HETATM   20  C8  UNK     1      27.733  -9.539  35.816  1.00  0.00     0.038 A 
BRANCH  15  21
HETATM   21  O1  UNK     1      28.794  -6.323  37.227  1.00  0.00    -0.348 OA
BRANCH  21  22
HETATM   22  C3  UNK     1      29.026  -5.947  38.583  1.00  0.00     0.202 C 
BRANCH  22  23
HETATM   23  C4  UNK     1      30.208  -4.998  38.638  1.00  0.00     0.202 C 
BRANCH  23  24
HETATM   24  O2  UNK     1      31.409  -5.745  38.493  1.00  0.00    -0.349 OA
BRANCH  24  25
HETATM   25  C10 UNK     1      32.238  -5.386  37.462  1.00  0.00     0.068 A 
HETATM   26  C16 UNK     1      31.754  -4.574  36.443  1.00  0.00     0.037 A 
HETATM   27  C18 UNK     1      32.597  -4.208  35.392  1.00  0.00     0.009 A 
HETATM   28  C13 UNK     1      33.917  -4.659  35.368  1.00  0.00    -0.062 A 
HETATM   29  C19 UNK     1      34.395  -5.474  36.395  1.00  0.00     0.009 A 
HETATM   30  C23 UNK     1      34.818  -4.268  34.246  1.00  0.00     0.048 C 
HETATM   31  C17 UNK     1      33.553  -5.838  37.445  1.00  0.00     0.037 A 
ENDBRANCH  24  25
ENDBRANCH  23  24
ENDBRANCH  22  23
ENDBRANCH  21  22
ENDBRANCH  15  21
ENDBRANCH   2  14
TORSDOF 8
ENDMDL
MODEL 6
REMARK VINA RESULT:      -7.1      3.052      3.992
REMARK  8 active torsions:
REMARK  status: ('A' for Active; 'I' for Inactive)
REMARK    1  A    between atoms: C2_9  and  O1_2 
REMARK    2  A    between atoms: C3_10  and  O1_2 
REMARK    3  A    between atoms: C10_17  and  O2_3 
REMARK    4  A    between atoms: C4_11  and  O2_3 
REMARK    5  A    between atoms: C20_27  and  N1_6 
REMARK    6  A    between atoms: C1_8  and  C5_12 
REMARK    7  A    between atoms: C3_10  and  C4_11 
REMARK    8  A    between atoms: C6_13  and  C7_14 
ROOT
HETATM    1  N2  UNK     1      33.274  -8.079  36.801  1.00  0.00    -0.191 NA
HETATM    2  C5  UNK     1      30.737  -6.561  35.025  1.00  0.00     0.038 C 
HETATM    3  C7  UNK     1      31.768  -7.415  34.787  1.00  0.00     0.055 C 
HETATM    4  C24 UNK     1      32.596  -7.777  35.908  1.00  0.00     0.100 C 
ENDROOT
BRANCH   3   5
HETATM    5  C6  UNK     1      32.068  -7.978  33.480  1.00  0.00    -0.015 A 
HETATM    6  C14 UNK     1      31.750  -7.267  32.323  1.00  0.00     0.015 A 
HETATM    7  C21 UNK     1      32.041  -7.808  31.071  1.00  0.00     0.037 A 
HETATM    8  C20 UNK     1      32.652  -9.059  30.975  1.00  0.00     0.102 A 
HETATM    9  C22 UNK     1      32.971  -9.769  32.133  1.00  0.00     0.037 A 
HETATM   10  C15 UNK     1      32.679  -9.228  33.385  1.00  0.00     0.015 A 
BRANCH   8  11
HETATM   11  N1  UNK     1      32.949  -9.609  29.701  1.00  0.00    -0.116 N 
HETATM   12  O3  UNK     1      33.247  -8.836  28.759  1.00  0.00    -0.532 OA
HETATM   13  O4  UNK     1      32.903 -10.854  29.551  1.00  0.00    -0.532 OA
ENDBRANCH   8  11
ENDBRANCH   3   5
BRANCH   2  14
HETATM   14  C1  UNK     1      30.394  -5.974  36.329  1.00  0.00     0.000 A 
HETATM   15  C2  UNK     1      30.933  -4.756  36.716  1.00  0.00     0.079 A 
HETATM   16  C9  UNK     1      30.596  -4.219  37.958  1.00  0.00     0.039 A 
HETATM   17  C12 UNK     1      29.721  -4.905  38.800  1.00  0.00     0.026 A 
HETATM   18  C11 UNK     1      29.185  -6.129  38.401  1.00  0.00     0.035 A 
HETATM   19 Cl1  UNK     1      28.108  -6.974  39.443  1.00  0.00    -0.084 Cl
HETATM   20  C8  UNK     1      29.522  -6.666  37.159  1.00  0.00     0.038 A 
BRANCH  15  21
HETATM   21  O1  UNK     1      31.791  -4.065  35.913  1.00  0.00    -0.348 OA
BRANCH  21  22
HETATM   22  C3  UNK     1      33.175  -4.103  36.258  1.00  0.00     0.202 C 
BRANCH  22  23
HETATM   23  C4  UNK     1      33.991  -4.341  35.002  1.00  0.00     0.202 C 
BRANCH  23  24
HETATM   24  O2  UNK     1      35.153  -5.089  35.339  1.00  0.00    -0.349 OA
BRANCH  24  25
HETATM   25  C10 UNK     1      35.517  -6.086  34.472  1.00  0.00     0.068 A 
HETATM   26  C16 UNK     1      35.154  -5.998  33.134  1.00  0.00     0.037 A 
HETATM   27  C18 UNK     1      35.524  -7.014  32.250  1.00  0.00     0.009 A 
HETATM   28  C13 UNK     1      36.254  -8.109  32.712  1.00  0.00    -0.062 A 
HETATM   29  C19 UNK     1      36.615  -8.189  34.058  1.00  0.00     0.009 A 
HETATM   30  C23 UNK     1      36.650  -9.193  31.769  1.00  0.00     0.048 C 
HETATM   31  C17 UNK     1      36.245  -7.174  34.941  1.00  0.00     0.037 A 
ENDBRANCH  24  25
ENDBRANCH  23  24
ENDBRANCH  22  23
ENDBRANCH  21  22
ENDBRANCH  15  21
ENDBRANCH   2  14
TORSDOF 8
ENDMDL
MODEL 7
REMARK VINA RESULT:      -7.1      4.342      7.431
REMARK  8 active torsions:
REMARK  status: ('A' for Active; 'I' for Inactive)
REMARK    1  A    between atoms: C2_9  and  O1_2 
REMARK    2  A    between atoms: C3_10  and  O1_2 
REMARK    3  A    between atoms: C10_17  and  O2_3 
REMARK    4  A    between atoms: C4_11  and  O2_3 
REMARK    5  A    between atoms: C20_27  and  N1_6 
REMARK    6  A    between atoms: C1_8  and  C5_12 
REMARK    7  A    between atoms: C3_10  and  C4_11 
REMARK    8  A    between atoms: C6_13  and  C7_14 
ROOT
HETATM    1  N2  UNK     1      30.847  -5.182  33.072  1.00  0.00    -0.191 NA
HETATM    2  C5  UNK     1      32.155  -8.067  34.435  1.00  0.00     0.038 C 
HETATM    3  C7  UNK     1      31.111  -7.226  34.659  1.00  0.00     0.055 C 
HETATM    4  C24 UNK     1      30.973  -6.097  33.775  1.00  0.00     0.100 C 
ENDROOT
BRANCH   3   5
HETATM    5  C6  UNK     1      30.137  -7.408  35.723  1.00  0.00    -0.015 A 
HETATM    6  C14 UNK     1      28.939  -6.694  35.704  1.00  0.00     0.015 A 
HETATM    7  C21 UNK     1      28.005  -6.872  36.725  1.00  0.00     0.037 A 
HETATM    8  C20 UNK     1      28.268  -7.764  37.764  1.00  0.00     0.102 A 
HETATM    9  C22 UNK     1      29.466  -8.479  37.783  1.00  0.00     0.037 A 
HETATM   10  C15 UNK     1      30.400  -8.300  36.762  1.00  0.00     0.015 A 
BRANCH   8  11
HETATM   11  N1  UNK     1      27.317  -7.946  38.802  1.00  0.00    -0.116 N 
HETATM   12  O3  UNK     1      27.612  -8.681  39.774  1.00  0.00    -0.532 OA
HETATM   13  O4  UNK     1      26.208  -7.366  38.718  1.00  0.00    -0.532 OA
ENDBRANCH   8  11
ENDBRANCH   3   5
BRANCH   2  14
HETATM   14  C1  UNK     1      33.157  -7.924  33.368  1.00  0.00     0.000 A 
HETATM   15  C2  UNK     1      34.485  -7.666  33.680  1.00  0.00     0.079 A 
HETATM   16  C9  UNK     1      35.418  -7.532  32.652  1.00  0.00     0.039 A 
HETATM   17  C12 UNK     1      35.015  -7.659  31.323  1.00  0.00     0.026 A 
HETATM   18  C11 UNK     1      33.678  -7.920  31.021  1.00  0.00     0.035 A 
HETATM   19 Cl1  UNK     1      33.183  -8.074  29.381  1.00  0.00    -0.084 Cl
HETATM   20  C8  UNK     1      32.745  -8.053  32.049  1.00  0.00     0.038 A 
BRANCH  15  21
HETATM   21  O1  UNK     1      34.905  -7.536  34.970  1.00  0.00    -0.348 OA
BRANCH  21  22
HETATM   22  C3  UNK     1      35.794  -6.458  35.256  1.00  0.00     0.202 C 
BRANCH  22  23
HETATM   23  C4  UNK     1      35.199  -5.608  36.362  1.00  0.00     0.202 C 
BRANCH  23  24
HETATM   24  O2  UNK     1      34.079  -4.897  35.850  1.00  0.00    -0.349 OA
BRANCH  24  25
HETATM   25  C10 UNK     1      32.977  -4.815  36.661  1.00  0.00     0.068 A 
HETATM   26  C16 UNK     1      31.976  -3.896  36.370  1.00  0.00     0.037 A 
HETATM   27  C18 UNK     1      30.855  -3.811  37.197  1.00  0.00     0.009 A 
HETATM   28  C13 UNK     1      30.744  -4.645  38.310  1.00  0.00    -0.062 A 
HETATM   29  C19 UNK     1      31.754  -5.565  38.595  1.00  0.00     0.009 A 
HETATM   30  C23 UNK     1      29.546  -4.555  39.193  1.00  0.00     0.048 C 
HETATM   31  C17 UNK     1      32.874  -5.651  37.768  1.00  0.00     0.037 A 
ENDBRANCH  24  25
ENDBRANCH  23  24
ENDBRANCH  22  23
ENDBRANCH  21  22
ENDBRANCH  15  21
ENDBRANCH   2  14
TORSDOF 8
ENDMDL
MODEL 8
REMARK VINA RESULT:      -7.0      3.069      4.343
REMARK  8 active torsions:
REMARK  status: ('A' for Active; 'I' for Inactive)
REMARK    1  A    between atoms: C2_9  and  O1_2 
REMARK    2  A    between atoms: C3_10  and  O1_2 
REMARK    3  A    between atoms: C10_17  and  O2_3 
REMARK    4  A    between atoms: C4_11  and  O2_3 
REMARK    5  A    between atoms: C20_27  and  N1_6 
REMARK    6  A    between atoms: C1_8  and  C5_12 
REMARK    7  A    between atoms: C3_10  and  C4_11 
REMARK    8  A    between atoms: C6_13  and  C7_14 
ROOT
HETATM    1  N2  UNK     1      28.413  -8.372  34.169  1.00  0.00    -0.191 NA
HETATM    2  C5  UNK     1      30.993  -7.891  36.406  1.00  0.00     0.038 C 
HETATM    3  C7  UNK     1      30.838  -8.117  35.074  1.00  0.00     0.055 C 
HETATM    4  C24 UNK     1      29.491  -8.257  34.582  1.00  0.00     0.100 C 
ENDROOT
BRANCH   3   5
HETATM    5  C6  UNK     1      31.943  -8.216  34.134  1.00  0.00    -0.015 A 
HETATM    6  C14 UNK     1      31.974  -7.399  33.005  1.00  0.00     0.015 A 
HETATM    7  C21 UNK     1      33.037  -7.493  32.106  1.00  0.00     0.037 A 
HETATM    8  C20 UNK     1      34.068  -8.404  32.336  1.00  0.00     0.102 A 
HETATM    9  C22 UNK     1      34.037  -9.221  33.467  1.00  0.00     0.037 A 
HETATM   10  C15 UNK     1      32.974  -9.126  34.366  1.00  0.00     0.015 A 
BRANCH   8  11
HETATM   11  N1  UNK     1      35.149  -8.500  31.422  1.00  0.00    -0.116 N 
HETATM   12  O3  UNK     1      36.166  -7.790  31.606  1.00  0.00    -0.532 OA
HETATM   13  O4  UNK     1      35.057  -9.292  30.453  1.00  0.00    -0.532 OA
ENDBRANCH   8  11
ENDBRANCH   3   5
BRANCH   2  14
HETATM   14  C1  UNK     1      29.906  -7.778  37.389  1.00  0.00     0.000 A 
HETATM   15  C2  UNK     1      29.263  -6.565  37.592  1.00  0.00     0.079 A 
HETATM   16  C9  UNK     1      28.236  -6.480  38.531  1.00  0.00     0.039 A 
HETATM   17  C12 UNK     1      27.860  -7.610  39.257  1.00  0.00     0.026 A 
HETATM   18  C11 UNK     1      28.512  -8.824  39.045  1.00  0.00     0.035 A 
HETATM   19 Cl1  UNK     1      28.047 -10.216  39.944  1.00  0.00    -0.084 Cl
HETATM   20  C8  UNK     1      29.539  -8.909  38.106  1.00  0.00     0.038 A 
BRANCH  15  21
HETATM   21  O1  UNK     1      29.612  -5.445  36.897  1.00  0.00    -0.348 OA
BRANCH  21  22
HETATM   22  C3  UNK     1      30.059  -4.324  37.656  1.00  0.00     0.202 C 
BRANCH  22  23
HETATM   23  C4  UNK     1      31.572  -4.363  37.753  1.00  0.00     0.202 C 
BRANCH  23  24
HETATM   24  O2  UNK     1      32.126  -4.045  36.482  1.00  0.00    -0.349 OA
BRANCH  24  25
HETATM   25  C10 UNK     1      33.213  -4.778  36.083  1.00  0.00     0.068 A 
HETATM   26  C16 UNK     1      33.767  -5.714  36.949  1.00  0.00     0.037 A 
HETATM   27  C18 UNK     1      34.875  -6.460  36.543  1.00  0.00     0.009 A 
HETATM   28  C13 UNK     1      35.421  -6.263  35.275  1.00  0.00    -0.062 A 
HETATM   29  C19 UNK     1      34.860  -5.321  34.411  1.00  0.00     0.009 A 
HETATM   30  C23 UNK     1      36.605  -7.060  34.841  1.00  0.00     0.048 C 
HETATM   31  C17 UNK     1      33.752  -4.576  34.817  1.00  0.00     0.037 A 
ENDBRANCH  24  25
ENDBRANCH  23  24
ENDBRANCH  22  23
ENDBRANCH  21  22
ENDBRANCH  15  21
ENDBRANCH   2  14
TORSDOF 8
ENDMDL
MODEL 9
REMARK VINA RESULT:      -7.0      3.328      7.344
REMARK  8 active torsions:
REMARK  status: ('A' for Active; 'I' for Inactive)
REMARK    1  A    between atoms: C2_9  and  O1_2 
REMARK    2  A    between atoms: C3_10  and  O1_2 
REMARK    3  A    between atoms: C10_17  and  O2_3 
REMARK    4  A    between atoms: C4_11  and  O2_3 
REMARK    5  A    between atoms: C20_27  and  N1_6 
REMARK    6  A    between atoms: C1_8  and  C5_12 
REMARK    7  A    between atoms: C3_10  and  C4_11 
REMARK    8  A    between atoms: C6_13  and  C7_14 
ROOT
HETATM    1  N2  UNK     1      28.827  -5.347  32.132  1.00  0.00    -0.191 NA
HETATM    2  C5  UNK     1      29.695  -8.572  32.989  1.00  0.00     0.038 C 
HETATM    3  C7  UNK     1      29.235  -7.451  33.605  1.00  0.00     0.055 C 
HETATM    4  C24 UNK     1      29.012  -6.291  32.781  1.00  0.00     0.100 C 
ENDROOT
BRANCH   3   5
HETATM    5  C6  UNK     1      28.954  -7.366  35.029  1.00  0.00    -0.015 A 
HETATM    6  C14 UNK     1      29.466  -6.308  35.780  1.00  0.00     0.015 A 
HETATM    7  C21 UNK     1      29.193  -6.227  37.146  1.00  0.00     0.037 A 
HETATM    8  C20 UNK     1      28.409  -7.202  37.760  1.00  0.00     0.102 A 
HETATM    9  C22 UNK     1      27.896  -8.260  37.009  1.00  0.00     0.037 A 
HETATM   10  C15 UNK     1      28.169  -8.341  35.643  1.00  0.00     0.015 A 
BRANCH   8  11
HETATM   11  N1  UNK     1      28.131  -7.120  39.150  1.00  0.00    -0.116 N 
HETATM   12  O3  UNK     1      28.288  -6.022  39.737  1.00  0.00    -0.532 OA
HETATM   13  O4  UNK     1      27.736  -8.147  39.753  1.00  0.00    -0.532 OA
ENDBRANCH   8  11
ENDBRANCH   3   5
BRANCH   2  14
HETATM   14  C1  UNK     1      29.986  -8.704  31.553  1.00  0.00     0.000 A 
HETATM   15  C2  UNK     1      31.216  -8.312  31.045  1.00  0.00     0.079 A 
HETATM   16  C9  UNK     1      31.469  -8.444  29.680  1.00  0.00     0.039 A 
HETATM   17  C12 UNK     1      30.490  -8.967  28.837  1.00  0.00     0.026 A 
HETATM   18  C11 UNK     1      29.257  -9.358  29.358  1.00  0.00     0.035 A 
HETATM   19 Cl1  UNK     1      28.050 -10.002  28.315  1.00  0.00    -0.084 Cl
HETATM   20  C8  UNK     1      29.004  -9.226  30.723  1.00  0.00     0.038 A 
BRANCH  15  21
HETATM   21  O1  UNK     1      32.191  -7.796  31.847  1.00  0.00    -0.348 OA
BRANCH  21  22
HETATM   22  C3  UNK     1      33.475  -8.412  31.784  1.00  0.00     0.202 C 
BRANCH  22  23
HETATM   23  C4  UNK     1      33.752  -9.114  33.100  1.00  0.00     0.202 C 
BRANCH  23  24
HETATM   24  O2  UNK     1      33.563  -8.191  34.166  1.00  0.00    -0.349 OA
BRANCH  24  25
HETATM   25  C10 UNK     1      32.856  -8.640  35.252  1.00  0.00     0.068 A 
HETATM   26  C16 UNK     1      32.122  -9.816  35.155  1.00  0.00     0.037 A 
HETATM   27  C18 UNK     1      31.401 -10.273  36.259  1.00  0.00     0.009 A 
HETATM   28  C13 UNK     1      31.419  -9.549  37.452  1.00  0.00    -0.062 A 
HETATM   29  C19 UNK     1      32.159  -8.370  37.541  1.00  0.00     0.009 A 
HETATM   30  C23 UNK     1      30.650 -10.037  38.632  1.00  0.00     0.048 C 
HETATM   31  C17 UNK     1      32.880  -7.914  36.437  1.00  0.00     0.037 A 
ENDBRANCH  24  25
ENDBRANCH  23  24
ENDBRANCH  22  23
ENDBRANCH  21  22
ENDBRANCH  15  21
ENDBRANCH   2  14
TORSDOF 8
ENDMDL
MODEL 10
REMARK VINA RESULT:      -6.9      3.064      7.068
REMARK  8 active torsions:
REMARK  status: ('A' for Active; 'I' for Inactive)
REMARK    1  A    between atoms: C2_9  and  O1_2 
REMARK    2  A    between atoms: C3_10  and  O1_2 
REMARK    3  A    between atoms: C10_17  and  O2_3 
REMARK    4  A    between atoms: C4_11  and  O2_3 
REMARK    5  A    between atoms: C20_27  and  N1_6 
REMARK    6  A    between atoms: C1_8  and  C5_12 
REMARK    7  A    between atoms: C3_10  and  C4_11 
REMARK    8  A    between atoms: C6_13  and  C7_14 
ROOT
HETATM    1  N2  UNK     1      31.012 -10.685  33.482  1.00  0.00    -0.191 NA
HETATM    2  C5  UNK     1      29.046  -7.907  32.923  1.00  0.00     0.038 C 
HETATM    3  C7  UNK     1      29.452  -8.664  33.977  1.00  0.00     0.055 C 
HETATM    4  C24 UNK     1      30.315  -9.781  33.693  1.00  0.00     0.100 C 
ENDROOT
BRANCH   3   5
HETATM    5  C6  UNK     1      29.070  -8.404  35.356  1.00  0.00    -0.015 A 
HETATM    6  C14 UNK     1      29.523  -9.241  36.376  1.00  0.00     0.015 A 
HETATM    7  C21 UNK     1      29.158  -8.988  37.698  1.00  0.00     0.037 A 
HETATM    8  C20 UNK     1      28.340  -7.899  38.001  1.00  0.00     0.102 A 
HETATM    9  C22 UNK     1      27.888  -7.062  36.981  1.00  0.00     0.037 A 
HETATM   10  C15 UNK     1      28.253  -7.315  35.659  1.00  0.00     0.015 A 
BRANCH   8  11
HETATM   11  N1  UNK     1      27.969  -7.642  39.347  1.00  0.00    -0.116 N 
HETATM   12  O3  UNK     1      28.035  -6.467  39.782  1.00  0.00    -0.532 OA
HETATM   13  O4  UNK     1      27.587  -8.597  40.065  1.00  0.00    -0.532 OA
ENDBRANCH   8  11
ENDBRANCH   3   5
BRANCH   2  14
HETATM   14  C1  UNK     1      29.413  -8.130  31.517  1.00  0.00     0.000 A 
HETATM   15  C2  UNK     1      30.608  -7.636  31.014  1.00  0.00     0.079 A 
HETATM   16  C9  UNK     1      30.934  -7.858  29.676  1.00  0.00     0.039 A 
HETATM   17  C12 UNK     1      30.062  -8.572  28.855  1.00  0.00     0.026 A 
HETATM   18  C11 UNK     1      28.864  -9.064  29.371  1.00  0.00     0.035 A 
HETATM   19 Cl1  UNK     1      27.788  -9.942  28.354  1.00  0.00    -0.084 Cl
HETATM   20  C8  UNK     1      28.537  -8.842  30.708  1.00  0.00     0.038 A 
BRANCH  15  21
HETATM   21  O1  UNK     1      31.478  -6.935  31.795  1.00  0.00    -0.348 OA
BRANCH  21  22
HETATM   22  C3  UNK     1      32.783  -7.483  31.965  1.00  0.00     0.202 C 
BRANCH  22  23
HETATM   23  C4  UNK     1      33.416  -6.877  33.202  1.00  0.00     0.202 C 
BRANCH  23  24
HETATM   24  O2  UNK     1      33.033  -7.639  34.340  1.00  0.00    -0.349 OA
BRANCH  24  25
HETATM   25  C10 UNK     1      32.464  -6.950  35.380  1.00  0.00     0.068 A 
HETATM   26  C16 UNK     1      32.643  -7.401  36.682  1.00  0.00     0.037 A 
HETATM   27  C18 UNK     1      32.062  -6.701  37.742  1.00  0.00     0.009 A 
HETATM   28  C13 UNK     1      31.307  -5.556  37.489  1.00  0.00    -0.062 A 
HETATM   29  C19 UNK     1      31.132  -5.110  36.179  1.00  0.00     0.009 A 
HETATM   30  C23 UNK     1      30.687  -4.807  38.620  1.00  0.00     0.048 C 
HETATM   31  C17 UNK     1      31.712  -5.809  35.121  1.00  0.00     0.037 A 
ENDBRANCH  24  25
ENDBRANCH  23  24
ENDBRANCH  22  23
ENDBRANCH  21  22
ENDBRANCH  15  21
ENDBRANCH   2  14
TORSDOF 8
ENDMDL
