MODEL 1
REMARK VINA RESULT:      -9.9      0.000      0.000
REMARK  6 active torsions:
REMARK  status: ('A' for Active; 'I' for Inactive)
REMARK    1  A    between atoms: C15_18  and  O1_1 
REMARK    2  A    between atoms: C26_29  and  O1_1 
REMARK    3  A    between atoms: C3_6  and  C8_11 
REMARK    4  A    between atoms: C12_15  and  C14_17 
REMARK    5  A    between atoms: C13_16  and  C14_17 
REMARK    6  A    between atoms: C16_19  and  C26_29 
ROOT
HETATM    1  C12 UNK     1      17.262   6.433  31.494  1.00  0.00     0.014 A 
HETATM    2  C15 UNK     1      18.864   4.331  30.601  1.00  0.00     0.079 A 
HETATM    3  C17 UNK     1      18.081   6.606  30.378  1.00  0.00     0.018 A 
HETATM    4  C18 UNK     1      17.245   5.210  32.164  1.00  0.00     0.018 A 
HETATM    5  C20 UNK     1      18.881   5.555  29.931  1.00  0.00     0.038 A 
HETATM    6  C21 UNK     1      18.046   4.160  31.717  1.00  0.00     0.038 A 
ENDROOT
BRANCH   1   7
HETATM    7  C14 UNK     1      16.411   7.551  31.968  1.00  0.00     0.182 C 
HETATM    8  O2  UNK     1      16.268   8.547  31.267  1.00  0.00    -0.288 OA
BRANCH   7   9
HETATM    9  C13 UNK     1      15.785   7.421  33.314  1.00  0.00     0.056 C 
HETATM   10  C8  UNK     1      16.340   8.032  34.379  1.00  0.00     0.016 C 
BRANCH  10  11
HETATM   11  C3  UNK     1      17.552   8.847  34.339  1.00  0.00    -0.025 A 
HETATM   12  C1  UNK     1      17.528  10.244  34.195  1.00  0.00    -0.016 A 
HETATM   13  C2  UNK     1      18.750  10.957  34.166  1.00  0.00    -0.025 A 
HETATM   14  C4  UNK     1      16.319  10.947  34.080  1.00  0.00     0.013 A 
HETATM   15  C5  UNK     1      19.960  10.253  34.281  1.00  0.00     0.012 A 
HETATM   16  C7  UNK     1      18.726  12.354  34.022  1.00  0.00     0.012 A 
HETATM   17  C9  UNK     1      19.965   8.866  34.424  1.00  0.00     0.002 A 
HETATM   18  C6  UNK     1      18.763   8.163  34.452  1.00  0.00     0.012 A 
HETATM   19  C11 UNK     1      17.515  13.037  33.907  1.00  0.00     0.001 A 
HETATM   20  C10 UNK     1      16.314  12.335  33.937  1.00  0.00     0.001 A 
ENDBRANCH  10  11
ENDBRANCH   7   9
ENDBRANCH   1   7
BRANCH   2  21
HETATM   21  O1  UNK     1      19.645   3.306  30.165  1.00  0.00    -0.275 OA
BRANCH  21  22
HETATM   22  C26 UNK     1      18.951   2.304  29.481  1.00  0.00     0.298 C 
HETATM   23  O3  UNK     1      18.073   2.485  28.652  1.00  0.00    -0.259 OA
BRANCH  22  24
HETATM   24  C16 UNK     1      19.405   0.955  29.905  1.00  0.00     0.040 A 
HETATM   25  C22 UNK     1      20.044   0.116  28.992  1.00  0.00     0.018 A 
HETATM   26  C24 UNK     1      20.470  -1.151  29.390  1.00  0.00     0.007 A 
HETATM   27  C19 UNK     1      20.258  -1.579  30.700  1.00  0.00    -0.062 A 
HETATM   28  C25 UNK     1      19.618  -0.741  31.612  1.00  0.00     0.007 A 
HETATM   29  C27 UNK     1      20.712  -2.935  31.125  1.00  0.00     0.048 C 
HETATM   30  C23 UNK     1      19.192   0.527  31.215  1.00  0.00     0.018 A 
ENDBRANCH  22  24
ENDBRANCH  21  22
ENDBRANCH   2  21
TORSDOF 6
ENDMDL
MODEL 2
REMARK VINA RESULT:      -9.8     14.125     17.627
REMARK  6 active torsions:
REMARK  status: ('A' for Active; 'I' for Inactive)
REMARK    1  A    between atoms: C15_18  and  O1_1 
REMARK    2  A    between atoms: C26_29  and  O1_1 
REMARK    3  A    between atoms: C3_6  and  C8_11 
REMARK    4  A    between atoms: C12_15  and  C14_17 
REMARK    5  A    between atoms: C13_16  and  C14_17 
REMARK    6  A    between atoms: C16_19  and  C26_29 
ROOT
HETATM    1  C12 UNK     1      23.331 -10.624  35.961  1.00  0.00     0.014 A 
HETATM    2  C15 UNK     1      25.964 -10.449  36.868  1.00  0.00     0.079 A 
HETATM    3  C17 UNK     1      23.817  -9.416  36.461  1.00  0.00     0.018 A 
HETATM    4  C18 UNK     1      24.161 -11.745  35.915  1.00  0.00     0.018 A 
HETATM    5  C20 UNK     1      25.133  -9.329  36.914  1.00  0.00     0.038 A 
HETATM    6  C21 UNK     1      25.477 -11.657  36.368  1.00  0.00     0.038 A 
ENDROOT
BRANCH   1   7
HETATM    7  C14 UNK     1      21.932 -10.717  35.479  1.00  0.00     0.182 C 
HETATM    8  O2  UNK     1      21.668 -10.423  34.318  1.00  0.00    -0.288 OA
BRANCH   7   9
HETATM    9  C13 UNK     1      20.890 -11.140  36.456  1.00  0.00     0.056 C 
HETATM   10  C8  UNK     1      20.166 -10.214  37.115  1.00  0.00     0.016 C 
BRANCH  10  11
HETATM   11  C3  UNK     1      20.311  -8.769  36.956  1.00  0.00    -0.025 A 
HETATM   12  C1  UNK     1      21.106  -7.983  37.807  1.00  0.00    -0.016 A 
HETATM   13  C2  UNK     1      21.191  -6.589  37.581  1.00  0.00    -0.025 A 
HETATM   14  C4  UNK     1      21.817  -8.551  38.876  1.00  0.00     0.013 A 
HETATM   15  C5  UNK     1      20.480  -6.020  36.512  1.00  0.00     0.012 A 
HETATM   16  C7  UNK     1      21.985  -5.803  38.432  1.00  0.00     0.012 A 
HETATM   17  C9  UNK     1      19.696  -6.816  35.676  1.00  0.00     0.002 A 
HETATM   18  C6  UNK     1      19.611  -8.188  35.898  1.00  0.00     0.012 A 
HETATM   19  C11 UNK     1      22.684  -6.384  39.491  1.00  0.00     0.001 A 
HETATM   20  C10 UNK     1      22.601  -7.756  39.712  1.00  0.00     0.001 A 
ENDBRANCH  10  11
ENDBRANCH   7   9
ENDBRANCH   1   7
BRANCH   2  21
HETATM   21  O1  UNK     1      27.247 -10.363  37.310  1.00  0.00    -0.275 OA
BRANCH  21  22
HETATM   22  C26 UNK     1      27.375  -9.879  38.615  1.00  0.00     0.298 C 
HETATM   23  O3  UNK     1      26.928 -10.412  39.619  1.00  0.00    -0.259 OA
BRANCH  22  24
HETATM   24  C16 UNK     1      28.121  -8.595  38.639  1.00  0.00     0.040 A 
HETATM   25  C22 UNK     1      29.329  -8.478  37.952  1.00  0.00     0.018 A 
HETATM   26  C24 UNK     1      30.030  -7.272  37.974  1.00  0.00     0.007 A 
HETATM   27  C19 UNK     1      29.522  -6.184  38.682  1.00  0.00    -0.062 A 
HETATM   28  C25 UNK     1      28.315  -6.300  39.370  1.00  0.00     0.007 A 
HETATM   29  C27 UNK     1      30.272  -4.895  38.708  1.00  0.00     0.048 C 
HETATM   30  C23 UNK     1      27.613  -7.506  39.348  1.00  0.00     0.018 A 
ENDBRANCH  22  24
ENDBRANCH  21  22
ENDBRANCH   2  21
TORSDOF 6
ENDMDL
MODEL 3
REMARK VINA RESULT:      -9.5      0.500      2.013
REMARK  6 active torsions:
REMARK  status: ('A' for Active; 'I' for Inactive)
REMARK    1  A    between atoms: C15_18  and  O1_1 
REMARK    2  A    between atoms: C26_29  and  O1_1 
REMARK    3  A    between atoms: C3_6  and  C8_11 
REMARK    4  A    between atoms: C12_15  and  C14_17 
REMARK    5  A    between atoms: C13_16  and  C14_17 
REMARK    6  A    between atoms: C16_19  and  C26_29 
ROOT
HETATM    1  C12 UNK     1      17.030   6.676  31.555  1.00  0.00     0.014 A 
HETATM    2  C15 UNK     1      18.689   4.560  30.814  1.00  0.00     0.079 A 
HETATM    3  C17 UNK     1      17.857   6.797  30.439  1.00  0.00     0.018 A 
HETATM    4  C18 UNK     1      17.032   5.497  32.301  1.00  0.00     0.018 A 
HETATM    5  C20 UNK     1      18.686   5.739  30.069  1.00  0.00     0.038 A 
HETATM    6  C21 UNK     1      17.862   4.439  31.930  1.00  0.00     0.038 A 
ENDROOT
BRANCH   1   7
HETATM    7  C14 UNK     1      16.147   7.801  31.950  1.00  0.00     0.182 C 
HETATM    8  O2  UNK     1      16.088   8.802  31.245  1.00  0.00    -0.288 OA
BRANCH   7   9
HETATM    9  C13 UNK     1      15.386   7.670  33.224  1.00  0.00     0.056 C 
HETATM   10  C8  UNK     1      15.586   8.551  34.223  1.00  0.00     0.016 C 
BRANCH  10  11
HETATM   11  C3  UNK     1      16.519   9.675  34.175  1.00  0.00    -0.025 A 
HETATM   12  C1  UNK     1      17.911   9.515  34.275  1.00  0.00    -0.016 A 
HETATM   13  C2  UNK     1      18.744  10.658  34.219  1.00  0.00    -0.025 A 
HETATM   14  C4  UNK     1      18.494   8.247  34.428  1.00  0.00     0.013 A 
HETATM   15  C5  UNK     1      18.162  11.926  34.065  1.00  0.00     0.012 A 
HETATM   16  C7  UNK     1      20.136  10.498  34.319  1.00  0.00     0.012 A 
HETATM   17  C9  UNK     1      16.777  12.066  33.968  1.00  0.00     0.002 A 
HETATM   18  C6  UNK     1      15.957  10.942  34.023  1.00  0.00     0.012 A 
HETATM   19  C11 UNK     1      20.698   9.230  34.472  1.00  0.00     0.001 A 
HETATM   20  C10 UNK     1      19.878   8.107  34.526  1.00  0.00     0.001 A 
ENDBRANCH  10  11
ENDBRANCH   7   9
ENDBRANCH   1   7
BRANCH   2  21
HETATM   21  O1  UNK     1      19.498   3.528  30.451  1.00  0.00    -0.275 OA
BRANCH  21  22
HETATM   22  C26 UNK     1      18.891   2.585  29.618  1.00  0.00     0.298 C 
HETATM   23  O3  UNK     1      18.079   2.829  28.739  1.00  0.00    -0.259 OA
BRANCH  22  24
HETATM   24  C16 UNK     1      19.344   1.209  29.947  1.00  0.00     0.040 A 
HETATM   25  C22 UNK     1      19.878   0.394  28.949  1.00  0.00     0.018 A 
HETATM   26  C24 UNK     1      20.304  -0.897  29.258  1.00  0.00     0.007 A 
HETATM   27  C19 UNK     1      20.197  -1.374  30.564  1.00  0.00    -0.062 A 
HETATM   28  C25 UNK     1      19.662  -0.559  31.562  1.00  0.00     0.007 A 
HETATM   29  C27 UNK     1      20.651  -2.756  30.895  1.00  0.00     0.048 C 
HETATM   30  C23 UNK     1      19.236   0.733  31.254  1.00  0.00     0.018 A 
ENDBRANCH  22  24
ENDBRANCH  21  22
ENDBRANCH   2  21
TORSDOF 6
ENDMDL
MODEL 4
REMARK VINA RESULT:      -9.4     16.387     19.906
REMARK  6 active torsions:
REMARK  status: ('A' for Active; 'I' for Inactive)
REMARK    1  A    between atoms: C15_18  and  O1_1 
REMARK    2  A    between atoms: C26_29  and  O1_1 
REMARK    3  A    between atoms: C3_6  and  C8_11 
REMARK    4  A    between atoms: C12_15  and  C14_17 
REMARK    5  A    between atoms: C13_16  and  C14_17 
REMARK    6  A    between atoms: C16_19  and  C26_29 
ROOT
HETATM    1  C12 UNK     1      31.937  -9.378  31.155  1.00  0.00     0.014 A 
HETATM    2  C15 UNK     1      30.604  -8.882  33.554  1.00  0.00     0.079 A 
HETATM    3  C17 UNK     1      30.950 -10.257  31.598  1.00  0.00     0.018 A 
HETATM    4  C18 UNK     1      32.259  -8.251  31.912  1.00  0.00     0.018 A 
HETATM    5  C20 UNK     1      30.283 -10.009  32.798  1.00  0.00     0.038 A 
HETATM    6  C21 UNK     1      31.592  -8.003  33.111  1.00  0.00     0.038 A 
ENDROOT
BRANCH   1   7
HETATM    7  C14 UNK     1      32.646  -9.642  29.879  1.00  0.00     0.182 C 
HETATM    8  O2  UNK     1      33.168 -10.735  29.689  1.00  0.00    -0.288 OA
BRANCH   7   9
HETATM    9  C13 UNK     1      32.718  -8.534  28.886  1.00  0.00     0.056 C 
HETATM   10  C8  UNK     1      31.593  -8.070  28.308  1.00  0.00     0.016 C 
BRANCH  10  11
HETATM   11  C3  UNK     1      30.247  -8.574  28.574  1.00  0.00    -0.025 A 
HETATM   12  C1  UNK     1      29.337  -7.912  29.415  1.00  0.00    -0.016 A 
HETATM   13  C2  UNK     1      28.052  -8.469  29.618  1.00  0.00    -0.025 A 
HETATM   14  C4  UNK     1      29.675  -6.710  30.058  1.00  0.00     0.013 A 
HETATM   15  C5  UNK     1      27.714  -9.671  28.976  1.00  0.00     0.012 A 
HETATM   16  C7  UNK     1      27.142  -7.808  30.460  1.00  0.00     0.012 A 
HETATM   17  C9  UNK     1      28.630 -10.314  28.143  1.00  0.00     0.002 A 
HETATM   18  C6  UNK     1      29.895  -9.767  27.943  1.00  0.00     0.012 A 
HETATM   19  C11 UNK     1      27.495  -6.615  31.092  1.00  0.00     0.001 A 
HETATM   20  C10 UNK     1      28.759  -6.067  30.890  1.00  0.00     0.001 A 
ENDBRANCH  10  11
ENDBRANCH   7   9
ENDBRANCH   1   7
BRANCH   2  21
HETATM   21  O1  UNK     1      29.953  -8.640  34.724  1.00  0.00    -0.275 OA
BRANCH  21  22
HETATM   22  C26 UNK     1      30.783  -8.609  35.848  1.00  0.00     0.298 C 
HETATM   23  O3  UNK     1      31.645  -9.430  36.121  1.00  0.00    -0.259 OA
BRANCH  22  24
HETATM   24  C16 UNK     1      30.477  -7.436  36.707  1.00  0.00     0.040 A 
HETATM   25  C22 UNK     1      30.799  -6.151  36.273  1.00  0.00     0.018 A 
HETATM   26  C24 UNK     1      30.511  -5.050  37.080  1.00  0.00     0.007 A 
HETATM   27  C19 UNK     1      29.900  -5.234  38.319  1.00  0.00    -0.062 A 
HETATM   28  C25 UNK     1      29.579  -6.520  38.754  1.00  0.00     0.007 A 
HETATM   29  C27 UNK     1      29.593  -4.058  39.183  1.00  0.00     0.048 C 
HETATM   30  C23 UNK     1      29.866  -7.621  37.948  1.00  0.00     0.018 A 
ENDBRANCH  22  24
ENDBRANCH  21  22
ENDBRANCH   2  21
TORSDOF 6
ENDMDL
MODEL 5
REMARK VINA RESULT:      -9.3     15.988     18.488
REMARK  6 active torsions:
REMARK  status: ('A' for Active; 'I' for Inactive)
REMARK    1  A    between atoms: C15_18  and  O1_1 
REMARK    2  A    between atoms: C26_29  and  O1_1 
REMARK    3  A    between atoms: C3_6  and  C8_11 
REMARK    4  A    between atoms: C12_15  and  C14_17 
REMARK    5  A    between atoms: C13_16  and  C14_17 
REMARK    6  A    between atoms: C16_19  and  C26_29 
ROOT
HETATM    1  C12 UNK     1      30.910  -8.499  35.136  1.00  0.00     0.014 A 
HETATM    2  C15 UNK     1      29.214  -6.700  33.844  1.00  0.00     0.079 A 
HETATM    3  C17 UNK     1      31.416  -7.298  34.639  1.00  0.00     0.018 A 
HETATM    4  C18 UNK     1      29.557  -8.801  34.986  1.00  0.00     0.018 A 
HETATM    5  C20 UNK     1      30.568  -6.399  33.993  1.00  0.00     0.038 A 
HETATM    6  C21 UNK     1      28.709  -7.902  34.340  1.00  0.00     0.038 A 
ENDROOT
BRANCH   1   7
HETATM    7  C14 UNK     1      31.812  -9.455  35.823  1.00  0.00     0.182 C 
HETATM    8  O2  UNK     1      32.851  -9.811  35.276  1.00  0.00    -0.288 OA
BRANCH   7   9
HETATM    9  C13 UNK     1      31.388  -9.971  37.154  1.00  0.00     0.056 C 
HETATM   10  C8  UNK     1      31.347  -9.145  38.218  1.00  0.00     0.016 C 
BRANCH  10  11
HETATM   11  C3  UNK     1      31.695  -7.726  38.189  1.00  0.00    -0.025 A 
HETATM   12  C1  UNK     1      30.743  -6.703  38.335  1.00  0.00    -0.016 A 
HETATM   13  C2  UNK     1      31.167  -5.353  38.295  1.00  0.00    -0.025 A 
HETATM   14  C4  UNK     1      29.382  -6.992  38.522  1.00  0.00     0.013 A 
HETATM   15  C5  UNK     1      32.528  -5.065  38.108  1.00  0.00     0.012 A 
HETATM   16  C7  UNK     1      30.215  -4.331  38.442  1.00  0.00     0.012 A 
HETATM   17  C9  UNK     1      33.460  -6.093  37.965  1.00  0.00     0.002 A 
HETATM   18  C6  UNK     1      33.044  -7.421  38.004  1.00  0.00     0.012 A 
HETATM   19  C11 UNK     1      28.865  -4.636  38.624  1.00  0.00     0.001 A 
HETATM   20  C10 UNK     1      28.450  -5.964  38.665  1.00  0.00     0.001 A 
ENDBRANCH  10  11
ENDBRANCH   7   9
ENDBRANCH   1   7
BRANCH   2  21
HETATM   21  O1  UNK     1      28.387  -5.822  33.214  1.00  0.00    -0.275 OA
BRANCH  21  22
HETATM   22  C26 UNK     1      28.776  -5.501  31.910  1.00  0.00     0.298 C 
HETATM   23  O3  UNK     1      29.173  -4.409  31.535  1.00  0.00    -0.259 OA
BRANCH  22  24
HETATM   24  C16 UNK     1      28.628  -6.668  31.004  1.00  0.00     0.040 A 
HETATM   25  C22 UNK     1      29.710  -7.092  30.232  1.00  0.00     0.018 A 
HETATM   26  C24 UNK     1      29.571  -8.189  29.382  1.00  0.00     0.007 A 
HETATM   27  C19 UNK     1      28.353  -8.862  29.304  1.00  0.00    -0.062 A 
HETATM   28  C25 UNK     1      27.271  -8.437  30.075  1.00  0.00     0.007 A 
HETATM   29  C27 UNK     1      28.204 -10.033  28.393  1.00  0.00     0.048 C 
HETATM   30  C23 UNK     1      27.408  -7.341  30.926  1.00  0.00     0.018 A 
ENDBRANCH  22  24
ENDBRANCH  21  22
ENDBRANCH   2  21
TORSDOF 6
ENDMDL
MODEL 6
REMARK VINA RESULT:      -9.3     16.408     18.264
REMARK  6 active torsions:
REMARK  status: ('A' for Active; 'I' for Inactive)
REMARK    1  A    between atoms: C15_18  and  O1_1 
REMARK    2  A    between atoms: C26_29  and  O1_1 
REMARK    3  A    between atoms: C3_6  and  C8_11 
REMARK    4  A    between atoms: C12_15  and  C14_17 
REMARK    5  A    between atoms: C13_16  and  C14_17 
REMARK    6  A    between atoms: C16_19  and  C26_29 
ROOT
HETATM    1  C12 UNK     1      30.240  -8.023  35.490  1.00  0.00     0.014 A 
HETATM    2  C15 UNK     1      30.786  -6.629  33.136  1.00  0.00     0.079 A 
HETATM    3  C17 UNK     1      29.474  -6.910  35.146  1.00  0.00     0.018 A 
HETATM    4  C18 UNK     1      31.280  -8.439  34.658  1.00  0.00     0.018 A 
HETATM    5  C20 UNK     1      29.747  -6.213  33.968  1.00  0.00     0.038 A 
HETATM    6  C21 UNK     1      31.552  -7.742  33.481  1.00  0.00     0.038 A 
ENDROOT
BRANCH   1   7
HETATM    7  C14 UNK     1      29.950  -8.764  36.742  1.00  0.00     0.182 C 
HETATM    8  O2  UNK     1      28.816  -9.180  36.952  1.00  0.00    -0.288 OA
BRANCH   7   9
HETATM    9  C13 UNK     1      31.064  -8.941  37.714  1.00  0.00     0.056 C 
HETATM   10  C8  UNK     1      31.598  -7.870  38.333  1.00  0.00     0.016 C 
BRANCH  10  11
HETATM   11  C3  UNK     1      31.170  -6.487  38.131  1.00  0.00    -0.025 A 
HETATM   12  C1  UNK     1      31.877  -5.579  37.327  1.00  0.00    -0.016 A 
HETATM   13  C2  UNK     1      31.392  -4.257  37.186  1.00  0.00    -0.025 A 
HETATM   14  C4  UNK     1      33.054  -5.954  36.660  1.00  0.00     0.013 A 
HETATM   15  C5  UNK     1      30.214  -3.882  37.853  1.00  0.00     0.012 A 
HETATM   16  C7  UNK     1      32.099  -3.348  36.381  1.00  0.00     0.012 A 
HETATM   17  C9  UNK     1      29.524  -4.797  38.648  1.00  0.00     0.002 A 
HETATM   18  C6  UNK     1      30.002  -6.098  38.787  1.00  0.00     0.012 A 
HETATM   19  C11 UNK     1      33.268  -3.737  35.726  1.00  0.00     0.001 A 
HETATM   20  C10 UNK     1      33.744  -5.038  35.865  1.00  0.00     0.001 A 
ENDBRANCH  10  11
ENDBRANCH   7   9
ENDBRANCH   1   7
BRANCH   2  21
HETATM   21  O1  UNK     1      31.051  -5.949  31.988  1.00  0.00    -0.275 OA
BRANCH  21  22
HETATM   22  C26 UNK     1      29.926  -5.684  31.202  1.00  0.00     0.298 C 
HETATM   23  O3  UNK     1      29.333  -4.618  31.144  1.00  0.00    -0.259 OA
BRANCH  22  24
HETATM   24  C16 UNK     1      29.511  -6.889  30.439  1.00  0.00     0.040 A 
HETATM   25  C22 UNK     1      28.273  -7.481  30.690  1.00  0.00     0.018 A 
HETATM   26  C24 UNK     1      27.884  -8.612  29.973  1.00  0.00     0.007 A 
HETATM   27  C19 UNK     1      28.730  -9.150  29.005  1.00  0.00    -0.062 A 
HETATM   28  C25 UNK     1      29.968  -8.558  28.754  1.00  0.00     0.007 A 
HETATM   29  C27 UNK     1      28.314 -10.361  28.239  1.00  0.00     0.048 C 
HETATM   30  C23 UNK     1      30.359  -7.427  29.470  1.00  0.00     0.018 A 
ENDBRANCH  22  24
ENDBRANCH  21  22
ENDBRANCH   2  21
TORSDOF 6
ENDMDL
MODEL 7
REMARK VINA RESULT:      -9.3     16.024     18.532
REMARK  6 active torsions:
REMARK  status: ('A' for Active; 'I' for Inactive)
REMARK    1  A    between atoms: C15_18  and  O1_1 
REMARK    2  A    between atoms: C26_29  and  O1_1 
REMARK    3  A    between atoms: C3_6  and  C8_11 
REMARK    4  A    between atoms: C12_15  and  C14_17 
REMARK    5  A    between atoms: C13_16  and  C14_17 
REMARK    6  A    between atoms: C16_19  and  C26_29 
ROOT
HETATM    1  C12 UNK     1      31.619  -7.749  34.803  1.00  0.00     0.014 A 
HETATM    2  C15 UNK     1      29.899  -6.084  33.369  1.00  0.00     0.079 A 
HETATM    3  C17 UNK     1      30.258  -8.048  34.732  1.00  0.00     0.018 A 
HETATM    4  C18 UNK     1      32.120  -6.618  34.158  1.00  0.00     0.018 A 
HETATM    5  C20 UNK     1      29.399  -7.215  34.015  1.00  0.00     0.038 A 
HETATM    6  C21 UNK     1      31.260  -5.786  33.441  1.00  0.00     0.038 A 
ENDROOT
BRANCH   1   7
HETATM    7  C14 UNK     1      32.533  -8.634  35.565  1.00  0.00     0.182 C 
HETATM    8  O2  UNK     1      32.587  -9.829  35.295  1.00  0.00    -0.288 OA
BRANCH   7   9
HETATM    9  C13 UNK     1      33.332  -8.022  36.663  1.00  0.00     0.056 C 
HETATM   10  C8  UNK     1      32.739  -7.692  37.827  1.00  0.00     0.016 C 
BRANCH  10  11
HETATM   11  C3  UNK     1      31.322  -7.886  38.129  1.00  0.00    -0.025 A 
HETATM   12  C1  UNK     1      30.424  -6.818  38.294  1.00  0.00    -0.016 A 
HETATM   13  C2  UNK     1      29.067  -7.095  38.585  1.00  0.00    -0.025 A 
HETATM   14  C4  UNK     1      30.844  -5.483  38.177  1.00  0.00     0.013 A 
HETATM   15  C5  UNK     1      28.647  -8.429  38.703  1.00  0.00     0.012 A 
HETATM   16  C7  UNK     1      28.169  -6.027  38.751  1.00  0.00     0.012 A 
HETATM   17  C9  UNK     1      29.552  -9.477  38.535  1.00  0.00     0.002 A 
HETATM   18  C6  UNK     1      30.888  -9.206  38.249  1.00  0.00     0.012 A 
HETATM   19  C11 UNK     1      28.604  -4.706  38.632  1.00  0.00     0.001 A 
HETATM   20  C10 UNK     1      29.939  -4.435  38.345  1.00  0.00     0.001 A 
ENDBRANCH  10  11
ENDBRANCH   7   9
ENDBRANCH   1   7
BRANCH   2  21
HETATM   21  O1  UNK     1      29.060  -5.273  32.670  1.00  0.00    -0.275 OA
BRANCH  21  22
HETATM   22  C26 UNK     1      29.363  -5.167  31.310  1.00  0.00     0.298 C 
HETATM   23  O3  UNK     1      29.827  -4.181  30.759  1.00  0.00    -0.259 OA
BRANCH  22  24
HETATM   24  C16 UNK     1      29.029  -6.421  30.588  1.00  0.00     0.040 A 
HETATM   25  C22 UNK     1      29.990  -7.045  29.794  1.00  0.00     0.018 A 
HETATM   26  C24 UNK     1      29.676  -8.223  29.116  1.00  0.00     0.007 A 
HETATM   27  C19 UNK     1      28.402  -8.777  29.233  1.00  0.00    -0.062 A 
HETATM   28  C25 UNK     1      27.440  -8.152  30.026  1.00  0.00     0.007 A 
HETATM   29  C27 UNK     1      28.065 -10.035  28.506  1.00  0.00     0.048 C 
HETATM   30  C23 UNK     1      27.753  -6.974  30.704  1.00  0.00     0.018 A 
ENDBRANCH  22  24
ENDBRANCH  21  22
ENDBRANCH   2  21
TORSDOF 6
ENDMDL
MODEL 8
REMARK VINA RESULT:      -9.3     16.372     19.460
REMARK  6 active torsions:
REMARK  status: ('A' for Active; 'I' for Inactive)
REMARK    1  A    between atoms: C15_18  and  O1_1 
REMARK    2  A    between atoms: C26_29  and  O1_1 
REMARK    3  A    between atoms: C3_6  and  C8_11 
REMARK    4  A    between atoms: C12_15  and  C14_17 
REMARK    5  A    between atoms: C13_16  and  C14_17 
REMARK    6  A    between atoms: C16_19  and  C26_29 
ROOT
HETATM    1  C12 UNK     1      32.594  -8.695  31.036  1.00  0.00     0.014 A 
HETATM    2  C15 UNK     1      32.710  -7.592  33.595  1.00  0.00     0.079 A 
HETATM    3  C17 UNK     1      31.699  -9.118  32.018  1.00  0.00     0.018 A 
HETATM    4  C18 UNK     1      33.548  -7.722  31.333  1.00  0.00     0.018 A 
HETATM    5  C20 UNK     1      31.757  -8.566  33.298  1.00  0.00     0.038 A 
HETATM    6  C21 UNK     1      33.605  -7.171  32.613  1.00  0.00     0.038 A 
ENDROOT
BRANCH   1   7
HETATM    7  C14 UNK     1      32.532  -9.282  29.675  1.00  0.00     0.182 C 
HETATM    8  O2  UNK     1      32.634 -10.495  29.531  1.00  0.00    -0.288 OA
BRANCH   7   9
HETATM    9  C13 UNK     1      32.379  -8.347  28.525  1.00  0.00     0.056 C 
HETATM   10  C8  UNK     1      31.189  -7.765  28.281  1.00  0.00     0.016 C 
BRANCH  10  11
HETATM   11  C3  UNK     1      29.978  -7.973  29.073  1.00  0.00    -0.025 A 
HETATM   12  C1  UNK     1      29.593  -7.117  30.118  1.00  0.00    -0.016 A 
HETATM   13  C2  UNK     1      28.404  -7.392  30.835  1.00  0.00    -0.025 A 
HETATM   14  C4  UNK     1      30.363  -5.995  30.467  1.00  0.00     0.013 A 
HETATM   15  C5  UNK     1      27.634  -8.513  30.486  1.00  0.00     0.012 A 
HETATM   16  C7  UNK     1      28.019  -6.536  31.880  1.00  0.00     0.012 A 
HETATM   17  C9  UNK     1      28.031  -9.352  29.445  1.00  0.00     0.002 A 
HETATM   18  C6  UNK     1      29.202  -9.083  28.740  1.00  0.00     0.012 A 
HETATM   19  C11 UNK     1      28.797  -5.426  32.214  1.00  0.00     0.001 A 
HETATM   20  C10 UNK     1      29.966  -5.156  31.509  1.00  0.00     0.001 A 
ENDBRANCH  10  11
ENDBRANCH   7   9
ENDBRANCH   1   7
BRANCH   2  21
HETATM   21  O1  UNK     1      32.766  -7.055  34.844  1.00  0.00    -0.275 OA
BRANCH  21  22
HETATM   22  C26 UNK     1      31.908  -5.970  35.043  1.00  0.00     0.298 C 
HETATM   23  O3  UNK     1      31.956  -4.906  34.446  1.00  0.00    -0.259 OA
BRANCH  22  24
HETATM   24  C16 UNK     1      30.913  -6.263  36.106  1.00  0.00     0.040 A 
HETATM   25  C22 UNK     1      29.561  -6.378  35.783  1.00  0.00     0.018 A 
HETATM   26  C24 UNK     1      28.627  -6.653  36.781  1.00  0.00     0.007 A 
HETATM   27  C19 UNK     1      29.044  -6.814  38.102  1.00  0.00    -0.062 A 
HETATM   28  C25 UNK     1      30.396  -6.698  38.425  1.00  0.00     0.007 A 
HETATM   29  C27 UNK     1      28.045  -7.106  39.170  1.00  0.00     0.048 C 
HETATM   30  C23 UNK     1      31.331  -6.423  37.427  1.00  0.00     0.018 A 
ENDBRANCH  22  24
ENDBRANCH  21  22
ENDBRANCH   2  21
TORSDOF 6
ENDMDL
MODEL 9
REMARK VINA RESULT:      -9.2     16.372     19.566
REMARK  6 active torsions:
REMARK  status: ('A' for Active; 'I' for Inactive)
REMARK    1  A    between atoms: C15_18  and  O1_1 
REMARK    2  A    between atoms: C26_29  and  O1_1 
REMARK    3  A    between atoms: C3_6  and  C8_11 
REMARK    4  A    between atoms: C12_15  and  C14_17 
REMARK    5  A    between atoms: C13_16  and  C14_17 
REMARK    6  A    between atoms: C16_19  and  C26_29 
ROOT
HETATM    1  C12 UNK     1      32.968  -8.099  31.519  1.00  0.00     0.014 A 
HETATM    2  C15 UNK     1      33.677  -7.048  34.004  1.00  0.00     0.079 A 
HETATM    3  C17 UNK     1      34.195  -7.456  31.679  1.00  0.00     0.018 A 
HETATM    4  C18 UNK     1      32.095  -8.217  32.601  1.00  0.00     0.018 A 
HETATM    5  C20 UNK     1      34.549  -6.931  32.922  1.00  0.00     0.038 A 
HETATM    6  C21 UNK     1      32.450  -7.691  33.843  1.00  0.00     0.038 A 
ENDROOT
BRANCH   1   7
HETATM    7  C14 UNK     1      32.592  -8.658  30.198  1.00  0.00     0.182 C 
HETATM    8  O2  UNK     1      32.432  -9.867  30.073  1.00  0.00    -0.288 OA
BRANCH   7   9
HETATM    9  C13 UNK     1      32.454  -7.708  29.058  1.00  0.00     0.056 C 
HETATM   10  C8  UNK     1      31.234  -7.278  28.681  1.00  0.00     0.016 C 
BRANCH  10  11
HETATM   11  C3  UNK     1      29.976  -7.673  29.310  1.00  0.00    -0.025 A 
HETATM   12  C1  UNK     1      29.408  -6.971  30.387  1.00  0.00    -0.016 A 
HETATM   13  C2  UNK     1      28.185  -7.422  30.937  1.00  0.00    -0.025 A 
HETATM   14  C4  UNK     1      30.028  -5.834  30.928  1.00  0.00     0.013 A 
HETATM   15  C5  UNK     1      27.565  -8.560  30.397  1.00  0.00     0.012 A 
HETATM   16  C7  UNK     1      27.617  -6.721  32.014  1.00  0.00     0.012 A 
HETATM   17  C9  UNK     1      28.143  -9.244  29.327  1.00  0.00     0.002 A 
HETATM   18  C6  UNK     1      29.347  -8.801  28.785  1.00  0.00     0.012 A 
HETATM   19  C11 UNK     1      28.248  -5.593  32.541  1.00  0.00     0.001 A 
HETATM   20  C10 UNK     1      29.450  -5.150  31.998  1.00  0.00     0.001 A 
ENDBRANCH  10  11
ENDBRANCH   7   9
ENDBRANCH   1   7
BRANCH   2  21
HETATM   21  O1  UNK     1      34.023  -6.536  35.215  1.00  0.00    -0.275 OA
BRANCH  21  22
HETATM   22  C26 UNK     1      33.747  -5.174  35.364  1.00  0.00     0.298 C 
HETATM   23  O3  UNK     1      34.311  -4.265  34.774  1.00  0.00    -0.259 OA
BRANCH  22  24
HETATM   24  C16 UNK     1      32.671  -4.951  36.363  1.00  0.00     0.040 A 
HETATM   25  C22 UNK     1      31.935  -3.766  36.342  1.00  0.00     0.018 A 
HETATM   26  C24 UNK     1      30.924  -3.558  37.280  1.00  0.00     0.007 A 
HETATM   27  C19 UNK     1      30.648  -4.533  38.237  1.00  0.00    -0.062 A 
HETATM   28  C25 UNK     1      31.385  -5.717  38.259  1.00  0.00     0.007 A 
HETATM   29  C27 UNK     1      29.568  -4.309  39.242  1.00  0.00     0.048 C 
HETATM   30  C23 UNK     1      32.396  -5.927  37.321  1.00  0.00     0.018 A 
ENDBRANCH  22  24
ENDBRANCH  21  22
ENDBRANCH   2  21
TORSDOF 6
ENDMDL
MODEL 10
REMARK VINA RESULT:      -9.2     15.647     18.654
REMARK  6 active torsions:
REMARK  status: ('A' for Active; 'I' for Inactive)
REMARK    1  A    between atoms: C15_18  and  O1_1 
REMARK    2  A    between atoms: C26_29  and  O1_1 
REMARK    3  A    between atoms: C3_6  and  C8_11 
REMARK    4  A    between atoms: C12_15  and  C14_17 
REMARK    5  A    between atoms: C13_16  and  C14_17 
REMARK    6  A    between atoms: C16_19  and  C26_29 
ROOT
HETATM    1  C12 UNK     1      32.192  -5.836  34.966  1.00  0.00     0.014 A 
HETATM    2  C15 UNK     1      31.521  -7.890  33.202  1.00  0.00     0.079 A 
HETATM    3  C17 UNK     1      30.865  -6.247  34.848  1.00  0.00     0.018 A 
HETATM    4  C18 UNK     1      33.184  -6.451  34.202  1.00  0.00     0.018 A 
HETATM    5  C20 UNK     1      30.529  -7.274  33.966  1.00  0.00     0.038 A 
HETATM    6  C21 UNK     1      32.848  -7.478  33.320  1.00  0.00     0.038 A 
ENDROOT
BRANCH   1   7
HETATM    7  C14 UNK     1      32.549  -4.744  35.904  1.00  0.00     0.182 C 
HETATM    8  O2  UNK     1      32.167  -3.601  35.679  1.00  0.00    -0.288 OA
BRANCH   7   9
HETATM    9  C13 UNK     1      33.397  -5.090  37.079  1.00  0.00     0.056 C 
HETATM   10  C8  UNK     1      32.826  -5.522  38.220  1.00  0.00     0.016 C 
BRANCH  10  11
HETATM   11  C3  UNK     1      31.389  -5.690  38.426  1.00  0.00    -0.025 A 
HETATM   12  C1  UNK     1      30.748  -6.938  38.352  1.00  0.00    -0.016 A 
HETATM   13  C2  UNK     1      29.351  -7.011  38.565  1.00  0.00    -0.025 A 
HETATM   14  C4  UNK     1      31.464  -8.113  38.072  1.00  0.00     0.013 A 
HETATM   15  C5  UNK     1      28.635  -5.836  38.844  1.00  0.00     0.012 A 
HETATM   16  C7  UNK     1      28.710  -8.259  38.490  1.00  0.00     0.012 A 
HETATM   17  C9  UNK     1      29.288  -4.605  38.915  1.00  0.00     0.002 A 
HETATM   18  C6  UNK     1      30.662  -4.532  38.705  1.00  0.00     0.012 A 
HETATM   19  C11 UNK     1      29.437  -9.417  38.210  1.00  0.00     0.001 A 
HETATM   20  C10 UNK     1      30.811  -9.344  38.002  1.00  0.00     0.001 A 
ENDBRANCH  10  11
ENDBRANCH   7   9
ENDBRANCH   1   7
BRANCH   2  21
HETATM   21  O1  UNK     1      31.193  -8.892  32.342  1.00  0.00    -0.275 OA
BRANCH  21  22
HETATM   22  C26 UNK     1      31.046  -8.484  31.013  1.00  0.00     0.298 C 
HETATM   23  O3  UNK     1      31.911  -8.534  30.154  1.00  0.00    -0.259 OA
BRANCH  22  24
HETATM   24  C16 UNK     1      29.682  -7.952  30.765  1.00  0.00     0.040 A 
HETATM   25  C22 UNK     1      29.503  -6.599  30.476  1.00  0.00     0.018 A 
HETATM   26  C24 UNK     1      28.222  -6.100  30.242  1.00  0.00     0.007 A 
HETATM   27  C19 UNK     1      27.120  -6.952  30.296  1.00  0.00    -0.062 A 
HETATM   28  C25 UNK     1      27.298  -8.305  30.585  1.00  0.00     0.007 A 
HETATM   29  C27 UNK     1      25.750  -6.418  30.047  1.00  0.00     0.048 C 
HETATM   30  C23 UNK     1      28.579  -8.806  30.819  1.00  0.00     0.018 A 
ENDBRANCH  22  24
ENDBRANCH  21  22
ENDBRANCH   2  21
TORSDOF 6
ENDMDL
