MODEL 1
REMARK VINA RESULT:      -7.6      0.000      0.000
REMARK  1 active torsions:
REMARK  status: ('A' for Active; 'I' for Inactive)
REMARK    1  A    between atoms: C5_9  and  N1_4 
ROOT
HETATM    1  O1  UNK     1      19.268   0.813  14.851  1.00  0.00    -0.274 OA
HETATM    2  O2  UNK     1      18.674  -0.966  18.502  1.00  0.00    -0.286 OA
HETATM    3  O3  UNK     1      19.454   2.883  15.793  1.00  0.00    -0.259 OA
HETATM    4  C1  UNK     1      19.064   1.029  17.249  1.00  0.00     0.112 A 
HETATM    5  C2  UNK     1      18.868  -1.213  16.175  1.00  0.00     0.049 A 
HETATM    6  C3  UNK     1      18.853  -0.429  17.417  1.00  0.00     0.203 A 
HETATM    7  C4  UNK     1      19.071  -0.578  14.957  1.00  0.00     0.093 A 
HETATM    8  C5  UNK     1      19.061   1.801  18.345  1.00  0.00     0.021 C 
HETATM    9  C6  UNK     1      19.279   1.679  15.938  1.00  0.00     0.304 A 
HETATM   10  C7  UNK     1      18.678  -2.597  16.208  1.00  0.00     0.018 A 
HETATM   11  C8  UNK     1      19.090  -1.301  13.764  1.00  0.00     0.038 A 
HETATM   12  C9  UNK     1      19.270   3.286  18.236  1.00  0.00     0.069 C 
HETATM   13  C10 UNK     1      18.696  -3.328  15.018  1.00  0.00     0.001 A 
HETATM   14  C11 UNK     1      18.901  -2.682  13.798  1.00  0.00     0.003 A 
ENDROOT
BRANCH   8  15
HETATM   15  N1  UNK     1      18.872   1.317  19.610  1.00  0.00    -0.397 N 
HETATM   16  C12 UNK     1      19.632   1.761  20.747  1.00  0.00     0.146 C 
HETATM   17  H6  UNK     1      18.153   0.622  19.771  1.00  0.00     0.158 HD
ENDBRANCH   8  15
TORSDOF 1
ENDMDL
MODEL 2
REMARK VINA RESULT:      -7.4     13.542     16.156
REMARK  1 active torsions:
REMARK  status: ('A' for Active; 'I' for Inactive)
REMARK    1  A    between atoms: C5_9  and  N1_4 
ROOT
HETATM    1  O1  UNK     1      18.622   1.212  31.676  1.00  0.00    -0.274 OA
HETATM    2  O2  UNK     1      19.648  -2.358  33.422  1.00  0.00    -0.286 OA
HETATM    3  O3  UNK     1      17.622   1.958  33.586  1.00  0.00    -0.259 OA
HETATM    4  C1  UNK     1      18.604  -0.220  33.622  1.00  0.00     0.112 A 
HETATM    5  C2  UNK     1      19.685  -0.992  31.513  1.00  0.00     0.049 A 
HETATM    6  C3  UNK     1      19.339  -1.291  32.909  1.00  0.00     0.203 A 
HETATM    7  C4  UNK     1      19.321   0.226  30.954  1.00  0.00     0.093 A 
HETATM    8  C5  UNK     1      18.259  -0.430  34.901  1.00  0.00     0.021 C 
HETATM    9  C6  UNK     1      18.230   1.070  33.002  1.00  0.00     0.304 A 
HETATM   10  C7  UNK     1      20.378  -1.928  30.738  1.00  0.00     0.018 A 
HETATM   11  C8  UNK     1      19.639   0.532  29.630  1.00  0.00     0.038 A 
HETATM   12  C9  UNK     1      17.512   0.620  35.675  1.00  0.00     0.069 C 
HETATM   13  C10 UNK     1      20.699  -1.628  29.412  1.00  0.00     0.001 A 
HETATM   14  C11 UNK     1      20.329  -0.401  28.859  1.00  0.00     0.003 A 
ENDROOT
BRANCH   8  15
HETATM   15  N1  UNK     1      18.547  -1.581  35.582  1.00  0.00    -0.397 N 
HETATM   16  C12 UNK     1      17.882  -1.967  36.796  1.00  0.00     0.146 C 
HETATM   17  H6  UNK     1      19.251  -2.209  35.215  1.00  0.00     0.158 HD
ENDBRANCH   8  15
TORSDOF 1
ENDMDL
MODEL 3
REMARK VINA RESULT:      -7.3     14.606     18.244
REMARK  1 active torsions:
REMARK  status: ('A' for Active; 'I' for Inactive)
REMARK    1  A    between atoms: C5_9  and  N1_4 
ROOT
HETATM    1  O1  UNK     1      20.015  -2.611  35.114  1.00  0.00    -0.274 OA
HETATM    2  O2  UNK     1      17.768   0.331  33.344  1.00  0.00    -0.286 OA
HETATM    3  O3  UNK     1      20.981  -3.189  33.129  1.00  0.00    -0.259 OA
HETATM    4  C1  UNK     1      19.386  -1.410  33.115  1.00  0.00     0.112 A 
HETATM    5  C2  UNK     1      18.357  -0.814  35.306  1.00  0.00     0.049 A 
HETATM    6  C3  UNK     1      18.442  -0.547  33.864  1.00  0.00     0.203 A 
HETATM    7  C4  UNK     1      19.132  -1.819  35.872  1.00  0.00     0.093 A 
HETATM    8  C5  UNK     1      19.510  -1.217  31.794  1.00  0.00     0.021 C 
HETATM    9  C6  UNK     1      20.200  -2.473  33.743  1.00  0.00     0.304 A 
HETATM   10  C7  UNK     1      17.500  -0.065  36.117  1.00  0.00     0.018 A 
HETATM   11  C8  UNK     1      19.069  -2.091  37.239  1.00  0.00     0.038 A 
HETATM   12  C9  UNK     1      20.451  -2.062  30.981  1.00  0.00     0.069 C 
HETATM   13  C10 UNK     1      17.431  -0.332  37.487  1.00  0.00     0.001 A 
HETATM   14  C11 UNK     1      18.213  -1.343  38.047  1.00  0.00     0.003 A 
ENDROOT
BRANCH   8  15
HETATM   15  N1  UNK     1      18.811  -0.268  31.100  1.00  0.00    -0.397 N 
HETATM   16  C12 UNK     1      19.439   0.739  30.289  1.00  0.00     0.146 C 
HETATM   17  H6  UNK     1      17.799  -0.272  31.138  1.00  0.00     0.158 HD
ENDBRANCH   8  15
TORSDOF 1
ENDMDL
MODEL 4
REMARK VINA RESULT:      -7.1     13.716     16.441
REMARK  1 active torsions:
REMARK  status: ('A' for Active; 'I' for Inactive)
REMARK    1  A    between atoms: C5_9  and  N1_4 
ROOT
HETATM    1  O1  UNK     1      20.583  -2.386  32.099  1.00  0.00    -0.274 OA
HETATM    2  O2  UNK     1      18.200   0.794  33.125  1.00  0.00    -0.286 OA
HETATM    3  O3  UNK     1      20.501  -3.241  34.213  1.00  0.00    -0.259 OA
HETATM    4  C1  UNK     1      19.309  -1.215  33.785  1.00  0.00     0.112 A 
HETATM    5  C2  UNK     1      19.428  -0.318  31.462  1.00  0.00     0.049 A 
HETATM    6  C3  UNK     1      18.909  -0.157  32.827  1.00  0.00     0.203 A 
HETATM    7  C4  UNK     1      20.232  -1.407  31.150  1.00  0.00     0.093 A 
HETATM    8  C5  UNK     1      18.868  -1.126  35.048  1.00  0.00     0.021 C 
HETATM    9  C6  UNK     1      20.167  -2.365  33.426  1.00  0.00     0.304 A 
HETATM   10  C7  UNK     1      19.119   0.618  30.471  1.00  0.00     0.018 A 
HETATM   11  C8  UNK     1      20.737  -1.581  29.861  1.00  0.00     0.038 A 
HETATM   12  C9  UNK     1      19.241  -2.169  36.065  1.00  0.00     0.069 C 
HETATM   13  C10 UNK     1      19.621   0.450  29.178  1.00  0.00     0.001 A 
HETATM   14  C11 UNK     1      20.428  -0.647  28.873  1.00  0.00     0.003 A 
ENDROOT
BRANCH   8  15
HETATM   15  N1  UNK     1      18.070  -0.111  35.501  1.00  0.00    -0.397 N 
HETATM   16  C12 UNK     1      17.848   0.156  36.896  1.00  0.00     0.146 C 
HETATM   17  H6  UNK     1      17.621   0.501  34.831  1.00  0.00     0.158 HD
ENDBRANCH   8  15
TORSDOF 1
ENDMDL
MODEL 5
REMARK VINA RESULT:      -7.1     13.157     16.630
REMARK  1 active torsions:
REMARK  status: ('A' for Active; 'I' for Inactive)
REMARK    1  A    between atoms: C5_9  and  N1_4 
ROOT
HETATM    1  O1  UNK     1      19.531  -1.696  33.248  1.00  0.00    -0.274 OA
HETATM    2  O2  UNK     1      18.237   2.008  32.045  1.00  0.00    -0.286 OA
HETATM    3  O3  UNK     1      20.456  -2.131  31.209  1.00  0.00    -0.259 OA
HETATM    4  C1  UNK     1      19.371  -0.025  31.511  1.00  0.00     0.112 A 
HETATM    5  C2  UNK     1      18.375   0.407  33.756  1.00  0.00     0.049 A 
HETATM    6  C3  UNK     1      18.627   0.903  32.397  1.00  0.00     0.203 A 
HETATM    7  C4  UNK     1      18.827  -0.852  34.129  1.00  0.00     0.093 A 
HETATM    8  C5  UNK     1      19.633   0.369  30.257  1.00  0.00     0.021 C 
HETATM    9  C6  UNK     1      19.841  -1.361  31.936  1.00  0.00     0.304 A 
HETATM   10  C7  UNK     1      17.681   1.193  34.681  1.00  0.00     0.018 A 
HETATM   11  C8  UNK     1      18.600  -1.345  35.415  1.00  0.00     0.038 A 
HETATM   12  C9  UNK     1      20.384  -0.529  29.314  1.00  0.00     0.069 C 
HETATM   13  C10 UNK     1      17.450   0.706  35.970  1.00  0.00     0.001 A 
HETATM   14  C11 UNK     1      17.908  -0.560  36.336  1.00  0.00     0.003 A 
ENDROOT
BRANCH   8  15
HETATM   15  N1  UNK     1      19.249   1.580  29.749  1.00  0.00    -0.397 N 
HETATM   16  C12 UNK     1      18.208   1.731  28.769  1.00  0.00     0.146 C 
HETATM   17  H6  UNK     1      19.702   2.422  30.083  1.00  0.00     0.158 HD
ENDBRANCH   8  15
TORSDOF 1
ENDMDL
MODEL 6
REMARK VINA RESULT:      -7.1     12.793     14.368
REMARK  1 active torsions:
REMARK  status: ('A' for Active; 'I' for Inactive)
REMARK    1  A    between atoms: C5_9  and  N1_4 
ROOT
HETATM    1  O1  UNK     1      19.324   1.338  28.955  1.00  0.00    -0.274 OA
HETATM    2  O2  UNK     1      18.844   0.978  33.015  1.00  0.00    -0.286 OA
HETATM    3  O3  UNK     1      18.549   3.484  28.966  1.00  0.00    -0.259 OA
HETATM    4  C1  UNK     1      18.652   2.327  31.054  1.00  0.00     0.112 A 
HETATM    5  C2  UNK     1      19.506  -0.014  30.992  1.00  0.00     0.049 A 
HETATM    6  C3  UNK     1      18.985   1.093  31.804  1.00  0.00     0.203 A 
HETATM    7  C4  UNK     1      19.655   0.142  29.621  1.00  0.00     0.093 A 
HETATM    8  C5  UNK     1      18.172   3.376  31.738  1.00  0.00     0.021 C 
HETATM    9  C6  UNK     1      18.822   2.467  29.592  1.00  0.00     0.304 A 
HETATM   10  C7  UNK     1      19.853  -1.230  31.590  1.00  0.00     0.018 A 
HETATM   11  C8  UNK     1      20.148  -0.895  28.828  1.00  0.00     0.038 A 
HETATM   12  C9  UNK     1      17.817   4.654  31.031  1.00  0.00     0.069 C 
HETATM   13  C10 UNK     1      20.347  -2.273  30.803  1.00  0.00     0.001 A 
HETATM   14  C11 UNK     1      20.493  -2.106  29.425  1.00  0.00     0.003 A 
ENDROOT
BRANCH   8  15
HETATM   15  N1  UNK     1      17.971   3.368  33.091  1.00  0.00    -0.397 N 
HETATM   16  C12 UNK     1      18.388   4.436  33.957  1.00  0.00     0.146 C 
HETATM   17  H6  UNK     1      17.491   2.584  33.514  1.00  0.00     0.158 HD
ENDBRANCH   8  15
TORSDOF 1
ENDMDL
MODEL 7
REMARK VINA RESULT:      -7.1     15.670     18.237
REMARK  1 active torsions:
REMARK  status: ('A' for Active; 'I' for Inactive)
REMARK    1  A    between atoms: C5_9  and  N1_4 
ROOT
HETATM    1  O1  UNK     1      18.191   7.046  34.130  1.00  0.00    -0.274 OA
HETATM    2  O2  UNK     1      16.026   8.496  30.960  1.00  0.00    -0.286 OA
HETATM    3  O3  UNK     1      16.914   8.189  35.637  1.00  0.00    -0.259 OA
HETATM    4  C1  UNK     1      16.375   8.419  33.321  1.00  0.00     0.112 A 
HETATM    5  C2  UNK     1      17.798   7.152  31.712  1.00  0.00     0.049 A 
HETATM    6  C3  UNK     1      16.666   8.067  31.910  1.00  0.00     0.203 A 
HETATM    7  C4  UNK     1      18.509   6.682  32.808  1.00  0.00     0.093 A 
HETATM    8  C5  UNK     1      15.354   9.250  33.570  1.00  0.00     0.021 C 
HETATM    9  C6  UNK     1      17.149   7.902  34.470  1.00  0.00     0.304 A 
HETATM   10  C7  UNK     1      18.168   6.750  30.425  1.00  0.00     0.018 A 
HETATM   11  C8  UNK     1      19.588   5.812  32.644  1.00  0.00     0.038 A 
HETATM   12  C9  UNK     1      15.012   9.642  34.980  1.00  0.00     0.069 C 
HETATM   13  C10 UNK     1      19.247   5.880  30.254  1.00  0.00     0.001 A 
HETATM   14  C11 UNK     1      19.956   5.412  31.361  1.00  0.00     0.003 A 
ENDROOT
BRANCH   8  15
HETATM   15  N1  UNK     1      14.566   9.794  32.592  1.00  0.00    -0.397 N 
HETATM   16  C12 UNK     1      13.848  11.029  32.753  1.00  0.00     0.146 C 
HETATM   17  H6  UNK     1      14.488   9.321  31.700  1.00  0.00     0.158 HD
ENDBRANCH   8  15
TORSDOF 1
ENDMDL
MODEL 8
REMARK VINA RESULT:      -7.0      1.146      2.732
REMARK  1 active torsions:
REMARK  status: ('A' for Active; 'I' for Inactive)
REMARK    1  A    between atoms: C5_9  and  N1_4 
ROOT
HETATM    1  O1  UNK     1      18.359  -1.266  17.697  1.00  0.00    -0.274 OA
HETATM    2  O2  UNK     1      19.753   1.973  15.597  1.00  0.00    -0.286 OA
HETATM    3  O3  UNK     1      18.260  -0.073  19.640  1.00  0.00    -0.259 OA
HETATM    4  C1  UNK     1      19.023   1.057  17.678  1.00  0.00     0.112 A 
HETATM    5  C2  UNK     1      19.114  -0.286  15.579  1.00  0.00     0.049 A 
HETATM    6  C3  UNK     1      19.336   1.012  16.230  1.00  0.00     0.203 A 
HETATM    7  C4  UNK     1      18.642  -1.361  16.321  1.00  0.00     0.093 A 
HETATM    8  C5  UNK     1      19.205   2.214  18.331  1.00  0.00     0.021 C 
HETATM    9  C6  UNK     1      18.520  -0.104  18.443  1.00  0.00     0.304 A 
HETATM   10  C7  UNK     1      19.375  -0.450  14.216  1.00  0.00     0.018 A 
HETATM   11  C8  UNK     1      18.423  -2.604  15.725  1.00  0.00     0.038 A 
HETATM   12  C9  UNK     1      18.904   2.319  19.800  1.00  0.00     0.069 C 
HETATM   13  C10 UNK     1      19.158  -1.691  13.612  1.00  0.00     0.001 A 
HETATM   14  C11 UNK     1      18.684  -2.766  14.365  1.00  0.00     0.003 A 
ENDROOT
BRANCH   8  15
HETATM   15  N1  UNK     1      19.665   3.355  17.733  1.00  0.00    -0.397 N 
HETATM   16  C12 UNK     1      20.548   4.285  18.382  1.00  0.00     0.146 C 
HETATM   17  H6  UNK     1      19.390   3.559  16.780  1.00  0.00     0.158 HD
ENDBRANCH   8  15
TORSDOF 1
ENDMDL
MODEL 9
REMARK VINA RESULT:      -7.0     12.992     14.929
REMARK  1 active torsions:
REMARK  status: ('A' for Active; 'I' for Inactive)
REMARK    1  A    between atoms: C5_9  and  N1_4 
ROOT
HETATM    1  O1  UNK     1      18.860   0.524  32.770  1.00  0.00    -0.274 OA
HETATM    2  O2  UNK     1      19.155   2.656  29.276  1.00  0.00    -0.286 OA
HETATM    3  O3  UNK     1      18.115   2.347  33.922  1.00  0.00    -0.259 OA
HETATM    4  C1  UNK     1      18.603   2.621  31.599  1.00  0.00     0.112 A 
HETATM    5  C2  UNK     1      19.414   0.602  30.383  1.00  0.00     0.049 A 
HETATM    6  C3  UNK     1      19.063   2.027  30.322  1.00  0.00     0.203 A 
HETATM    7  C4  UNK     1      19.303  -0.088  31.582  1.00  0.00     0.093 A 
HETATM    8  C5  UNK     1      18.267   3.919  31.611  1.00  0.00     0.021 C 
HETATM    9  C6  UNK     1      18.494   1.862  32.863  1.00  0.00     0.304 A 
HETATM   10  C7  UNK     1      19.862  -0.068  29.240  1.00  0.00     0.018 A 
HETATM   11  C8  UNK     1      19.631  -1.442  31.665  1.00  0.00     0.038 A 
HETATM   12  C9  UNK     1      17.794   4.577  32.877  1.00  0.00     0.069 C 
HETATM   13  C10 UNK     1      20.192  -1.423  29.315  1.00  0.00     0.001 A 
HETATM   14  C11 UNK     1      20.077  -2.109  30.525  1.00  0.00     0.003 A 
ENDROOT
BRANCH   8  15
HETATM   15  N1  UNK     1      18.327   4.725  30.507  1.00  0.00    -0.397 N 
HETATM   16  C12 UNK     1      18.952   6.020  30.509  1.00  0.00     0.146 C 
HETATM   17  H6  UNK     1      17.930   4.399  29.635  1.00  0.00     0.158 HD
ENDBRANCH   8  15
TORSDOF 1
ENDMDL
MODEL 10
REMARK VINA RESULT:      -6.9     13.807     15.895
REMARK  1 active torsions:
REMARK  status: ('A' for Active; 'I' for Inactive)
REMARK    1  A    between atoms: C5_9  and  N1_4 
ROOT
HETATM    1  O1  UNK     1      18.032   3.038  33.219  1.00  0.00    -0.274 OA
HETATM    2  O2  UNK     1      19.456   1.702  29.610  1.00  0.00    -0.286 OA
HETATM    3  O3  UNK     1      18.024   0.930  34.095  1.00  0.00    -0.259 OA
HETATM    4  C1  UNK     1      18.762   1.195  31.838  1.00  0.00     0.112 A 
HETATM    5  C2  UNK     1      18.754   3.515  30.925  1.00  0.00     0.049 A 
HETATM    6  C3  UNK     1      19.033   2.093  30.689  1.00  0.00     0.203 A 
HETATM    7  C4  UNK     1      18.273   3.932  32.159  1.00  0.00     0.093 A 
HETATM    8  C5  UNK     1      18.996  -0.116  31.687  1.00  0.00     0.021 C 
HETATM    9  C6  UNK     1      18.250   1.667  33.142  1.00  0.00     0.304 A 
HETATM   10  C7  UNK     1      18.970   4.457  29.914  1.00  0.00     0.018 A 
HETATM   11  C8  UNK     1      18.001   5.278  32.406  1.00  0.00     0.038 A 
HETATM   12  C9  UNK     1      18.740  -1.074  32.817  1.00  0.00     0.069 C 
HETATM   13  C10 UNK     1      18.700   5.807  30.155  1.00  0.00     0.001 A 
HETATM   14  C11 UNK     1      18.216   6.216  31.398  1.00  0.00     0.003 A 
ENDROOT
BRANCH   8  15
HETATM   15  N1  UNK     1      19.469  -0.672  30.530  1.00  0.00    -0.397 N 
HETATM   16  C12 UNK     1      20.194  -1.912  30.489  1.00  0.00     0.146 C 
HETATM   17  H6  UNK     1      19.293  -0.204  29.649  1.00  0.00     0.158 HD
ENDBRANCH   8  15
TORSDOF 1
ENDMDL
