MODEL 1
REMARK VINA RESULT:      -7.5      0.000      0.000
REMARK  4 active torsions:
REMARK  status: ('A' for Active; 'I' for Inactive)
REMARK    1  A    between atoms: C5_8  and  O1_1 
REMARK    2  A    between atoms: C8_11  and  O1_1 
REMARK    3  A    between atoms: C3_6  and  C5_8 
REMARK    4  A    between atoms: C3_6  and  C7_10 
ROOT
HETATM    1  O2  UNK     1      19.167  -0.102  32.839  1.00  0.00    -0.274 OA
HETATM    2  O3  UNK     1      19.951  -2.162  33.379  1.00  0.00    -0.259 OA
HETATM    3  C1  UNK     1      19.268   0.685  30.539  1.00  0.00     0.005 A 
HETATM    4  C2  UNK     1      19.881  -0.600  30.144  1.00  0.00    -0.037 A 
HETATM    5  C4  UNK     1      18.930   0.889  31.873  1.00  0.00     0.092 A 
HETATM    6  C6  UNK     1      20.134  -1.531  31.089  1.00  0.00     0.020 A 
HETATM    7  C8  UNK     1      18.092   3.099  31.427  1.00  0.00     0.071 A 
HETATM    8  C9  UNK     1      18.347   2.074  32.330  1.00  0.00     0.075 A 
HETATM    9  C10 UNK     1      19.006   1.736  29.645  1.00  0.00     0.017 A 
HETATM   10  C11 UNK     1      18.423   2.931  30.085  1.00  0.00     0.038 A 
HETATM   11  C12 UNK     1      20.174  -0.795  28.677  1.00  0.00     0.050 C 
HETATM   12  C13 UNK     1      19.758  -1.312  32.515  1.00  0.00     0.294 A 
HETATM   13  C15 UNK     1      20.812  -2.855  30.835  1.00  0.00     0.055 C 
ENDROOT
BRANCH   7  14
HETATM   14  O1  UNK     1      17.526   4.260  31.851  1.00  0.00    -0.351 OA
BRANCH  14  15
HETATM   15  C5  UNK     1      18.225   4.997  32.853  1.00  0.00     0.175 C 
BRANCH  15  16
HETATM   16  C3  UNK     1      18.775   6.273  32.231  1.00  0.00     0.026 C 
BRANCH  16  17
HETATM   17  C7  UNK     1      20.191   6.074  31.697  1.00  0.00    -0.002 C 
HETATM   18  C14 UNK     1      20.200   5.931  30.184  1.00  0.00     0.005 C 
ENDBRANCH  16  17
ENDBRANCH  15  16
ENDBRANCH  14  15
ENDBRANCH   7  14
TORSDOF 4
ENDMDL
MODEL 2
REMARK VINA RESULT:      -7.4      1.562      2.414
REMARK  4 active torsions:
REMARK  status: ('A' for Active; 'I' for Inactive)
REMARK    1  A    between atoms: C5_8  and  O1_1 
REMARK    2  A    between atoms: C8_11  and  O1_1 
REMARK    3  A    between atoms: C3_6  and  C5_8 
REMARK    4  A    between atoms: C3_6  and  C7_10 
ROOT
HETATM    1  O2  UNK     1      19.551   0.933  29.527  1.00  0.00    -0.274 OA
HETATM    2  O3  UNK     1      20.489  -0.651  28.199  1.00  0.00    -0.259 OA
HETATM    3  C1  UNK     1      19.089   0.455  31.867  1.00  0.00     0.005 A 
HETATM    4  C2  UNK     1      19.648  -0.900  31.683  1.00  0.00    -0.037 A 
HETATM    5  C4  UNK     1      19.061   1.326  30.783  1.00  0.00     0.092 A 
HETATM    6  C6  UNK     1      20.084  -1.276  30.463  1.00  0.00     0.020 A 
HETATM    7  C8  UNK     1      18.043   3.074  32.084  1.00  0.00     0.071 A 
HETATM    8  C9  UNK     1      18.551   2.624  30.871  1.00  0.00     0.075 A 
HETATM    9  C10 UNK     1      18.566   0.930  33.081  1.00  0.00     0.017 A 
HETATM   10  C11 UNK     1      18.049   2.227  33.188  1.00  0.00     0.038 A 
HETATM   11  C12 UNK     1      19.709  -1.785  32.904  1.00  0.00     0.050 C 
HETATM   12  C13 UNK     1      20.064  -0.334  29.306  1.00  0.00     0.294 A 
HETATM   13  C15 UNK     1      20.617  -2.646  30.122  1.00  0.00     0.055 C 
ENDROOT
BRANCH   7  14
HETATM   14  O1  UNK     1      17.541   4.333  32.190  1.00  0.00    -0.351 OA
BRANCH  14  15
HETATM   15  C5  UNK     1      18.229   5.237  33.055  1.00  0.00     0.175 C 
BRANCH  15  16
HETATM   16  C3  UNK     1      18.759   6.400  32.228  1.00  0.00     0.026 C 
BRANCH  16  17
HETATM   17  C7  UNK     1      20.121   6.082  31.617  1.00  0.00    -0.002 C 
HETATM   18  C14 UNK     1      20.025   5.898  30.111  1.00  0.00     0.005 C 
ENDBRANCH  16  17
ENDBRANCH  15  16
ENDBRANCH  14  15
ENDBRANCH   7  14
TORSDOF 4
ENDMDL
MODEL 3
REMARK VINA RESULT:      -6.9      3.144      8.398
REMARK  4 active torsions:
REMARK  status: ('A' for Active; 'I' for Inactive)
REMARK    1  A    between atoms: C5_8  and  O1_1 
REMARK    2  A    between atoms: C8_11  and  O1_1 
REMARK    3  A    between atoms: C3_6  and  C5_8 
REMARK    4  A    between atoms: C3_6  and  C7_10 
ROOT
HETATM    1  O2  UNK     1      16.322   8.252  33.049  1.00  0.00    -0.274 OA
HETATM    2  O3  UNK     1      15.507  10.337  33.422  1.00  0.00    -0.259 OA
HETATM    3  C1  UNK     1      18.659   7.748  33.505  1.00  0.00     0.005 A 
HETATM    4  C2  UNK     1      18.852   9.141  33.957  1.00  0.00    -0.037 A 
HETATM    5  C4  UNK     1      17.399   7.351  33.067  1.00  0.00     0.092 A 
HETATM    6  C6  UNK     1      17.817  10.006  33.902  1.00  0.00     0.020 A 
HETATM    7  C8  UNK     1      18.154   5.114  32.609  1.00  0.00     0.071 A 
HETATM    8  C9  UNK     1      17.130   6.054  32.623  1.00  0.00     0.075 A 
HETATM    9  C10 UNK     1      19.679   6.784  33.476  1.00  0.00     0.017 A 
HETATM   10  C11 UNK     1      19.428   5.479  33.034  1.00  0.00     0.038 A 
HETATM   11  C12 UNK     1      20.221   9.506  34.477  1.00  0.00     0.050 C 
HETATM   12  C13 UNK     1      16.466   9.571  33.445  1.00  0.00     0.294 A 
HETATM   13  C15 UNK     1      17.894  11.467  34.272  1.00  0.00     0.055 C 
ENDROOT
BRANCH   7  14
HETATM   14  O1  UNK     1      17.913   3.846  32.180  1.00  0.00    -0.351 OA
BRANCH  14  15
HETATM   15  C5  UNK     1      18.449   3.476  30.910  1.00  0.00     0.175 C 
BRANCH  15  16
HETATM   16  C3  UNK     1      18.746   1.983  30.919  1.00  0.00     0.026 C 
BRANCH  16  17
HETATM   17  C7  UNK     1      18.977   1.446  29.508  1.00  0.00    -0.002 C 
HETATM   18  C14 UNK     1      17.853   1.852  28.569  1.00  0.00     0.005 C 
ENDBRANCH  16  17
ENDBRANCH  15  16
ENDBRANCH  14  15
ENDBRANCH   7  14
TORSDOF 4
ENDMDL
MODEL 4
REMARK VINA RESULT:      -6.7     23.057     24.682
REMARK  4 active torsions:
REMARK  status: ('A' for Active; 'I' for Inactive)
REMARK    1  A    between atoms: C5_8  and  O1_1 
REMARK    2  A    between atoms: C8_11  and  O1_1 
REMARK    3  A    between atoms: C3_6  and  C5_8 
REMARK    4  A    between atoms: C3_6  and  C7_10 
ROOT
HETATM    1  O2  UNK     1      14.369   4.990   8.590  1.00  0.00    -0.274 OA
HETATM    2  O3  UNK     1      16.407   4.590   9.507  1.00  0.00    -0.259 OA
HETATM    3  C1  UNK     1      13.432   7.235   8.615  1.00  0.00     0.005 A 
HETATM    4  C2  UNK     1      14.648   7.716   9.302  1.00  0.00    -0.037 A 
HETATM    5  C4  UNK     1      13.335   5.888   8.282  1.00  0.00     0.092 A 
HETATM    6  C6  UNK     1      15.620   6.836   9.623  1.00  0.00     0.020 A 
HETATM    7  C8  UNK     1      11.158   6.183   7.303  1.00  0.00     0.071 A 
HETATM    8  C9  UNK     1      12.221   5.350   7.632  1.00  0.00     0.075 A 
HETATM    9  C10 UNK     1      12.344   8.057   8.279  1.00  0.00     0.017 A 
HETATM   10  C11 UNK     1      11.219   7.536   7.628  1.00  0.00     0.038 A 
HETATM   11  C12 UNK     1      14.729   9.195   9.589  1.00  0.00     0.050 C 
HETATM   12  C13 UNK     1      15.517   5.395   9.251  1.00  0.00     0.294 A 
HETATM   13  C15 UNK     1      16.880   7.181  10.378  1.00  0.00     0.055 C 
ENDROOT
BRANCH   7  14
HETATM   14  O1  UNK     1      10.064   5.680   6.671  1.00  0.00    -0.351 OA
BRANCH  14  15
HETATM   15  C5  UNK     1       8.810   6.306   6.942  1.00  0.00     0.175 C 
BRANCH  15  16
HETATM   16  C3  UNK     1       8.095   5.519   8.032  1.00  0.00     0.026 C 
BRANCH  16  17
HETATM   17  C7  UNK     1       8.069   6.283   9.353  1.00  0.00    -0.002 C 
HETATM   18  C14 UNK     1       7.837   7.769   9.132  1.00  0.00     0.005 C 
ENDBRANCH  16  17
ENDBRANCH  15  16
ENDBRANCH  14  15
ENDBRANCH   7  14
TORSDOF 4
ENDMDL
MODEL 5
REMARK VINA RESULT:      -6.7     22.728     24.382
REMARK  4 active torsions:
REMARK  status: ('A' for Active; 'I' for Inactive)
REMARK    1  A    between atoms: C5_8  and  O1_1 
REMARK    2  A    between atoms: C8_11  and  O1_1 
REMARK    3  A    between atoms: C3_6  and  C5_8 
REMARK    4  A    between atoms: C3_6  and  C7_10 
ROOT
HETATM    1  O2  UNK     1      10.712   5.552   9.869  1.00  0.00    -0.274 OA
HETATM    2  O3  UNK     1       8.445   5.669   9.916  1.00  0.00    -0.259 OA
HETATM    3  C1  UNK     1      11.927   6.110   7.837  1.00  0.00     0.005 A 
HETATM    4  C2  UNK     1      10.642   6.406   7.171  1.00  0.00    -0.037 A 
HETATM    5  C4  UNK     1      11.917   5.695   9.165  1.00  0.00     0.092 A 
HETATM    6  C6  UNK     1       9.488   6.232   7.849  1.00  0.00     0.020 A 
HETATM    7  C8  UNK     1      14.314   5.509   9.228  1.00  0.00     0.071 A 
HETATM    8  C9  UNK     1      13.086   5.395   9.869  1.00  0.00     0.075 A 
HETATM    9  C10 UNK     1      13.179   6.212   7.208  1.00  0.00     0.017 A 
HETATM   10  C11 UNK     1      14.361   5.916   7.898  1.00  0.00     0.038 A 
HETATM   11  C12 UNK     1      10.710   6.909   5.749  1.00  0.00     0.050 C 
HETATM   12  C13 UNK     1       9.485   5.799   9.276  1.00  0.00     0.294 A 
HETATM   13  C15 UNK     1       8.109   6.435   7.271  1.00  0.00     0.055 C 
ENDROOT
BRANCH   7  14
HETATM   14  O1  UNK     1      15.464   5.221   9.896  1.00  0.00    -0.351 OA
BRANCH  14  15
HETATM   15  C5  UNK     1      16.538   6.153   9.773  1.00  0.00     0.175 C 
BRANCH  15  16
HETATM   16  C3  UNK     1      16.254   7.352  10.666  1.00  0.00     0.026 C 
BRANCH  16  17
HETATM   17  C7  UNK     1      16.364   8.666   9.897  1.00  0.00    -0.002 C 
HETATM   18  C14 UNK     1      14.994   9.213   9.530  1.00  0.00     0.005 C 
ENDBRANCH  16  17
ENDBRANCH  15  16
ENDBRANCH  14  15
ENDBRANCH   7  14
TORSDOF 4
ENDMDL
MODEL 6
REMARK VINA RESULT:      -6.7      2.806      6.689
REMARK  4 active torsions:
REMARK  status: ('A' for Active; 'I' for Inactive)
REMARK    1  A    between atoms: C5_8  and  O1_1 
REMARK    2  A    between atoms: C8_11  and  O1_1 
REMARK    3  A    between atoms: C3_6  and  C5_8 
REMARK    4  A    between atoms: C3_6  and  C7_10 
ROOT
HETATM    1  O2  UNK     1      18.556   0.657  32.633  1.00  0.00    -0.274 OA
HETATM    2  O3  UNK     1      17.672   2.479  31.608  1.00  0.00    -0.259 OA
HETATM    3  C1  UNK     1      19.940  -0.903  31.382  1.00  0.00     0.005 A 
HETATM    4  C2  UNK     1      19.767  -0.065  30.178  1.00  0.00    -0.037 A 
HETATM    5  C4  UNK     1      19.330  -0.512  32.569  1.00  0.00     0.092 A 
HETATM    6  C6  UNK     1      18.992   1.039  30.245  1.00  0.00     0.020 A 
HETATM    7  C8  UNK     1      20.189  -2.419  33.756  1.00  0.00     0.071 A 
HETATM    8  C9  UNK     1      19.443  -1.246  33.752  1.00  0.00     0.075 A 
HETATM    9  C10 UNK     1      20.685  -2.094  31.408  1.00  0.00     0.017 A 
HETATM   10  C11 UNK     1      20.809  -2.843  32.584  1.00  0.00     0.038 A 
HETATM   11  C12 UNK     1      20.497  -0.501  28.931  1.00  0.00     0.050 C 
HETATM   12  C13 UNK     1      18.351   1.460  31.523  1.00  0.00     0.294 A 
HETATM   13  C15 UNK     1      18.680   1.945  29.080  1.00  0.00     0.055 C 
ENDROOT
BRANCH   7  14
HETATM   14  O1  UNK     1      20.312  -3.148  34.898  1.00  0.00    -0.351 OA
BRANCH  14  15
HETATM   15  C5  UNK     1      20.570  -2.431  36.104  1.00  0.00     0.175 C 
BRANCH  15  16
HETATM   16  C3  UNK     1      20.172  -3.301  37.288  1.00  0.00     0.026 C 
BRANCH  16  17
HETATM   17  C7  UNK     1      20.365  -4.785  36.985  1.00  0.00    -0.002 C 
HETATM   18  C14 UNK     1      21.438  -5.398  37.871  1.00  0.00     0.005 C 
ENDBRANCH  16  17
ENDBRANCH  15  16
ENDBRANCH  14  15
ENDBRANCH   7  14
TORSDOF 4
ENDMDL
MODEL 7
REMARK VINA RESULT:      -6.6     22.606     24.253
REMARK  4 active torsions:
REMARK  status: ('A' for Active; 'I' for Inactive)
REMARK    1  A    between atoms: C5_8  and  O1_1 
REMARK    2  A    between atoms: C8_11  and  O1_1 
REMARK    3  A    between atoms: C3_6  and  C5_8 
REMARK    4  A    between atoms: C3_6  and  C7_10 
ROOT
HETATM    1  O2  UNK     1      14.053   5.630   9.420  1.00  0.00    -0.274 OA
HETATM    2  O3  UNK     1      16.129   4.722   9.558  1.00  0.00    -0.259 OA
HETATM    3  C1  UNK     1      13.746   8.031   9.668  1.00  0.00     0.005 A 
HETATM    4  C2  UNK     1      15.205   8.182   9.844  1.00  0.00    -0.037 A 
HETATM    5  C4  UNK     1      13.221   6.760   9.461  1.00  0.00     0.092 A 
HETATM    6  C6  UNK     1      15.991   7.084   9.837  1.00  0.00     0.020 A 
HETATM    7  C8  UNK     1      10.972   7.604   9.321  1.00  0.00     0.071 A 
HETATM    8  C9  UNK     1      11.853   6.529   9.285  1.00  0.00     0.075 A 
HETATM    9  C10 UNK     1      12.837   9.101   9.707  1.00  0.00     0.017 A 
HETATM   10  C11 UNK     1      11.464   8.889   9.533  1.00  0.00     0.038 A 
HETATM   11  C12 UNK     1      15.731   9.587  10.008  1.00  0.00     0.050 C 
HETATM   12  C13 UNK     1      15.423   5.725   9.601  1.00  0.00     0.294 A 
HETATM   13  C15 UNK     1      17.481   7.089  10.068  1.00  0.00     0.055 C 
ENDROOT
BRANCH   7  14
HETATM   14  O1  UNK     1       9.638   7.400   9.153  1.00  0.00    -0.351 OA
BRANCH  14  15
HETATM   15  C5  UNK     1       9.239   6.179   8.531  1.00  0.00     0.175 C 
BRANCH  15  16
HETATM   16  C3  UNK     1       8.663   6.493   7.158  1.00  0.00     0.026 C 
BRANCH  16  17
HETATM   17  C7  UNK     1       9.570   5.989   6.038  1.00  0.00    -0.002 C 
HETATM   18  C14 UNK     1      10.745   6.926   5.810  1.00  0.00     0.005 C 
ENDBRANCH  16  17
ENDBRANCH  15  16
ENDBRANCH  14  15
ENDBRANCH   7  14
TORSDOF 4
ENDMDL
MODEL 8
REMARK VINA RESULT:      -6.5      2.640      4.736
REMARK  4 active torsions:
REMARK  status: ('A' for Active; 'I' for Inactive)
REMARK    1  A    between atoms: C5_8  and  O1_1 
REMARK    2  A    between atoms: C8_11  and  O1_1 
REMARK    3  A    between atoms: C3_6  and  C5_8 
REMARK    4  A    between atoms: C3_6  and  C7_10 
ROOT
HETATM    1  O2  UNK     1      17.983   3.358  33.444  1.00  0.00    -0.274 OA
HETATM    2  O3  UNK     1      18.220   1.146  32.994  1.00  0.00    -0.259 OA
HETATM    3  C1  UNK     1      18.347   5.011  31.696  1.00  0.00     0.005 A 
HETATM    4  C2  UNK     1      18.638   3.917  30.746  1.00  0.00    -0.037 A 
HETATM    5  C4  UNK     1      18.028   4.693  33.012  1.00  0.00     0.092 A 
HETATM    6  C6  UNK     1      18.625   2.640  31.182  1.00  0.00     0.020 A 
HETATM    7  C8  UNK     1      17.773   7.008  33.614  1.00  0.00     0.071 A 
HETATM    8  C9  UNK     1      17.740   5.666  33.973  1.00  0.00     0.075 A 
HETATM    9  C10 UNK     1      18.380   6.374  31.357  1.00  0.00     0.017 A 
HETATM   10  C11 UNK     1      18.095   7.362  32.307  1.00  0.00     0.038 A 
HETATM   11  C12 UNK     1      18.921   4.311  29.317  1.00  0.00     0.050 C 
HETATM   12  C13 UNK     1      18.269   2.304  32.592  1.00  0.00     0.294 A 
HETATM   13  C15 UNK     1      18.964   1.437  30.338  1.00  0.00     0.055 C 
ENDROOT
BRANCH   7  14
HETATM   14  O1  UNK     1      17.496   7.970  34.535  1.00  0.00    -0.351 OA
BRANCH  14  15
HETATM   15  C5  UNK     1      16.543   8.967  34.168  1.00  0.00     0.175 C 
BRANCH  15  16
HETATM   16  C3  UNK     1      15.144   8.379  34.294  1.00  0.00     0.026 C 
BRANCH  16  17
HETATM   17  C7  UNK     1      14.357   8.513  32.993  1.00  0.00    -0.002 C 
HETATM   18  C14 UNK     1      14.309   7.198  32.234  1.00  0.00     0.005 C 
ENDBRANCH  16  17
ENDBRANCH  15  16
ENDBRANCH  14  15
ENDBRANCH   7  14
TORSDOF 4
ENDMDL
MODEL 9
REMARK VINA RESULT:      -6.5      1.309      6.227
REMARK  4 active torsions:
REMARK  status: ('A' for Active; 'I' for Inactive)
REMARK    1  A    between atoms: C5_8  and  O1_1 
REMARK    2  A    between atoms: C8_11  and  O1_1 
REMARK    3  A    between atoms: C3_6  and  C5_8 
REMARK    4  A    between atoms: C3_6  and  C7_10 
ROOT
HETATM    1  O2  UNK     1      17.855   4.195  33.616  1.00  0.00    -0.274 OA
HETATM    2  O3  UNK     1      17.389   6.196  34.581  1.00  0.00    -0.259 OA
HETATM    3  C1  UNK     1      18.530   4.087  31.281  1.00  0.00     0.005 A 
HETATM    4  C2  UNK     1      18.428   5.558  31.202  1.00  0.00    -0.037 A 
HETATM    5  C4  UNK     1      18.242   3.456  32.487  1.00  0.00     0.092 A 
HETATM    6  C6  UNK     1      18.022   6.254  32.285  1.00  0.00     0.020 A 
HETATM    7  C8  UNK     1      18.684   1.277  31.568  1.00  0.00     0.071 A 
HETATM    8  C9  UNK     1      18.314   2.069  32.648  1.00  0.00     0.075 A 
HETATM    9  C10 UNK     1      18.896   3.266  30.202  1.00  0.00     0.017 A 
HETATM   10  C11 UNK     1      18.974   1.875  30.345  1.00  0.00     0.038 A 
HETATM   11  C12 UNK     1      18.807   6.199  29.889  1.00  0.00     0.050 C 
HETATM   12  C13 UNK     1      17.727   5.573  33.579  1.00  0.00     0.294 A 
HETATM   13  C15 UNK     1      17.814   7.748  32.322  1.00  0.00     0.055 C 
ENDROOT
BRANCH   7  14
HETATM   14  O1  UNK     1      18.760  -0.074  31.704  1.00  0.00    -0.351 OA
BRANCH  14  15
HETATM   15  C5  UNK     1      20.057  -0.664  31.620  1.00  0.00     0.175 C 
BRANCH  15  16
HETATM   16  C3  UNK     1      20.033  -1.754  30.558  1.00  0.00     0.026 C 
BRANCH  16  17
HETATM   17  C7  UNK     1      20.670  -1.282  29.253  1.00  0.00    -0.002 C 
HETATM   18  C14 UNK     1      19.625  -0.754  28.284  1.00  0.00     0.005 C 
ENDBRANCH  16  17
ENDBRANCH  15  16
ENDBRANCH  14  15
ENDBRANCH   7  14
TORSDOF 4
ENDMDL
MODEL 10
REMARK VINA RESULT:      -6.4     22.776     24.550
REMARK  4 active torsions:
REMARK  status: ('A' for Active; 'I' for Inactive)
REMARK    1  A    between atoms: C5_8  and  O1_1 
REMARK    2  A    between atoms: C8_11  and  O1_1 
REMARK    3  A    between atoms: C3_6  and  C5_8 
REMARK    4  A    between atoms: C3_6  and  C7_10 
ROOT
HETATM    1  O2  UNK     1      10.365   5.284   8.028  1.00  0.00    -0.274 OA
HETATM    2  O3  UNK     1       8.117   5.097   7.778  1.00  0.00    -0.259 OA
HETATM    3  C1  UNK     1      11.333   7.319   8.946  1.00  0.00     0.005 A 
HETATM    4  C2  UNK     1       9.973   7.880   9.089  1.00  0.00    -0.037 A 
HETATM    5  C4  UNK     1      11.481   6.039   8.421  1.00  0.00     0.092 A 
HETATM    6  C6  UNK     1       8.911   7.157   8.675  1.00  0.00     0.020 A 
HETATM    7  C8  UNK     1      13.877   6.130   8.615  1.00  0.00     0.071 A 
HETATM    8  C9  UNK     1      12.730   5.434   8.253  1.00  0.00     0.075 A 
HETATM    9  C10 UNK     1      12.506   8.005   9.300  1.00  0.00     0.017 A 
HETATM   10  C11 UNK     1      13.765   7.416   9.137  1.00  0.00     0.038 A 
HETATM   11  C12 UNK     1       9.862   9.248   9.716  1.00  0.00     0.050 C 
HETATM   12  C13 UNK     1       9.076   5.780   8.126  1.00  0.00     0.294 A 
HETATM   13  C15 UNK     1       7.480   7.633   8.705  1.00  0.00     0.055 C 
ENDROOT
BRANCH   7  14
HETATM   14  O1  UNK     1      15.102   5.559   8.459  1.00  0.00    -0.351 OA
BRANCH  14  15
HETATM   15  C5  UNK     1      15.897   5.392   9.633  1.00  0.00     0.175 C 
BRANCH  15  16
HETATM   16  C3  UNK     1      17.137   6.266   9.514  1.00  0.00     0.026 C 
BRANCH  16  17
HETATM   17  C7  UNK     1      17.133   7.392  10.545  1.00  0.00    -0.002 C 
HETATM   18  C14 UNK     1      17.147   8.758   9.876  1.00  0.00     0.005 C 
ENDBRANCH  16  17
ENDBRANCH  15  16
ENDBRANCH  14  15
ENDBRANCH   7  14
TORSDOF 4
ENDMDL
