MODEL 1
REMARK VINA RESULT:      -9.0      0.000      0.000
REMARK  4 active torsions:
REMARK  status: ('A' for Active; 'I' for Inactive)
REMARK    1  A    between atoms: C17_26  and  O3_6 
REMARK       I    between atoms: C14_23  and  N1_8 
REMARK    2  A    between atoms: N1_8  and  N2_9 
REMARK    3  A    between atoms: C11_20  and  C4_13 
REMARK    4  A    between atoms: C10_19  and  C14_23 
ROOT
HETATM    1  O4  UNK     1      17.445  -0.928  34.803  1.00  0.00    -0.266 OA
HETATM    2  N1  UNK     1      19.604  -1.706  34.500  1.00  0.00    -0.243 N 
HETATM    3  C14 UNK     1      18.516  -0.905  34.204  1.00  0.00     0.271 C 
HETATM    4  H8  UNK     1      20.465  -1.713  33.963  1.00  0.00     0.192 HD
ENDROOT
BRANCH   2   5
HETATM    5  N2  UNK     1      19.498  -2.588  35.522  1.00  0.00    -0.183 NA
HETATM    6  C11 UNK     1      20.111  -3.709  35.316  1.00  0.00     0.156 C 
BRANCH   6   7
HETATM    7  C4  UNK     1      20.116  -4.794  36.298  1.00  0.00     0.056 A 
HETATM    8  C3  UNK     1      19.900  -6.215  35.949  1.00  0.00     0.198 A 
HETATM    9  C1  UNK     1      19.937  -7.167  37.074  1.00  0.00     0.050 A 
HETATM   10  O2  UNK     1      19.702  -6.580  34.798  1.00  0.00    -0.286 OA
HETATM   11  C2  UNK     1      20.168  -6.686  38.364  1.00  0.00     0.089 A 
HETATM   12  C5  UNK     1      19.742  -8.534  36.856  1.00  0.00     0.042 A 
HETATM   13  O1  UNK     1      20.366  -5.355  38.636  1.00  0.00    -0.321 OA
HETATM   14  C6  UNK     1      20.208  -7.571  39.442  1.00  0.00     0.040 A 
HETATM   15  C7  UNK     1      20.327  -4.476  37.579  1.00  0.00     0.159 A 
HETATM   16  C9  UNK     1      20.014  -8.936  39.228  1.00  0.00     0.026 A 
HETATM   17  C8  UNK     1      19.782  -9.415  37.938  1.00  0.00     0.035 A 
HETATM   18 Cl1  UNK     1      19.543 -11.101  37.680  1.00  0.00    -0.084 Cl
ENDBRANCH   6   7
ENDBRANCH   2   5
BRANCH   3  19
HETATM   19  C10 UNK     1      18.692   0.026  33.058  1.00  0.00     0.036 A 
HETATM   20  C12 UNK     1      19.210  -0.446  31.851  1.00  0.00     0.039 A 
HETATM   21  C16 UNK     1      19.374   0.427  30.776  1.00  0.00     0.046 A 
HETATM   22 Br2  UNK     1      20.079  -0.254  29.152  1.00  0.00    -0.048 Br
HETATM   23  C17 UNK     1      19.021   1.770  30.906  1.00  0.00     0.100 A 
HETATM   24  C15 UNK     1      18.502   2.241  32.112  1.00  0.00     0.046 A 
HETATM   25 Br1  UNK     1      18.009   4.058  32.330  1.00  0.00    -0.048 Br
HETATM   26  C13 UNK     1      18.338   1.369  33.188  1.00  0.00     0.039 A 
BRANCH  23  27
HETATM   27  O3  UNK     1      19.180   2.623  29.851  1.00  0.00    -0.358 OA
HETATM   28  H9  UNK     1      19.509   2.114  29.091  1.00  0.00     0.217 HD
ENDBRANCH  23  27
ENDBRANCH   3  19
TORSDOF 4
ENDMDL
MODEL 2
REMARK VINA RESULT:      -9.0      0.045      1.854
REMARK  4 active torsions:
REMARK  status: ('A' for Active; 'I' for Inactive)
REMARK    1  A    between atoms: C17_26  and  O3_6 
REMARK       I    between atoms: C14_23  and  N1_8 
REMARK    2  A    between atoms: N1_8  and  N2_9 
REMARK    3  A    between atoms: C11_20  and  C4_13 
REMARK    4  A    between atoms: C10_19  and  C14_23 
ROOT
HETATM    1  O4  UNK     1      17.413  -0.897  34.802  1.00  0.00    -0.266 OA
HETATM    2  N1  UNK     1      19.568  -1.684  34.492  1.00  0.00    -0.243 N 
HETATM    3  C14 UNK     1      18.484  -0.875  34.202  1.00  0.00     0.271 C 
HETATM    4  H8  UNK     1      20.428  -1.692  33.955  1.00  0.00     0.192 HD
ENDROOT
BRANCH   2   5
HETATM    5  N2  UNK     1      19.458  -2.573  35.507  1.00  0.00    -0.183 NA
HETATM    6  C11 UNK     1      20.107  -3.675  35.314  1.00  0.00     0.156 C 
BRANCH   6   7
HETATM    7  C4  UNK     1      20.115  -4.764  36.293  1.00  0.00     0.056 A 
HETATM    8  C3  UNK     1      19.899  -6.184  35.939  1.00  0.00     0.198 A 
HETATM    9  C1  UNK     1      19.939  -7.140  37.060  1.00  0.00     0.050 A 
HETATM   10  O2  UNK     1      19.698  -6.545  34.787  1.00  0.00    -0.286 OA
HETATM   11  C2  UNK     1      20.173  -6.664  38.352  1.00  0.00     0.089 A 
HETATM   12  C5  UNK     1      19.744  -8.506  36.838  1.00  0.00     0.042 A 
HETATM   13  O1  UNK     1      20.371  -5.334  38.628  1.00  0.00    -0.321 OA
HETATM   14  C6  UNK     1      20.216  -7.552  39.427  1.00  0.00     0.040 A 
HETATM   15  C7  UNK     1      20.330  -4.451  37.575  1.00  0.00     0.159 A 
HETATM   16  C9  UNK     1      20.022  -8.917  39.207  1.00  0.00     0.026 A 
HETATM   17  C8  UNK     1      19.787  -9.391  37.916  1.00  0.00     0.035 A 
HETATM   18 Cl1  UNK     1      19.548 -11.077  37.652  1.00  0.00    -0.084 Cl
ENDBRANCH   6   7
ENDBRANCH   2   5
BRANCH   3  19
HETATM   19  C10 UNK     1      18.664   0.063  33.063  1.00  0.00     0.036 A 
HETATM   20  C12 UNK     1      18.320   1.407  33.206  1.00  0.00     0.039 A 
HETATM   21  C16 UNK     1      18.489   2.287  32.138  1.00  0.00     0.046 A 
HETATM   22 Br2  UNK     1      18.010   4.107  32.374  1.00  0.00    -0.048 Br
HETATM   23  C17 UNK     1      19.003   1.823  30.926  1.00  0.00     0.100 A 
HETATM   24  C15 UNK     1      19.348   0.480  30.783  1.00  0.00     0.046 A 
HETATM   25 Br1  UNK     1      20.050  -0.190  29.155  1.00  0.00    -0.048 Br
HETATM   26  C13 UNK     1      19.179  -0.401  31.852  1.00  0.00     0.039 A 
BRANCH  23  27
HETATM   27  O3  UNK     1      19.170   2.686  29.880  1.00  0.00    -0.358 OA
HETATM   28  H9  UNK     1      18.794   2.278  29.082  1.00  0.00     0.217 HD
ENDBRANCH  23  27
ENDBRANCH   3  19
TORSDOF 4
ENDMDL
MODEL 3
REMARK VINA RESULT:      -8.7      7.924     13.157
REMARK  4 active torsions:
REMARK  status: ('A' for Active; 'I' for Inactive)
REMARK    1  A    between atoms: C17_26  and  O3_6 
REMARK       I    between atoms: C14_23  and  N1_8 
REMARK    2  A    between atoms: N1_8  and  N2_9 
REMARK    3  A    between atoms: C11_20  and  C4_13 
REMARK    4  A    between atoms: C10_19  and  C14_23 
ROOT
HETATM    1  O4  UNK     1      18.789   4.414  30.367  1.00  0.00    -0.266 OA
HETATM    2  N1  UNK     1      17.553   4.247  32.318  1.00  0.00    -0.243 N 
HETATM    3  C14 UNK     1      18.350   3.750  31.302  1.00  0.00     0.271 C 
HETATM    4  H8  UNK     1      17.155   3.676  33.055  1.00  0.00     0.192 HD
ENDROOT
BRANCH   2   5
HETATM    5  N2  UNK     1      17.222   5.560  32.296  1.00  0.00    -0.183 NA
HETATM    6  C11 UNK     1      17.262   6.132  33.455  1.00  0.00     0.156 C 
BRANCH   6   7
HETATM    7  C4  UNK     1      16.937   7.547  33.645  1.00  0.00     0.056 A 
HETATM    8  C3  UNK     1      15.595   8.034  34.029  1.00  0.00     0.198 A 
HETATM    9  C1  UNK     1      15.456   9.495  34.170  1.00  0.00     0.050 A 
HETATM   10  O2  UNK     1      14.655   7.273  34.218  1.00  0.00    -0.286 OA
HETATM   11  C2  UNK     1      16.567  10.309  33.941  1.00  0.00     0.089 A 
HETATM   12  C5  UNK     1      14.229  10.062  34.527  1.00  0.00     0.042 A 
HETATM   13  O1  UNK     1      17.795   9.806  33.589  1.00  0.00    -0.321 OA
HETATM   14  C6  UNK     1      16.457  11.693  34.070  1.00  0.00     0.040 A 
HETATM   15  C7  UNK     1      17.912   8.442  33.458  1.00  0.00     0.159 A 
HETATM   16  C9  UNK     1      15.234  12.262  34.427  1.00  0.00     0.026 A 
HETATM   17  C8  UNK     1      14.124  11.448  34.654  1.00  0.00     0.035 A 
HETATM   18 Cl1  UNK     1      12.616  12.157  35.093  1.00  0.00    -0.084 Cl
ENDBRANCH   6   7
ENDBRANCH   2   5
BRANCH   3  19
HETATM   19  C10 UNK     1      18.659   2.298  31.374  1.00  0.00     0.036 A 
HETATM   20  C12 UNK     1      18.425   1.594  32.556  1.00  0.00     0.039 A 
HETATM   21  C16 UNK     1      18.714   0.232  32.623  1.00  0.00     0.046 A 
HETATM   22 Br2  UNK     1      18.381  -0.689  34.248  1.00  0.00    -0.048 Br
HETATM   23  C17 UNK     1      19.236  -0.428  31.510  1.00  0.00     0.100 A 
HETATM   24  C15 UNK     1      19.468   0.275  30.329  1.00  0.00     0.046 A 
HETATM   25 Br1  UNK     1      20.175  -0.582  28.794  1.00  0.00    -0.048 Br
HETATM   26  C13 UNK     1      19.180   1.639  30.260  1.00  0.00     0.039 A 
BRANCH  23  27
HETATM   27  O3  UNK     1      19.517  -1.763  31.577  1.00  0.00    -0.358 OA
HETATM   28  H9  UNK     1      18.970  -2.157  32.277  1.00  0.00     0.217 HD
ENDBRANCH  23  27
ENDBRANCH   3  19
TORSDOF 4
ENDMDL
MODEL 4
REMARK VINA RESULT:      -8.6      7.904     13.093
REMARK  4 active torsions:
REMARK  status: ('A' for Active; 'I' for Inactive)
REMARK    1  A    between atoms: C17_26  and  O3_6 
REMARK       I    between atoms: C14_23  and  N1_8 
REMARK    2  A    between atoms: N1_8  and  N2_9 
REMARK    3  A    between atoms: C11_20  and  C4_13 
REMARK    4  A    between atoms: C10_19  and  C14_23 
ROOT
HETATM    1  O4  UNK     1      18.710   4.385  30.335  1.00  0.00    -0.266 OA
HETATM    2  N1  UNK     1      17.648   4.285  32.390  1.00  0.00    -0.243 N 
HETATM    3  C14 UNK     1      18.356   3.754  31.327  1.00  0.00     0.271 C 
HETATM    4  H8  UNK     1      17.316   3.740  33.178  1.00  0.00     0.192 HD
ENDROOT
BRANCH   2   5
HETATM    5  N2  UNK     1      17.312   5.597  32.352  1.00  0.00    -0.183 NA
HETATM    6  C11 UNK     1      17.297   6.170  33.512  1.00  0.00     0.156 C 
BRANCH   6   7
HETATM    7  C4  UNK     1      16.959   7.583  33.685  1.00  0.00     0.056 A 
HETATM    8  C3  UNK     1      15.607   8.063  34.048  1.00  0.00     0.198 A 
HETATM    9  C1  UNK     1      15.454   9.524  34.175  1.00  0.00     0.050 A 
HETATM   10  O2  UNK     1      14.672   7.295  34.231  1.00  0.00    -0.286 OA
HETATM   11  C2  UNK     1      16.562  10.345  33.953  1.00  0.00     0.089 A 
HETATM   12  C5  UNK     1      14.219  10.083  34.511  1.00  0.00     0.042 A 
HETATM   13  O1  UNK     1      17.798   9.850  33.620  1.00  0.00    -0.321 OA
HETATM   14  C6  UNK     1      16.438  11.729  34.069  1.00  0.00     0.040 A 
HETATM   15  C7  UNK     1      17.928   8.486  33.503  1.00  0.00     0.159 A 
HETATM   16  C9  UNK     1      15.206  12.291  34.405  1.00  0.00     0.026 A 
HETATM   17  C8  UNK     1      14.100  11.469  34.626  1.00  0.00     0.035 A 
HETATM   18 Cl1  UNK     1      12.581  12.168  35.039  1.00  0.00    -0.084 Cl
ENDBRANCH   6   7
ENDBRANCH   2   5
BRANCH   3  19
HETATM   19  C10 UNK     1      18.673   2.305  31.422  1.00  0.00     0.036 A 
HETATM   20  C12 UNK     1      19.219   1.638  30.325  1.00  0.00     0.039 A 
HETATM   21  C16 UNK     1      19.518   0.279  30.415  1.00  0.00     0.046 A 
HETATM   22 Br2  UNK     1      20.260  -0.590  28.901  1.00  0.00    -0.048 Br
HETATM   23  C17 UNK     1      19.272  -0.414  31.600  1.00  0.00     0.100 A 
HETATM   24  C15 UNK     1      18.727   0.253  32.697  1.00  0.00     0.046 A 
HETATM   25 Br1  UNK     1      18.379  -0.650  34.327  1.00  0.00    -0.048 Br
HETATM   26  C13 UNK     1      18.428   1.613  32.608  1.00  0.00     0.039 A 
BRANCH  23  27
HETATM   27  O3  UNK     1      19.566  -1.745  31.687  1.00  0.00    -0.358 OA
HETATM   28  H9  UNK     1      19.739  -2.080  30.791  1.00  0.00     0.217 HD
ENDBRANCH  23  27
ENDBRANCH   3  19
TORSDOF 4
ENDMDL
MODEL 5
REMARK VINA RESULT:      -8.6      6.936      9.592
REMARK  4 active torsions:
REMARK  status: ('A' for Active; 'I' for Inactive)
REMARK    1  A    between atoms: C17_26  and  O3_6 
REMARK       I    between atoms: C14_23  and  N1_8 
REMARK    2  A    between atoms: N1_8  and  N2_9 
REMARK    3  A    between atoms: C11_20  and  C4_13 
REMARK    4  A    between atoms: C10_19  and  C14_23 
ROOT
HETATM    1  O4  UNK     1      19.943   6.810  32.824  1.00  0.00    -0.266 OA
HETATM    2  N1  UNK     1      18.047   5.745  32.029  1.00  0.00    -0.243 N 
HETATM    3  C14 UNK     1      18.732   6.789  32.624  1.00  0.00     0.271 C 
HETATM    4  H8  UNK     1      17.040   5.718  31.918  1.00  0.00     0.192 HD
ENDROOT
BRANCH   2   5
HETATM    5  N2  UNK     1      18.748   4.656  31.631  1.00  0.00    -0.183 NA
HETATM    6  C11 UNK     1      18.013   3.697  31.168  1.00  0.00     0.156 C 
BRANCH   6   7
HETATM    7  C4  UNK     1      18.579   2.436  30.687  1.00  0.00     0.056 A 
HETATM    8  C3  UNK     1      18.978   1.325  31.579  1.00  0.00     0.198 A 
HETATM    9  C1  UNK     1      19.532   0.132  30.914  1.00  0.00     0.050 A 
HETATM   10  O2  UNK     1      18.856   1.390  32.795  1.00  0.00    -0.286 OA
HETATM   11  C2  UNK     1      19.644   0.121  29.522  1.00  0.00     0.089 A 
HETATM   12  C5  UNK     1      19.943  -0.974  31.662  1.00  0.00     0.042 A 
HETATM   13  O1  UNK     1      19.257   1.178  28.737  1.00  0.00    -0.321 OA
HETATM   14  C6  UNK     1      20.166  -0.999  28.873  1.00  0.00     0.040 A 
HETATM   15  C7  UNK     1      18.743   2.286  29.369  1.00  0.00     0.159 A 
HETATM   16  C9  UNK     1      20.577  -2.104  29.618  1.00  0.00     0.026 A 
HETATM   17  C8  UNK     1      20.465  -2.092  31.009  1.00  0.00     0.035 A 
HETATM   18 Cl1  UNK     1      20.974  -3.460  31.923  1.00  0.00    -0.084 Cl
ENDBRANCH   6   7
ENDBRANCH   2   5
BRANCH   3  19
HETATM   19  C10 UNK     1      17.900   7.943  33.056  1.00  0.00     0.036 A 
HETATM   20  C12 UNK     1      18.512   9.112  33.507  1.00  0.00     0.039 A 
HETATM   21  C16 UNK     1      17.732  10.195  33.912  1.00  0.00     0.046 A 
HETATM   22 Br2  UNK     1      18.604  11.767  34.517  1.00  0.00    -0.048 Br
HETATM   23  C17 UNK     1      16.341  10.109  33.865  1.00  0.00     0.100 A 
HETATM   24  C15 UNK     1      15.729   8.941  33.414  1.00  0.00     0.046 A 
HETATM   25 Br1  UNK     1      13.842   8.784  33.334  1.00  0.00    -0.048 Br
HETATM   26  C13 UNK     1      16.508   7.857  33.009  1.00  0.00     0.039 A 
BRANCH  23  27
HETATM   27  O3  UNK     1      15.578  11.171  34.260  1.00  0.00    -0.358 OA
HETATM   28  H9  UNK     1      15.018  10.888  35.003  1.00  0.00     0.217 HD
ENDBRANCH  23  27
ENDBRANCH   3  19
TORSDOF 4
ENDMDL
MODEL 6
REMARK VINA RESULT:      -8.5      7.925     13.254
REMARK  4 active torsions:
REMARK  status: ('A' for Active; 'I' for Inactive)
REMARK    1  A    between atoms: C17_26  and  O3_6 
REMARK       I    between atoms: C14_23  and  N1_8 
REMARK    2  A    between atoms: N1_8  and  N2_9 
REMARK    3  A    between atoms: C11_20  and  C4_13 
REMARK    4  A    between atoms: C10_19  and  C14_23 
ROOT
HETATM    1  O4  UNK     1      18.753   4.326  30.413  1.00  0.00    -0.266 OA
HETATM    2  N1  UNK     1      17.533   4.181  32.375  1.00  0.00    -0.243 N 
HETATM    3  C14 UNK     1      18.335   3.677  31.367  1.00  0.00     0.271 C 
HETATM    4  H8  UNK     1      17.151   3.621  33.129  1.00  0.00     0.192 HD
ENDROOT
BRANCH   2   5
HETATM    5  N2  UNK     1      17.170   5.485  32.321  1.00  0.00    -0.183 NA
HETATM    6  C11 UNK     1      17.201   6.088  33.466  1.00  0.00     0.156 C 
BRANCH   6   7
HETATM    7  C4  UNK     1      16.844   7.499  33.620  1.00  0.00     0.056 A 
HETATM    8  C3  UNK     1      17.840   8.584  33.760  1.00  0.00     0.198 A 
HETATM    9  C1  UNK     1      17.293   9.945  33.909  1.00  0.00     0.050 A 
HETATM   10  O2  UNK     1      19.044   8.367  33.755  1.00  0.00    -0.286 OA
HETATM   11  C2  UNK     1      15.908  10.125  33.907  1.00  0.00     0.089 A 
HETATM   12  C5  UNK     1      18.146  11.043  34.052  1.00  0.00     0.042 A 
HETATM   13  O1  UNK     1      15.024   9.083  33.770  1.00  0.00    -0.321 OA
HETATM   14  C6  UNK     1      15.370  11.404  34.045  1.00  0.00     0.040 A 
HETATM   15  C7  UNK     1      15.546   7.818  33.634  1.00  0.00     0.159 A 
HETATM   16  C9  UNK     1      16.220  12.502  34.188  1.00  0.00     0.026 A 
HETATM   17  C8  UNK     1      17.603  12.321  34.191  1.00  0.00     0.035 A 
HETATM   18 Cl1  UNK     1      18.646  13.681  34.367  1.00  0.00    -0.084 Cl
ENDBRANCH   6   7
ENDBRANCH   2   5
BRANCH   3  19
HETATM   19  C10 UNK     1      18.677   2.234  31.476  1.00  0.00     0.036 A 
HETATM   20  C12 UNK     1      18.437   1.548  32.666  1.00  0.00     0.039 A 
HETATM   21  C16 UNK     1      18.757   0.195  32.767  1.00  0.00     0.046 A 
HETATM   22 Br2  UNK     1      18.413  -0.701  34.403  1.00  0.00    -0.048 Br
HETATM   23  C17 UNK     1      19.319  -0.473  31.679  1.00  0.00     0.100 A 
HETATM   24  C15 UNK     1      19.558   0.213  30.488  1.00  0.00     0.046 A 
HETATM   25 Br1  UNK     1      20.318  -0.657  28.986  1.00  0.00    -0.048 Br
HETATM   26  C13 UNK     1      19.238   1.567  30.386  1.00  0.00     0.039 A 
BRANCH  23  27
HETATM   27  O3  UNK     1      19.631  -1.799  31.778  1.00  0.00    -0.358 OA
HETATM   28  H9  UNK     1      20.402  -1.889  32.364  1.00  0.00     0.217 HD
ENDBRANCH  23  27
ENDBRANCH   3  19
TORSDOF 4
ENDMDL
MODEL 7
REMARK VINA RESULT:      -8.4      5.079     10.351
REMARK  4 active torsions:
REMARK  status: ('A' for Active; 'I' for Inactive)
REMARK    1  A    between atoms: C17_26  and  O3_6 
REMARK       I    between atoms: C14_23  and  N1_8 
REMARK    2  A    between atoms: N1_8  and  N2_9 
REMARK    3  A    between atoms: C11_20  and  C4_13 
REMARK    4  A    between atoms: C10_19  and  C14_23 
ROOT
HETATM    1  O4  UNK     1      21.460  -2.557  36.178  1.00  0.00    -0.266 OA
HETATM    2  N1  UNK     1      19.277  -2.512  35.408  1.00  0.00    -0.243 N 
HETATM    3  C14 UNK     1      20.364  -3.092  36.037  1.00  0.00     0.271 C 
HETATM    4  H8  UNK     1      18.394  -2.986  35.252  1.00  0.00     0.192 HD
ENDROOT
BRANCH   2   5
HETATM    5  N2  UNK     1      19.413  -1.262  34.905  1.00  0.00    -0.183 NA
HETATM    6  C11 UNK     1      18.512  -0.946  34.031  1.00  0.00     0.156 C 
BRANCH   6   7
HETATM    7  C4  UNK     1      18.484   0.359  33.370  1.00  0.00     0.056 A 
HETATM    8  C3  UNK     1      18.279   1.637  34.087  1.00  0.00     0.198 A 
HETATM    9  C1  UNK     1      18.279   2.852  33.253  1.00  0.00     0.050 A 
HETATM   10  O2  UNK     1      18.119   1.684  35.300  1.00  0.00    -0.286 OA
HETATM   11  C2  UNK     1      18.467   2.730  31.875  1.00  0.00     0.089 A 
HETATM   12  C5  UNK     1      18.090   4.111  33.829  1.00  0.00     0.042 A 
HETATM   13  O1  UNK     1      18.657   1.520  31.256  1.00  0.00    -0.321 OA
HETATM   14  C6  UNK     1      18.471   3.867  31.068  1.00  0.00     0.040 A 
HETATM   15  C7  UNK     1      18.654   0.393  32.044  1.00  0.00     0.159 A 
HETATM   16  C9  UNK     1      18.283   5.126  31.640  1.00  0.00     0.026 A 
HETATM   17  C8  UNK     1      18.093   5.246  33.018  1.00  0.00     0.035 A 
HETATM   18 Cl1  UNK     1      17.862   6.802  33.719  1.00  0.00    -0.084 Cl
ENDBRANCH   6   7
ENDBRANCH   2   5
BRANCH   3  19
HETATM   19  C10 UNK     1      20.154  -4.473  36.547  1.00  0.00     0.036 A 
HETATM   20  C12 UNK     1      19.154  -5.275  35.996  1.00  0.00     0.039 A 
HETATM   21  C16 UNK     1      18.958  -6.570  36.474  1.00  0.00     0.046 A 
HETATM   22 Br2  UNK     1      17.589  -7.627  35.698  1.00  0.00    -0.048 Br
HETATM   23  C17 UNK     1      19.761  -7.064  37.502  1.00  0.00     0.100 A 
HETATM   24  C15 UNK     1      20.762  -6.263  38.052  1.00  0.00     0.046 A 
HETATM   25 Br1  UNK     1      21.876  -6.896  39.448  1.00  0.00    -0.048 Br
HETATM   26  C13 UNK     1      20.959  -4.967  37.574  1.00  0.00     0.039 A 
BRANCH  23  27
HETATM   27  O3  UNK     1      19.569  -8.333  37.968  1.00  0.00    -0.358 OA
HETATM   28  H9  UNK     1      20.439  -8.742  38.113  1.00  0.00     0.217 HD
ENDBRANCH  23  27
ENDBRANCH   3  19
TORSDOF 4
ENDMDL
MODEL 8
REMARK VINA RESULT:      -8.4      5.058     10.103
REMARK  4 active torsions:
REMARK  status: ('A' for Active; 'I' for Inactive)
REMARK    1  A    between atoms: C17_26  and  O3_6 
REMARK       I    between atoms: C14_23  and  N1_8 
REMARK    2  A    between atoms: N1_8  and  N2_9 
REMARK    3  A    between atoms: C11_20  and  C4_13 
REMARK    4  A    between atoms: C10_19  and  C14_23 
ROOT
HETATM    1  O4  UNK     1      21.208  -2.814  36.118  1.00  0.00    -0.266 OA
HETATM    2  N1  UNK     1      18.944  -2.516  36.499  1.00  0.00    -0.243 N 
HETATM    3  C14 UNK     1      20.110  -3.257  36.445  1.00  0.00     0.271 C 
HETATM    4  H8  UNK     1      18.034  -2.907  36.720  1.00  0.00     0.192 HD
ENDROOT
BRANCH   2   5
HETATM    5  N2  UNK     1      18.996  -1.204  36.170  1.00  0.00    -0.183 NA
HETATM    6  C11 UNK     1      18.431  -0.922  35.040  1.00  0.00     0.156 C 
BRANCH   6   7
HETATM    7  C4  UNK     1      18.381   0.440  34.506  1.00  0.00     0.056 A 
HETATM    8  C3  UNK     1      18.508   0.760  33.067  1.00  0.00     0.198 A 
HETATM    9  C1  UNK     1      18.436   2.190  32.716  1.00  0.00     0.050 A 
HETATM   10  O2  UNK     1      18.664  -0.108  32.219  1.00  0.00    -0.286 OA
HETATM   11  C2  UNK     1      18.256   3.131  33.732  1.00  0.00     0.089 A 
HETATM   12  C5  UNK     1      18.548   2.602  31.385  1.00  0.00     0.042 A 
HETATM   13  O1  UNK     1      18.141   2.782  35.054  1.00  0.00    -0.321 OA
HETATM   14  C6  UNK     1      18.185   4.489  33.421  1.00  0.00     0.040 A 
HETATM   15  C7  UNK     1      18.211   1.445  35.370  1.00  0.00     0.159 A 
HETATM   16  C9  UNK     1      18.296   4.903  32.093  1.00  0.00     0.026 A 
HETATM   17  C8  UNK     1      18.477   3.962  31.079  1.00  0.00     0.035 A 
HETATM   18 Cl1  UNK     1      18.613   4.480  29.442  1.00  0.00    -0.084 Cl
ENDBRANCH   6   7
ENDBRANCH   2   5
BRANCH   3  19
HETATM   19  C10 UNK     1      19.979  -4.695  36.798  1.00  0.00     0.036 A 
HETATM   20  C12 UNK     1      19.029  -5.487  36.152  1.00  0.00     0.039 A 
HETATM   21  C16 UNK     1      18.907  -6.836  36.482  1.00  0.00     0.046 A 
HETATM   22 Br2  UNK     1      17.605  -7.879  35.579  1.00  0.00    -0.048 Br
HETATM   23  C17 UNK     1      19.733  -7.394  37.458  1.00  0.00     0.100 A 
HETATM   24  C15 UNK     1      20.683  -6.603  38.103  1.00  0.00     0.046 A 
HETATM   25 Br1  UNK     1      21.825  -7.322  39.433  1.00  0.00    -0.048 Br
HETATM   26  C13 UNK     1      20.806  -5.253  37.773  1.00  0.00     0.039 A 
BRANCH  23  27
HETATM   27  O3  UNK     1      19.613  -8.717  37.779  1.00  0.00    -0.358 OA
HETATM   28  H9  UNK     1      20.505  -9.091  37.879  1.00  0.00     0.217 HD
ENDBRANCH  23  27
ENDBRANCH   3  19
TORSDOF 4
ENDMDL
MODEL 9
REMARK VINA RESULT:      -8.2      7.087     12.361
REMARK  4 active torsions:
REMARK  status: ('A' for Active; 'I' for Inactive)
REMARK    1  A    between atoms: C17_26  and  O3_6 
REMARK       I    between atoms: C14_23  and  N1_8 
REMARK    2  A    between atoms: N1_8  and  N2_9 
REMARK    3  A    between atoms: C11_20  and  C4_13 
REMARK    4  A    between atoms: C10_19  and  C14_23 
ROOT
HETATM    1  O4  UNK     1      17.293   1.680  33.813  1.00  0.00    -0.266 OA
HETATM    2  N1  UNK     1      18.161   2.813  31.989  1.00  0.00    -0.243 N 
HETATM    3  C14 UNK     1      18.008   1.713  32.815  1.00  0.00     0.271 C 
HETATM    4  H8  UNK     1      18.795   2.843  31.199  1.00  0.00     0.192 HD
ENDROOT
BRANCH   2   5
HETATM    5  N2  UNK     1      17.481   3.945  32.289  1.00  0.00    -0.183 NA
HETATM    6  C11 UNK     1      18.225   5.001  32.365  1.00  0.00     0.156 C 
BRANCH   6   7
HETATM    7  C4  UNK     1      17.683   6.324  32.679  1.00  0.00     0.056 A 
HETATM    8  C3  UNK     1      18.505   7.449  33.175  1.00  0.00     0.198 A 
HETATM    9  C1  UNK     1      17.783   8.707  33.439  1.00  0.00     0.050 A 
HETATM   10  O2  UNK     1      19.710   7.344  33.356  1.00  0.00    -0.286 OA
HETATM   11  C2  UNK     1      16.406   8.761  33.212  1.00  0.00     0.089 A 
HETATM   12  C5  UNK     1      18.463   9.832  33.914  1.00  0.00     0.042 A 
HETATM   13  O1  UNK     1      15.688   7.687  32.747  1.00  0.00    -0.321 OA
HETATM   14  C6  UNK     1      15.704   9.941  33.455  1.00  0.00     0.040 A 
HETATM   15  C7  UNK     1      16.372   6.519  32.505  1.00  0.00     0.159 A 
HETATM   16  C9  UNK     1      16.381  11.066  33.928  1.00  0.00     0.026 A 
HETATM   17  C8  UNK     1      17.756  11.011  34.156  1.00  0.00     0.035 A 
HETATM   18 Cl1  UNK     1      18.586  12.403  34.741  1.00  0.00    -0.084 Cl
ENDBRANCH   6   7
ENDBRANCH   2   5
BRANCH   3  19
HETATM   19  C10 UNK     1      18.798   0.511  32.441  1.00  0.00     0.036 A 
HETATM   20  C12 UNK     1      19.066  -0.471  33.396  1.00  0.00     0.039 A 
HETATM   21  C16 UNK     1      19.806  -1.599  33.046  1.00  0.00     0.046 A 
HETATM   22 Br2  UNK     1      20.147  -2.911  34.373  1.00  0.00    -0.048 Br
HETATM   23  C17 UNK     1      20.279  -1.747  31.741  1.00  0.00     0.100 A 
HETATM   24  C15 UNK     1      20.010  -0.767  30.787  1.00  0.00     0.046 A 
HETATM   25 Br1  UNK     1      20.632  -0.930  29.004  1.00  0.00    -0.048 Br
HETATM   26  C13 UNK     1      19.269   0.363  31.137  1.00  0.00     0.039 A 
BRANCH  23  27
HETATM   27  O3  UNK     1      21.002  -2.854  31.399  1.00  0.00    -0.358 OA
HETATM   28  H9  UNK     1      20.426  -3.455  30.898  1.00  0.00     0.217 HD
ENDBRANCH  23  27
ENDBRANCH   3  19
TORSDOF 4
ENDMDL
MODEL 10
REMARK VINA RESULT:      -8.1      8.362     10.596
REMARK  4 active torsions:
REMARK  status: ('A' for Active; 'I' for Inactive)
REMARK    1  A    between atoms: C17_26  and  O3_6 
REMARK       I    between atoms: C14_23  and  N1_8 
REMARK    2  A    between atoms: N1_8  and  N2_9 
REMARK    3  A    between atoms: C11_20  and  C4_13 
REMARK    4  A    between atoms: C10_19  and  C14_23 
ROOT
HETATM    1  O4  UNK     1      23.987  -5.750  39.025  1.00  0.00    -0.266 OA
HETATM    2  N1  UNK     1      24.088  -8.030  38.632  1.00  0.00    -0.243 N 
HETATM    3  C14 UNK     1      23.445  -6.808  38.717  1.00  0.00     0.271 C 
HETATM    4  H8  UNK     1      23.617  -8.904  38.428  1.00  0.00     0.192 HD
ENDROOT
BRANCH   2   5
HETATM    5  N2  UNK     1      25.413  -8.083  38.907  1.00  0.00    -0.183 NA
HETATM    6  C11 UNK     1      26.167  -8.129  37.857  1.00  0.00     0.156 C 
BRANCH   6   7
HETATM    7  C4  UNK     1      27.627  -8.191  37.940  1.00  0.00     0.056 A 
HETATM    8  C3  UNK     1      28.495  -6.994  38.001  1.00  0.00     0.198 A 
HETATM    9  C1  UNK     1      29.944  -7.252  38.079  1.00  0.00     0.050 A 
HETATM   10  O2  UNK     1      28.039  -5.859  37.987  1.00  0.00    -0.286 OA
HETATM   11  C2  UNK     1      30.399  -8.572  38.092  1.00  0.00     0.089 A 
HETATM   12  C5  UNK     1      30.854  -6.193  38.138  1.00  0.00     0.042 A 
HETATM   13  O1  UNK     1      29.552  -9.651  38.036  1.00  0.00    -0.321 OA
HETATM   14  C6  UNK     1      31.767  -8.839  38.166  1.00  0.00     0.040 A 
HETATM   15  C7  UNK     1      28.202  -9.397  37.962  1.00  0.00     0.159 A 
HETATM   16  C9  UNK     1      32.677  -7.783  38.225  1.00  0.00     0.026 A 
HETATM   17  C8  UNK     1      32.221  -6.464  38.211  1.00  0.00     0.035 A 
HETATM   18 Cl1  UNK     1      33.350  -5.165  38.284  1.00  0.00    -0.084 Cl
ENDBRANCH   6   7
ENDBRANCH   2   5
BRANCH   3  19
HETATM   19  C10 UNK     1      21.988  -6.824  38.424  1.00  0.00     0.036 A 
HETATM   20  C12 UNK     1      21.368  -5.684  37.912  1.00  0.00     0.039 A 
HETATM   21  C16 UNK     1      20.001  -5.699  37.636  1.00  0.00     0.046 A 
HETATM   22 Br2  UNK     1      19.197  -4.128  36.940  1.00  0.00    -0.048 Br
HETATM   23  C17 UNK     1      19.253  -6.853  37.872  1.00  0.00     0.100 A 
HETATM   24  C15 UNK     1      19.873  -7.993  38.382  1.00  0.00     0.046 A 
HETATM   25 Br1  UNK     1      18.895  -9.581  38.716  1.00  0.00    -0.048 Br
HETATM   26  C13 UNK     1      21.241  -7.979  38.658  1.00  0.00     0.039 A 
BRANCH  23  27
HETATM   27  O3  UNK     1      17.915  -6.867  37.600  1.00  0.00    -0.358 OA
HETATM   28  H9  UNK     1      17.615  -7.791  37.583  1.00  0.00     0.217 HD
ENDBRANCH  23  27
ENDBRANCH   3  19
TORSDOF 4
ENDMDL
