MODEL 1
REMARK VINA RESULT:     -10.6      0.000      0.000
REMARK  3 active torsions:
REMARK  status: ('A' for Active; 'I' for Inactive)
REMARK       I    between atoms: C16_22  and  N1_6 
REMARK    1  A    between atoms: C6_12  and  N1_6 
REMARK    2  A    between atoms: C1_7  and  C2_8 
REMARK    3  A    between atoms: C16_22  and  C17_23 
ROOT
HETATM    1  C2  UNK     1      18.604   3.771  30.872  1.00  0.00    -0.020 A 
HETATM    2  C6  UNK     1      18.048   6.314  31.875  1.00  0.00     0.035 A 
HETATM    3  C7  UNK     1      17.872   3.910  32.051  1.00  0.00     0.014 A 
HETATM    4  C8  UNK     1      19.058   4.902  30.194  1.00  0.00     0.014 A 
HETATM    5  C10 UNK     1      17.594   5.182  32.552  1.00  0.00     0.030 A 
HETATM    6  C11 UNK     1      18.780   6.174  30.696  1.00  0.00     0.030 A 
ENDROOT
BRANCH   2   7
HETATM    7  N1  UNK     1      17.772   7.586  32.378  1.00  0.00    -0.323 N 
HETATM    8  C16 UNK     1      18.049   8.032  33.663  1.00  0.00     0.257 C 
HETATM    9  O3  UNK     1      18.576   7.411  34.581  1.00  0.00    -0.267 OA
HETATM   10  H8  UNK     1      17.323   8.232  31.732  1.00  0.00     0.169 HD
BRANCH   8  11
HETATM   11  C17 UNK     1      17.674   9.448  33.920  1.00  0.00     0.054 A 
HETATM   12  C18 UNK     1      16.365   9.801  34.172  1.00  0.00     0.051 A 
HETATM   13 Cl1  UNK     1      15.084   8.644  34.210  1.00  0.00    -0.083 Cl
HETATM   14  C20 UNK     1      16.059  11.142  34.405  1.00  0.00     0.048 A 
HETATM   15  C22 UNK     1      17.072  12.102  34.381  1.00  0.00     0.035 A 
HETATM   16  C21 UNK     1      18.388  11.721  34.124  1.00  0.00     0.025 A 
HETATM   17 Cl2  UNK     1      16.695  13.757  34.671  1.00  0.00    -0.084 Cl
HETATM   18  C19 UNK     1      18.694  10.381  33.891  1.00  0.00     0.020 A 
ENDBRANCH   8  11
ENDBRANCH   2   7
BRANCH   1  19
HETATM   19  C1  UNK     1      18.897   2.427  30.342  1.00  0.00     0.051 A 
HETATM   20  C4  UNK     1      19.510   1.534  31.133  1.00  0.00     0.032 A 
HETATM   21  C3  UNK     1      19.834   0.201  30.651  1.00  0.00    -0.001 A 
HETATM   22  C12 UNK     1      20.464  -0.750  31.457  1.00  0.00     0.014 A 
HETATM   23  C5  UNK     1      19.510  -0.136  29.343  1.00  0.00     0.089 A 
HETATM   24  C14 UNK     1      20.757  -2.017  30.943  1.00  0.00     0.001 A 
HETATM   25  C15 UNK     1      20.424  -2.337  29.626  1.00  0.00     0.003 A 
HETATM   26  C13 UNK     1      19.796  -1.393  28.817  1.00  0.00     0.038 A 
HETATM   27  O1  UNK     1      18.873   0.798  28.503  1.00  0.00    -0.274 OA
HETATM   28  C9  UNK     1      18.537   2.076  28.940  1.00  0.00     0.299 A 
HETATM   29  O2  UNK     1      17.963   2.866  28.197  1.00  0.00    -0.259 OA
ENDBRANCH   1  19
TORSDOF 3
ENDMDL
MODEL 2
REMARK VINA RESULT:     -10.0      3.567     10.265
REMARK  3 active torsions:
REMARK  status: ('A' for Active; 'I' for Inactive)
REMARK       I    between atoms: C16_22  and  N1_6 
REMARK    1  A    between atoms: C6_12  and  N1_6 
REMARK    2  A    between atoms: C1_7  and  C2_8 
REMARK    3  A    between atoms: C16_22  and  C17_23 
ROOT
HETATM    1  C2  UNK     1      17.721   7.078  32.687  1.00  0.00    -0.020 A 
HETATM    2  C6  UNK     1      18.588   4.524  31.974  1.00  0.00     0.035 A 
HETATM    3  C7  UNK     1      17.654   6.036  33.612  1.00  0.00     0.014 A 
HETATM    4  C8  UNK     1      18.220   6.844  31.405  1.00  0.00     0.014 A 
HETATM    5  C10 UNK     1      18.088   4.759  33.255  1.00  0.00     0.030 A 
HETATM    6  C11 UNK     1      18.654   5.566  31.049  1.00  0.00     0.030 A 
ENDROOT
BRANCH   2   7
HETATM    7  N1  UNK     1      19.021   3.247  31.617  1.00  0.00    -0.323 N 
HETATM    8  C16 UNK     1      18.290   2.311  30.897  1.00  0.00     0.257 C 
HETATM    9  O3  UNK     1      17.154   2.422  30.448  1.00  0.00    -0.267 OA
HETATM   10  H8  UNK     1      19.958   2.993  31.922  1.00  0.00     0.169 HD
BRANCH   8  11
HETATM   11  C17 UNK     1      19.011   1.037  30.630  1.00  0.00     0.054 A 
HETATM   12  C18 UNK     1      19.207   0.110  31.632  1.00  0.00     0.051 A 
HETATM   13 Cl1  UNK     1      18.638   0.353  33.245  1.00  0.00    -0.083 Cl
HETATM   14  C20 UNK     1      19.890  -1.070  31.337  1.00  0.00     0.048 A 
HETATM   15  C22 UNK     1      20.363  -1.297  30.044  1.00  0.00     0.035 A 
HETATM   16  C21 UNK     1      20.152  -0.344  29.047  1.00  0.00     0.025 A 
HETATM   17 Cl2  UNK     1      21.203  -2.754  29.678  1.00  0.00    -0.084 Cl
HETATM   18  C19 UNK     1      19.469   0.835  29.342  1.00  0.00     0.020 A 
ENDBRANCH   8  11
ENDBRANCH   2   7
BRANCH   1  19
HETATM   19  C1  UNK     1      17.263   8.427  33.063  1.00  0.00     0.051 A 
HETATM   20  C4  UNK     1      18.144   9.291  33.588  1.00  0.00     0.032 A 
HETATM   21  C3  UNK     1      17.738  10.628  33.989  1.00  0.00    -0.001 A 
HETATM   22  C12 UNK     1      18.637  11.550  34.531  1.00  0.00     0.014 A 
HETATM   23  C5  UNK     1      16.408  11.001  33.831  1.00  0.00     0.089 A 
HETATM   24  C14 UNK     1      18.193  12.822  34.904  1.00  0.00     0.001 A 
HETATM   25  C15 UNK     1      16.854  13.179  34.738  1.00  0.00     0.003 A 
HETATM   26  C13 UNK     1      15.952  12.265  34.198  1.00  0.00     0.038 A 
HETATM   27  O1  UNK     1      15.475  10.098  33.286  1.00  0.00    -0.274 OA
HETATM   28  C9  UNK     1      15.837   8.817  32.880  1.00  0.00     0.299 A 
HETATM   29  O2  UNK     1      15.011   8.054  32.389  1.00  0.00    -0.259 OA
ENDBRANCH   1  19
TORSDOF 3
ENDMDL
MODEL 3
REMARK VINA RESULT:     -10.0      3.520     10.340
REMARK  3 active torsions:
REMARK  status: ('A' for Active; 'I' for Inactive)
REMARK       I    between atoms: C16_22  and  N1_6 
REMARK    1  A    between atoms: C6_12  and  N1_6 
REMARK    2  A    between atoms: C1_7  and  C2_8 
REMARK    3  A    between atoms: C16_22  and  C17_23 
ROOT
HETATM    1  C2  UNK     1      17.647   7.095  32.798  1.00  0.00    -0.020 A 
HETATM    2  C6  UNK     1      18.520   4.552  32.052  1.00  0.00     0.035 A 
HETATM    3  C7  UNK     1      17.539   6.031  33.694  1.00  0.00     0.014 A 
HETATM    4  C8  UNK     1      18.191   6.888  31.530  1.00  0.00     0.014 A 
HETATM    5  C10 UNK     1      17.976   4.760  33.320  1.00  0.00     0.030 A 
HETATM    6  C11 UNK     1      18.627   5.617  31.157  1.00  0.00     0.030 A 
ENDROOT
BRANCH   2   7
HETATM    7  N1  UNK     1      18.955   3.281  31.679  1.00  0.00    -0.323 N 
HETATM    8  C16 UNK     1      18.241   2.366  30.916  1.00  0.00     0.257 C 
HETATM    9  O3  UNK     1      17.120   2.496  30.435  1.00  0.00    -0.267 OA
HETATM   10  H8  UNK     1      19.881   3.013  32.007  1.00  0.00     0.169 HD
BRANCH   8  11
HETATM   11  C17 UNK     1      18.962   1.095  30.641  1.00  0.00     0.054 A 
HETATM   12  C18 UNK     1      19.151   0.158  31.636  1.00  0.00     0.051 A 
HETATM   13 Cl1  UNK     1      18.574   0.387  33.247  1.00  0.00    -0.083 Cl
HETATM   14  C20 UNK     1      19.835  -1.020  31.334  1.00  0.00     0.048 A 
HETATM   15  C22 UNK     1      20.315  -1.236  30.041  1.00  0.00     0.035 A 
HETATM   16  C21 UNK     1      20.111  -0.273  29.053  1.00  0.00     0.025 A 
HETATM   17 Cl2  UNK     1      21.155  -2.690  29.667  1.00  0.00    -0.084 Cl
HETATM   18  C19 UNK     1      19.428   0.904  29.354  1.00  0.00     0.020 A 
ENDBRANCH   8  11
ENDBRANCH   2   7
BRANCH   1  19
HETATM   19  C1  UNK     1      17.186   8.438  33.192  1.00  0.00     0.051 A 
HETATM   20  C4  UNK     1      15.912   8.785  32.953  1.00  0.00     0.032 A 
HETATM   21  C3  UNK     1      15.414  10.104  33.309  1.00  0.00    -0.001 A 
HETATM   22  C12 UNK     1      14.091  10.488  33.078  1.00  0.00     0.014 A 
HETATM   23  C5  UNK     1      16.285  11.015  33.894  1.00  0.00     0.089 A 
HETATM   24  C14 UNK     1      13.664  11.771  33.436  1.00  0.00     0.001 A 
HETATM   25  C15 UNK     1      14.553  12.672  34.023  1.00  0.00     0.003 A 
HETATM   26  C13 UNK     1      15.874  12.295  34.256  1.00  0.00     0.038 A 
HETATM   27  O1  UNK     1      17.625  10.661  34.142  1.00  0.00    -0.274 OA
HETATM   28  C9  UNK     1      18.127   9.401  33.827  1.00  0.00     0.299 A 
HETATM   29  O2  UNK     1      19.293   9.108  34.071  1.00  0.00    -0.259 OA
ENDBRANCH   1  19
TORSDOF 3
ENDMDL
MODEL 4
REMARK VINA RESULT:      -9.8     22.342     24.096
REMARK  3 active torsions:
REMARK  status: ('A' for Active; 'I' for Inactive)
REMARK       I    between atoms: C16_22  and  N1_6 
REMARK    1  A    between atoms: C6_12  and  N1_6 
REMARK    2  A    between atoms: C1_7  and  C2_8 
REMARK    3  A    between atoms: C16_22  and  C17_23 
ROOT
HETATM    1  C2  UNK     1      14.649   8.728   9.009  1.00  0.00    -0.020 A 
HETATM    2  C6  UNK     1      17.188   9.831   9.360  1.00  0.00     0.035 A 
HETATM    3  C7  UNK     1      15.614   8.037   9.744  1.00  0.00     0.014 A 
HETATM    4  C8  UNK     1      14.953   9.969   8.450  1.00  0.00     0.014 A 
HETATM    5  C10 UNK     1      16.883   8.590   9.919  1.00  0.00     0.030 A 
HETATM    6  C11 UNK     1      16.223  10.521   8.626  1.00  0.00     0.030 A 
ENDROOT
BRANCH   2   7
HETATM    7  N1  UNK     1      18.457  10.382   9.535  1.00  0.00    -0.323 N 
HETATM    8  C16 UNK     1      18.744  11.580  10.175  1.00  0.00     0.257 C 
HETATM    9  O3  UNK     1      17.959  12.365  10.697  1.00  0.00    -0.267 OA
HETATM   10  H8  UNK     1      19.232   9.846   9.149  1.00  0.00     0.169 HD
BRANCH   8  11
HETATM   11  C17 UNK     1      20.193  11.911  10.245  1.00  0.00     0.054 A 
HETATM   12  C18 UNK     1      20.893  12.273   9.112  1.00  0.00     0.051 A 
HETATM   13 Cl1  UNK     1      20.152  12.368   7.555  1.00  0.00    -0.083 Cl
HETATM   14  C20 UNK     1      22.251  12.573   9.224  1.00  0.00     0.048 A 
HETATM   15  C22 UNK     1      22.879  12.506  10.469  1.00  0.00     0.035 A 
HETATM   16  C21 UNK     1      22.150  12.138  11.599  1.00  0.00     0.025 A 
HETATM   17 Cl2  UNK     1      24.554  12.879  10.608  1.00  0.00    -0.084 Cl
HETATM   18  C19 UNK     1      20.793  11.838  11.487  1.00  0.00     0.020 A 
ENDBRANCH   8  11
ENDBRANCH   2   7
BRANCH   1  19
HETATM   19  C1  UNK     1      13.308   8.145   8.824  1.00  0.00     0.051 A 
HETATM   20  C4  UNK     1      12.940   7.736   7.601  1.00  0.00     0.032 A 
HETATM   21  C3  UNK     1      11.622   7.169   7.364  1.00  0.00    -0.001 A 
HETATM   22  C12 UNK     1      11.216   6.729   6.102  1.00  0.00     0.014 A 
HETATM   23  C5  UNK     1      10.735   7.066   8.428  1.00  0.00     0.089 A 
HETATM   24  C14 UNK     1       9.936   6.194   5.928  1.00  0.00     0.001 A 
HETATM   25  C15 UNK     1       9.058   6.098   7.009  1.00  0.00     0.003 A 
HETATM   26  C13 UNK     1       9.457   6.536   8.270  1.00  0.00     0.038 A 
HETATM   27  O1  UNK     1      11.112   7.499   9.714  1.00  0.00    -0.274 OA
HETATM   28  C9  UNK     1      12.371   8.032   9.975  1.00  0.00     0.299 A 
HETATM   29  O2  UNK     1      12.684   8.384  11.108  1.00  0.00    -0.259 OA
ENDBRANCH   1  19
TORSDOF 3
ENDMDL
MODEL 5
REMARK VINA RESULT:      -9.8      8.046     12.727
REMARK  3 active torsions:
REMARK  status: ('A' for Active; 'I' for Inactive)
REMARK       I    between atoms: C16_22  and  N1_6 
REMARK    1  A    between atoms: C6_12  and  N1_6 
REMARK    2  A    between atoms: C1_7  and  C2_8 
REMARK    3  A    between atoms: C16_22  and  C17_23 
ROOT
HETATM    1  C2  UNK     1      18.612  -0.554  35.420  1.00  0.00    -0.020 A 
HETATM    2  C6  UNK     1      18.828  -3.184  36.324  1.00  0.00     0.035 A 
HETATM    3  C7  UNK     1      17.718  -1.038  36.375  1.00  0.00     0.014 A 
HETATM    4  C8  UNK     1      19.614  -1.384  34.917  1.00  0.00     0.014 A 
HETATM    5  C10 UNK     1      17.826  -2.353  36.827  1.00  0.00     0.030 A 
HETATM    6  C11 UNK     1      19.721  -2.700  35.369  1.00  0.00     0.030 A 
ENDROOT
BRANCH   2   7
HETATM    7  N1  UNK     1      18.934  -4.500  36.775  1.00  0.00    -0.323 N 
HETATM    8  C16 UNK     1      20.105  -5.134  37.169  1.00  0.00     0.257 C 
HETATM    9  O3  UNK     1      21.242  -4.673  37.195  1.00  0.00    -0.267 OA
HETATM   10  H8  UNK     1      18.066  -5.030  36.810  1.00  0.00     0.169 HD
BRANCH   8  11
HETATM   11  C17 UNK     1      19.922  -6.534  37.637  1.00  0.00     0.054 A 
HETATM   12  C18 UNK     1      19.722  -7.561  36.738  1.00  0.00     0.051 A 
HETATM   13 Cl1  UNK     1      19.671  -7.304  35.032  1.00  0.00    -0.083 Cl
HETATM   14  C20 UNK     1      19.553  -8.859  37.222  1.00  0.00     0.048 A 
HETATM   15  C22 UNK     1      19.589  -9.100  38.596  1.00  0.00     0.035 A 
HETATM   16  C21 UNK     1      19.793  -8.045  39.485  1.00  0.00     0.025 A 
HETATM   17 Cl2  UNK     1      19.383 -10.702  39.194  1.00  0.00    -0.084 Cl
HETATM   18  C19 UNK     1      19.961  -6.748  39.002  1.00  0.00     0.020 A 
ENDBRANCH   8  11
ENDBRANCH   2   7
BRANCH   1  19
HETATM   19  C1  UNK     1      18.499   0.836  34.942  1.00  0.00     0.051 A 
HETATM   20  C4  UNK     1      18.399   1.065  33.624  1.00  0.00     0.032 A 
HETATM   21  C3  UNK     1      18.300   2.419  33.103  1.00  0.00    -0.001 A 
HETATM   22  C12 UNK     1      18.188   2.685  31.736  1.00  0.00     0.014 A 
HETATM   23  C5  UNK     1      18.324   3.484  33.994  1.00  0.00     0.089 A 
HETATM   24  C14 UNK     1      18.100   4.006  31.287  1.00  0.00     0.001 A 
HETATM   25  C15 UNK     1      18.124   5.063  32.197  1.00  0.00     0.003 A 
HETATM   26  C13 UNK     1      18.237   4.805  33.561  1.00  0.00     0.038 A 
HETATM   27  O1  UNK     1      18.434   3.253  35.378  1.00  0.00    -0.274 OA
HETATM   28  C9  UNK     1      18.515   1.968  35.909  1.00  0.00     0.299 A 
HETATM   29  O2  UNK     1      18.591   1.789  37.120  1.00  0.00    -0.259 OA
ENDBRANCH   1  19
TORSDOF 3
ENDMDL
MODEL 6
REMARK VINA RESULT:      -9.5      7.158      9.706
REMARK  3 active torsions:
REMARK  status: ('A' for Active; 'I' for Inactive)
REMARK       I    between atoms: C16_22  and  N1_6 
REMARK    1  A    between atoms: C6_12  and  N1_6 
REMARK    2  A    between atoms: C1_7  and  C2_8 
REMARK    3  A    between atoms: C16_22  and  C17_23 
ROOT
HETATM    1  C2  UNK     1      19.651  -3.811  36.617  1.00  0.00    -0.020 A 
HETATM    2  C6  UNK     1      19.338  -1.328  35.383  1.00  0.00     0.035 A 
HETATM    3  C7  UNK     1      20.186  -3.591  35.348  1.00  0.00     0.014 A 
HETATM    4  C8  UNK     1      18.959  -2.790  37.269  1.00  0.00     0.014 A 
HETATM    5  C10 UNK     1      20.030  -2.349  34.731  1.00  0.00     0.030 A 
HETATM    6  C11 UNK     1      18.802  -1.549  36.652  1.00  0.00     0.030 A 
ENDROOT
BRANCH   2   7
HETATM    7  N1  UNK     1      19.180  -0.087  34.766  1.00  0.00    -0.323 N 
HETATM    8  C16 UNK     1      18.061   0.335  34.059  1.00  0.00     0.257 C 
HETATM    9  O3  UNK     1      17.024  -0.285  33.846  1.00  0.00    -0.267 OA
HETATM   10  H8  UNK     1      19.966   0.554  34.848  1.00  0.00     0.169 HD
BRANCH   8  11
HETATM   11  C17 UNK     1      18.152   1.723  33.532  1.00  0.00     0.054 A 
HETATM   12  C18 UNK     1      18.166   2.806  34.385  1.00  0.00     0.051 A 
HETATM   13 Cl1  UNK     1      18.083   2.636  36.101  1.00  0.00    -0.083 Cl
HETATM   14  C20 UNK     1      18.251   4.090  33.845  1.00  0.00     0.048 A 
HETATM   15  C22 UNK     1      18.319   4.262  32.462  1.00  0.00     0.035 A 
HETATM   16  C21 UNK     1      18.303   3.150  31.620  1.00  0.00     0.025 A 
HETATM   17 Cl2  UNK     1      18.427   5.845  31.796  1.00  0.00    -0.084 Cl
HETATM   18  C19 UNK     1      18.219   1.867  32.159  1.00  0.00     0.020 A 
ENDBRANCH   8  11
ENDBRANCH   2   7
BRANCH   1  19
HETATM   19  C1  UNK     1      19.816  -5.122  37.269  1.00  0.00     0.051 A 
HETATM   20  C4  UNK     1      20.927  -5.358  37.983  1.00  0.00     0.032 A 
HETATM   21  C3  UNK     1      21.143  -6.641  38.633  1.00  0.00    -0.001 A 
HETATM   22  C12 UNK     1      22.287  -6.911  39.388  1.00  0.00     0.014 A 
HETATM   23  C5  UNK     1      20.181  -7.634  38.493  1.00  0.00     0.089 A 
HETATM   24  C14 UNK     1      22.447  -8.163  39.989  1.00  0.00     0.001 A 
HETATM   25  C15 UNK     1      21.470  -9.148  39.839  1.00  0.00     0.003 A 
HETATM   26  C13 UNK     1      20.327  -8.886  39.086  1.00  0.00     0.038 A 
HETATM   27  O1  UNK     1      19.016  -7.396  37.741  1.00  0.00    -0.274 OA
HETATM   28  C9  UNK     1      18.774  -6.174  37.119  1.00  0.00     0.299 A 
HETATM   29  O2  UNK     1      17.741  -5.982  36.485  1.00  0.00    -0.259 OA
ENDBRANCH   1  19
TORSDOF 3
ENDMDL
MODEL 7
REMARK VINA RESULT:      -9.4      7.197      9.877
REMARK  3 active torsions:
REMARK  status: ('A' for Active; 'I' for Inactive)
REMARK       I    between atoms: C16_22  and  N1_6 
REMARK    1  A    between atoms: C6_12  and  N1_6 
REMARK    2  A    between atoms: C1_7  and  C2_8 
REMARK    3  A    between atoms: C16_22  and  C17_23 
ROOT
HETATM    1  C2  UNK     1      20.034  -4.278  36.359  1.00  0.00    -0.020 A 
HETATM    2  C6  UNK     1      19.571  -1.712  35.367  1.00  0.00     0.035 A 
HETATM    3  C7  UNK     1      19.490  -3.298  37.189  1.00  0.00     0.014 A 
HETATM    4  C8  UNK     1      20.348  -3.976  35.034  1.00  0.00     0.014 A 
HETATM    5  C10 UNK     1      19.259  -2.015  36.693  1.00  0.00     0.030 A 
HETATM    6  C11 UNK     1      20.116  -2.692  34.538  1.00  0.00     0.030 A 
ENDROOT
BRANCH   2   7
HETATM    7  N1  UNK     1      19.341  -0.428  34.872  1.00  0.00    -0.323 N 
HETATM    8  C16 UNK     1      18.230  -0.023  34.144  1.00  0.00     0.257 C 
HETATM    9  O3  UNK     1      17.263  -0.697  33.805  1.00  0.00    -0.267 OA
HETATM   10  H8  UNK     1      20.064   0.261  35.068  1.00  0.00     0.169 HD
BRANCH   8  11
HETATM   11  C17 UNK     1      18.229   1.416  33.768  1.00  0.00     0.054 A 
HETATM   12  C18 UNK     1      18.225   2.401  34.734  1.00  0.00     0.051 A 
HETATM   13 Cl1  UNK     1      18.221   2.044  36.423  1.00  0.00    -0.083 Cl
HETATM   14  C20 UNK     1      18.223   3.738  34.335  1.00  0.00     0.048 A 
HETATM   15  C22 UNK     1      18.226   4.061  32.978  1.00  0.00     0.035 A 
HETATM   16  C21 UNK     1      18.230   3.047  32.020  1.00  0.00     0.025 A 
HETATM   17 Cl2  UNK     1      18.226   5.710  32.485  1.00  0.00    -0.084 Cl
HETATM   18  C19 UNK     1      18.232   1.711  32.418  1.00  0.00     0.020 A 
ENDBRANCH   8  11
ENDBRANCH   2   7
BRANCH   1  19
HETATM   19  C1  UNK     1      20.279  -5.634  36.883  1.00  0.00     0.051 A 
HETATM   20  C4  UNK     1      19.379  -6.598  36.640  1.00  0.00     0.032 A 
HETATM   21  C3  UNK     1      19.568  -7.947  37.147  1.00  0.00    -0.001 A 
HETATM   22  C12 UNK     1      18.650  -8.971  36.903  1.00  0.00     0.014 A 
HETATM   23  C5  UNK     1      20.698  -8.226  37.906  1.00  0.00     0.089 A 
HETATM   24  C14 UNK     1      18.878 -10.251  37.417  1.00  0.00     0.001 A 
HETATM   25  C15 UNK     1      20.019 -10.513  38.177  1.00  0.00     0.003 A 
HETATM   26  C13 UNK     1      20.938  -9.496  38.425  1.00  0.00     0.038 A 
HETATM   27  O1  UNK     1      21.645  -7.219  38.171  1.00  0.00    -0.274 OA
HETATM   28  C9  UNK     1      21.500  -5.922  37.686  1.00  0.00     0.299 A 
HETATM   29  O2  UNK     1      22.348  -5.064  37.913  1.00  0.00    -0.259 OA
ENDBRANCH   1  19
TORSDOF 3
ENDMDL
MODEL 8
REMARK VINA RESULT:      -9.4     22.252     24.015
REMARK  3 active torsions:
REMARK  status: ('A' for Active; 'I' for Inactive)
REMARK       I    between atoms: C16_22  and  N1_6 
REMARK    1  A    between atoms: C6_12  and  N1_6 
REMARK    2  A    between atoms: C1_7  and  C2_8 
REMARK    3  A    between atoms: C16_22  and  C17_23 
ROOT
HETATM    1  C2  UNK     1      14.591   8.890   9.017  1.00  0.00    -0.020 A 
HETATM    2  C6  UNK     1      17.127   9.973   9.437  1.00  0.00     0.035 A 
HETATM    3  C7  UNK     1      14.961  10.068   8.368  1.00  0.00     0.014 A 
HETATM    4  C8  UNK     1      15.487   8.254   9.876  1.00  0.00     0.014 A 
HETATM    5  C10 UNK     1      16.229  10.609   8.578  1.00  0.00     0.030 A 
HETATM    6  C11 UNK     1      16.755   8.796  10.086  1.00  0.00     0.030 A 
ENDROOT
BRANCH   2   7
HETATM    7  N1  UNK     1      18.394  10.516   9.649  1.00  0.00    -0.323 N 
HETATM    8  C16 UNK     1      18.679  11.856   9.874  1.00  0.00     0.257 C 
HETATM    9  O3  UNK     1      17.894  12.797   9.929  1.00  0.00    -0.267 OA
HETATM   10  H8  UNK     1      19.170   9.856   9.629  1.00  0.00     0.169 HD
BRANCH   8  11
HETATM   11  C17 UNK     1      20.120  12.151  10.100  1.00  0.00     0.054 A 
HETATM   12  C18 UNK     1      20.570  12.586  11.330  1.00  0.00     0.051 A 
HETATM   13 Cl1  UNK     1      19.514  12.815  12.676  1.00  0.00    -0.083 Cl
HETATM   14  C20 UNK     1      21.930  12.852  11.495  1.00  0.00     0.048 A 
HETATM   15  C22 UNK     1      22.810  12.677  10.426  1.00  0.00     0.035 A 
HETATM   16  C21 UNK     1      22.330  12.237   9.193  1.00  0.00     0.025 A 
HETATM   17 Cl2  UNK     1      24.488  13.002  10.631  1.00  0.00    -0.084 Cl
HETATM   18  C19 UNK     1      20.972  11.970   9.027  1.00  0.00     0.020 A 
ENDBRANCH   8  11
ENDBRANCH   2   7
BRANCH   1  19
HETATM   19  C1  UNK     1      13.251   8.317   8.795  1.00  0.00     0.051 A 
HETATM   20  C4  UNK     1      12.972   7.752   7.610  1.00  0.00     0.032 A 
HETATM   21  C3  UNK     1      11.661   7.186   7.338  1.00  0.00    -0.001 A 
HETATM   22  C12 UNK     1      11.347   6.586   6.117  1.00  0.00     0.014 A 
HETATM   23  C5  UNK     1      10.685   7.250   8.325  1.00  0.00     0.089 A 
HETATM   24  C14 UNK     1      10.069   6.060   5.905  1.00  0.00     0.001 A 
HETATM   25  C15 UNK     1       9.101   6.133   6.908  1.00  0.00     0.003 A 
HETATM   26  C13 UNK     1       9.407   6.731   8.128  1.00  0.00     0.038 A 
HETATM   27  O1  UNK     1      10.967   7.846   9.569  1.00  0.00    -0.274 OA
HETATM   28  C9  UNK     1      12.217   8.383   9.864  1.00  0.00     0.299 A 
HETATM   29  O2  UNK     1      12.447   8.880  10.962  1.00  0.00    -0.259 OA
ENDBRANCH   1  19
TORSDOF 3
ENDMDL
MODEL 9
REMARK VINA RESULT:      -9.0      2.045      2.845
REMARK  3 active torsions:
REMARK  status: ('A' for Active; 'I' for Inactive)
REMARK       I    between atoms: C16_22  and  N1_6 
REMARK    1  A    between atoms: C6_12  and  N1_6 
REMARK    2  A    between atoms: C1_7  and  C2_8 
REMARK    3  A    between atoms: C16_22  and  C17_23 
ROOT
HETATM    1  C2  UNK     1      18.099   5.260  32.731  1.00  0.00    -0.020 A 
HETATM    2  C6  UNK     1      17.757   8.004  33.096  1.00  0.00     0.035 A 
HETATM    3  C7  UNK     1      16.907   5.871  32.342  1.00  0.00     0.014 A 
HETATM    4  C8  UNK     1      19.120   6.020  33.303  1.00  0.00     0.014 A 
HETATM    5  C10 UNK     1      16.737   7.243  32.524  1.00  0.00     0.030 A 
HETATM    6  C11 UNK     1      18.948   7.392  33.485  1.00  0.00     0.030 A 
ENDROOT
BRANCH   2   7
HETATM    7  N1  UNK     1      17.585   9.376  33.279  1.00  0.00    -0.323 N 
HETATM    8  C16 UNK     1      16.823   9.976  34.273  1.00  0.00     0.257 C 
HETATM    9  O3  UNK     1      16.170   9.431  35.157  1.00  0.00    -0.267 OA
HETATM   10  H8  UNK     1      18.066   9.978  32.614  1.00  0.00     0.169 HD
BRANCH   8  11
HETATM   11  C17 UNK     1      16.842  11.463  34.253  1.00  0.00     0.054 A 
HETATM   12  C18 UNK     1      15.703  12.183  33.958  1.00  0.00     0.051 A 
HETATM   13 Cl1  UNK     1      14.194  11.425  33.598  1.00  0.00    -0.083 Cl
HETATM   14  C20 UNK     1      15.768  13.577  33.949  1.00  0.00     0.048 A 
HETATM   15  C22 UNK     1      16.972  14.220  34.235  1.00  0.00     0.035 A 
HETATM   16  C21 UNK     1      18.110  13.470  34.530  1.00  0.00     0.025 A 
HETATM   17 Cl2  UNK     1      17.052  15.940  34.227  1.00  0.00    -0.084 Cl
HETATM   18  C19 UNK     1      18.046  12.078  34.540  1.00  0.00     0.020 A 
ENDBRANCH   8  11
ENDBRANCH   2   7
BRANCH   1  19
HETATM   19  C1  UNK     1      18.281   3.809  32.538  1.00  0.00     0.051 A 
HETATM   20  C4  UNK     1      18.162   2.993  33.595  1.00  0.00     0.032 A 
HETATM   21  C3  UNK     1      18.346   1.557  33.459  1.00  0.00    -0.001 A 
HETATM   22  C12 UNK     1      18.221   0.683  34.542  1.00  0.00     0.014 A 
HETATM   23  C5  UNK     1      18.663   1.037  32.211  1.00  0.00     0.089 A 
HETATM   24  C14 UNK     1      18.412  -0.690  34.357  1.00  0.00     0.001 A 
HETATM   25  C15 UNK     1      18.730  -1.194  33.095  1.00  0.00     0.003 A 
HETATM   26  C13 UNK     1      18.858  -0.328  32.012  1.00  0.00     0.038 A 
HETATM   27  O1  UNK     1      18.796   1.888  31.097  1.00  0.00    -0.274 OA
HETATM   28  C9  UNK     1      18.611   3.264  31.193  1.00  0.00     0.299 A 
HETATM   29  O2  UNK     1      18.712   3.985  30.205  1.00  0.00    -0.259 OA
ENDBRANCH   1  19
TORSDOF 3
ENDMDL
MODEL 10
REMARK VINA RESULT:      -8.9      1.823      2.351
REMARK  3 active torsions:
REMARK  status: ('A' for Active; 'I' for Inactive)
REMARK       I    between atoms: C16_22  and  N1_6 
REMARK    1  A    between atoms: C6_12  and  N1_6 
REMARK    2  A    between atoms: C1_7  and  C2_8 
REMARK    3  A    between atoms: C16_22  and  C17_23 
ROOT
HETATM    1  C2  UNK     1      18.282   4.242  32.472  1.00  0.00    -0.020 A 
HETATM    2  C6  UNK     1      17.709   6.941  32.886  1.00  0.00     0.035 A 
HETATM    3  C7  UNK     1      19.031   4.981  33.387  1.00  0.00     0.014 A 
HETATM    4  C8  UNK     1      17.246   4.852  31.763  1.00  0.00     0.014 A 
HETATM    5  C10 UNK     1      18.745   6.330  33.593  1.00  0.00     0.030 A 
HETATM    6  C11 UNK     1      16.960   6.202  31.970  1.00  0.00     0.030 A 
ENDROOT
BRANCH   2   7
HETATM    7  N1  UNK     1      17.424   8.291  33.092  1.00  0.00    -0.323 N 
HETATM    8  C16 UNK     1      17.018   8.864  34.289  1.00  0.00     0.257 C 
HETATM    9  O3  UNK     1      16.835   8.310  35.368  1.00  0.00    -0.267 OA
HETATM   10  H8  UNK     1      17.525   8.896  32.279  1.00  0.00     0.169 HD
BRANCH   8  11
HETATM   11  C17 UNK     1      16.813  10.336  34.231  1.00  0.00     0.054 A 
HETATM   12  C18 UNK     1      15.545  10.878  34.268  1.00  0.00     0.051 A 
HETATM   13 Cl1  UNK     1      14.124   9.905  34.383  1.00  0.00    -0.083 Cl
HETATM   14  C20 UNK     1      15.401  12.265  34.208  1.00  0.00     0.048 A 
HETATM   15  C22 UNK     1      16.530  13.080  34.114  1.00  0.00     0.035 A 
HETATM   16  C21 UNK     1      17.802  12.508  34.079  1.00  0.00     0.025 A 
HETATM   17 Cl2  UNK     1      16.353  14.790  34.044  1.00  0.00    -0.084 Cl
HETATM   18  C19 UNK     1      17.946  11.123  34.138  1.00  0.00     0.020 A 
ENDBRANCH   8  11
ENDBRANCH   2   7
BRANCH   1  19
HETATM   19  C1  UNK     1      18.584   2.816  32.253  1.00  0.00     0.051 A 
HETATM   20  C4  UNK     1      19.056   2.426  31.059  1.00  0.00     0.032 A 
HETATM   21  C3  UNK     1      19.354   1.029  30.790  1.00  0.00    -0.001 A 
HETATM   22  C12 UNK     1      19.854   0.598  29.559  1.00  0.00     0.014 A 
HETATM   23  C5  UNK     1      19.131   0.091  31.789  1.00  0.00     0.089 A 
HETATM   24  C14 UNK     1      20.121  -0.759  29.350  1.00  0.00     0.001 A 
HETATM   25  C15 UNK     1      19.890  -1.687  30.366  1.00  0.00     0.003 A 
HETATM   26  C13 UNK     1      19.391  -1.264  31.596  1.00  0.00     0.038 A 
HETATM   27  O1  UNK     1      18.629   0.490  33.043  1.00  0.00    -0.274 OA
HETATM   28  C9  UNK     1      18.348   1.822  33.336  1.00  0.00     0.299 A 
HETATM   29  O2  UNK     1      17.931   2.150  34.442  1.00  0.00    -0.259 OA
ENDBRANCH   1  19
TORSDOF 3
ENDMDL
