MODEL 1
REMARK VINA RESULT:     -10.2      0.000      0.000
REMARK  4 active torsions:
REMARK  status: ('A' for Active; 'I' for Inactive)
REMARK    1  A    between atoms: C13_17  and  O1_2 
REMARK    2  A    between atoms: C17_21  and  O1_2 
REMARK    3  A    between atoms: C5_9  and  C6_10 
REMARK    4  A    between atoms: C16_20  and  C17_21 
ROOT
HETATM    1  C5  UNK     1      19.153   5.695  32.431  1.00  0.00    -0.035 A 
HETATM    2  C9  UNK     1      19.293   5.551  31.062  1.00  0.00     0.014 A 
HETATM    3  C10 UNK     1      18.472   4.760  33.191  1.00  0.00     0.014 A 
HETATM    4  C13 UNK     1      18.044   3.486  31.184  1.00  0.00     0.079 A 
HETATM    5  C14 UNK     1      18.734   4.438  30.432  1.00  0.00     0.038 A 
HETATM    6  C15 UNK     1      17.913   3.647  32.563  1.00  0.00     0.038 A 
ENDROOT
BRANCH   1   7
HETATM    7  C6  UNK     1      19.744   6.872  33.096  1.00  0.00     0.034 C 
HETATM    8  C3  UNK     1      19.100   7.998  33.410  1.00  0.00     0.057 A 
HETATM    9  S1  UNK     1      19.817   9.369  34.191  1.00  0.00    -0.086 SA
HETATM   10  C4  UNK     1      17.657   8.204  33.118  1.00  0.00     0.200 A 
HETATM   11  C2  UNK     1      18.279  10.251  34.164  1.00  0.00     0.020 A 
HETATM   12  C1  UNK     1      17.237   9.533  33.579  1.00  0.00     0.032 A 
HETATM   13  C8  UNK     1      18.054  11.529  34.654  1.00  0.00     0.020 A 
HETATM   14  C7  UNK     1      15.957  10.058  33.464  1.00  0.00     0.017 A 
HETATM   15  C11 UNK     1      15.729  11.343  33.957  1.00  0.00     0.001 A 
HETATM   16  C12 UNK     1      16.770  12.074  34.548  1.00  0.00     0.001 A 
HETATM   17  O2  UNK     1      16.915   7.403  32.578  1.00  0.00    -0.286 OA
ENDBRANCH   1   7
BRANCH   4  18
HETATM   18  O1  UNK     1      17.500   2.400  30.570  1.00  0.00    -0.275 OA
BRANCH  18  19
HETATM   19  C17 UNK     1      18.109   2.056  29.361  1.00  0.00     0.298 C 
HETATM   20  O3  UNK     1      17.927   2.613  28.290  1.00  0.00    -0.259 OA
BRANCH  19  21
HETATM   21  C16 UNK     1      19.039   0.910  29.535  1.00  0.00     0.039 A 
HETATM   22  C18 UNK     1      19.623   0.707  30.767  1.00  0.00     0.017 A 
HETATM   23  C20 UNK     1      20.497  -0.370  30.929  1.00  0.00     0.001 A 
HETATM   24  C22 UNK     1      20.766  -1.217  29.854  1.00  0.00     0.000 A 
HETATM   25  C21 UNK     1      20.162  -0.988  28.617  1.00  0.00     0.001 A 
HETATM   26  C19 UNK     1      19.289   0.087  28.455  1.00  0.00     0.017 A 
ENDBRANCH  19  21
ENDBRANCH  18  19
ENDBRANCH   4  18
TORSDOF 4
ENDMDL
MODEL 2
REMARK VINA RESULT:      -9.2      7.493     12.536
REMARK  4 active torsions:
REMARK  status: ('A' for Active; 'I' for Inactive)
REMARK    1  A    between atoms: C13_17  and  O1_2 
REMARK    2  A    between atoms: C17_21  and  O1_2 
REMARK    3  A    between atoms: C5_9  and  C6_10 
REMARK    4  A    between atoms: C16_20  and  C17_21 
ROOT
HETATM    1  C5  UNK     1      20.149  -3.222  37.027  1.00  0.00    -0.035 A 
HETATM    2  C9  UNK     1      18.835  -2.788  37.036  1.00  0.00     0.014 A 
HETATM    3  C10 UNK     1      21.076  -2.702  36.141  1.00  0.00     0.014 A 
HETATM    4  C13 UNK     1      19.356  -1.270  35.231  1.00  0.00     0.079 A 
HETATM    5  C14 UNK     1      18.434  -1.805  36.131  1.00  0.00     0.038 A 
HETATM    6  C15 UNK     1      20.677  -1.718  35.236  1.00  0.00     0.038 A 
ENDROOT
BRANCH   1   7
HETATM    7  C6  UNK     1      20.571  -4.262  37.984  1.00  0.00     0.034 C 
HETATM    8  C3  UNK     1      20.798  -5.545  37.695  1.00  0.00     0.057 A 
HETATM    9  S1  UNK     1      21.294  -6.750  38.838  1.00  0.00    -0.086 SA
HETATM   10  C4  UNK     1      20.647  -6.096  36.322  1.00  0.00     0.200 A 
HETATM   11  C2  UNK     1      21.321  -8.001  37.581  1.00  0.00     0.020 A 
HETATM   12  C1  UNK     1      20.965  -7.529  36.319  1.00  0.00     0.032 A 
HETATM   13  C8  UNK     1      21.651  -9.337  37.757  1.00  0.00     0.020 A 
HETATM   14  C7  UNK     1      20.925  -8.360  35.208  1.00  0.00     0.017 A 
HETATM   15  C11 UNK     1      21.258  -9.704  35.383  1.00  0.00     0.001 A 
HETATM   16  C12 UNK     1      21.618 -10.189  36.649  1.00  0.00     0.001 A 
HETATM   17  O2  UNK     1      20.313  -5.469  35.332  1.00  0.00    -0.286 OA
ENDBRANCH   1   7
BRANCH   4  18
HETATM   18  O1  UNK     1      18.966  -0.309  34.349  1.00  0.00    -0.275 OA
BRANCH  18  19
HETATM   19  C17 UNK     1      18.259  -0.794  33.246  1.00  0.00     0.298 C 
HETATM   20  O3  UNK     1      17.107  -1.197  33.261  1.00  0.00    -0.259 OA
BRANCH  19  21
HETATM   21  C16 UNK     1      19.090  -0.751  32.014  1.00  0.00     0.039 A 
HETATM   22  C18 UNK     1      19.270   0.456  31.373  1.00  0.00     0.017 A 
HETATM   23  C20 UNK     1      20.050   0.495  30.216  1.00  0.00     0.001 A 
HETATM   24  C22 UNK     1      20.631  -0.675  29.728  1.00  0.00     0.000 A 
HETATM   25  C21 UNK     1      20.433  -1.883  30.396  1.00  0.00     0.001 A 
HETATM   26  C19 UNK     1      19.654  -1.923  31.551  1.00  0.00     0.017 A 
ENDBRANCH  19  21
ENDBRANCH  18  19
ENDBRANCH   4  18
TORSDOF 4
ENDMDL
MODEL 3
REMARK VINA RESULT:      -9.1      1.948      3.057
REMARK  4 active torsions:
REMARK  status: ('A' for Active; 'I' for Inactive)
REMARK    1  A    between atoms: C13_17  and  O1_2 
REMARK    2  A    between atoms: C17_21  and  O1_2 
REMARK    3  A    between atoms: C5_9  and  C6_10 
REMARK    4  A    between atoms: C16_20  and  C17_21 
ROOT
HETATM    1  C5  UNK     1      16.345   7.118  33.630  1.00  0.00    -0.035 A 
HETATM    2  C9  UNK     1      16.120   6.825  32.296  1.00  0.00     0.014 A 
HETATM    3  C10 UNK     1      17.331   6.473  34.356  1.00  0.00     0.014 A 
HETATM    4  C13 UNK     1      17.902   5.197  32.385  1.00  0.00     0.079 A 
HETATM    5  C14 UNK     1      16.904   5.857  31.669  1.00  0.00     0.038 A 
HETATM    6  C15 UNK     1      18.116   5.505  33.729  1.00  0.00     0.038 A 
ENDROOT
BRANCH   1   7
HETATM    7  C6  UNK     1      15.515   8.142  34.293  1.00  0.00     0.034 C 
HETATM    8  C3  UNK     1      15.829   9.431  34.433  1.00  0.00     0.057 A 
HETATM    9  S1  UNK     1      14.837  10.617  35.218  1.00  0.00    -0.086 SA
HETATM   10  C4  UNK     1      17.098  10.009  33.916  1.00  0.00     0.200 A 
HETATM   11  C2  UNK     1      16.028  11.893  34.903  1.00  0.00     0.020 A 
HETATM   12  C1  UNK     1      17.157  11.444  34.221  1.00  0.00     0.032 A 
HETATM   13  C8  UNK     1      15.922  13.226  35.270  1.00  0.00     0.020 A 
HETATM   14  C7  UNK     1      18.201  12.295  33.887  1.00  0.00     0.017 A 
HETATM   15  C11 UNK     1      18.095  13.637  34.254  1.00  0.00     0.001 A 
HETATM   16  C12 UNK     1      16.963  14.100  34.942  1.00  0.00     0.001 A 
HETATM   17  O2  UNK     1      17.972   9.401  33.325  1.00  0.00    -0.286 OA
ENDBRANCH   1   7
BRANCH   4  18
HETATM   18  O1  UNK     1      18.669   4.253  31.773  1.00  0.00    -0.275 OA
BRANCH  18  19
HETATM   19  C17 UNK     1      18.240   2.940  31.980  1.00  0.00     0.298 C 
HETATM   20  O3  UNK     1      17.688   2.523  32.987  1.00  0.00    -0.259 OA
BRANCH  19  21
HETATM   21  C16 UNK     1      18.528   2.087  30.799  1.00  0.00     0.039 A 
HETATM   22  C18 UNK     1      17.893   2.362  29.607  1.00  0.00     0.017 A 
HETATM   23  C20 UNK     1      18.165   1.560  28.497  1.00  0.00     0.001 A 
HETATM   24  C22 UNK     1      19.066   0.501  28.607  1.00  0.00     0.000 A 
HETATM   25  C21 UNK     1      19.695   0.244  29.825  1.00  0.00     0.001 A 
HETATM   26  C19 UNK     1      19.424   1.045  30.933  1.00  0.00     0.017 A 
ENDBRANCH  19  21
ENDBRANCH  18  19
ENDBRANCH   4  18
TORSDOF 4
ENDMDL
MODEL 4
REMARK VINA RESULT:      -9.0      9.287     12.030
REMARK  4 active torsions:
REMARK  status: ('A' for Active; 'I' for Inactive)
REMARK    1  A    between atoms: C13_17  and  O1_2 
REMARK    2  A    between atoms: C17_21  and  O1_2 
REMARK    3  A    between atoms: C5_9  and  C6_10 
REMARK    4  A    between atoms: C16_20  and  C17_21 
ROOT
HETATM    1  C5  UNK     1      20.043  -4.681  36.571  1.00  0.00    -0.035 A 
HETATM    2  C9  UNK     1      19.050  -5.640  36.682  1.00  0.00     0.014 A 
HETATM    3  C10 UNK     1      21.140  -4.676  37.415  1.00  0.00     0.014 A 
HETATM    4  C13 UNK     1      20.257  -6.631  38.525  1.00  0.00     0.079 A 
HETATM    5  C14 UNK     1      19.157  -6.622  37.667  1.00  0.00     0.038 A 
HETATM    6  C15 UNK     1      21.248  -5.659  38.399  1.00  0.00     0.038 A 
ENDROOT
BRANCH   1   7
HETATM    7  C6  UNK     1      19.929  -3.643  35.531  1.00  0.00     0.034 C 
HETATM    8  C3  UNK     1      19.410  -2.424  35.696  1.00  0.00     0.057 A 
HETATM    9  S1  UNK     1      19.285  -1.220  34.456  1.00  0.00    -0.086 SA
HETATM   10  C4  UNK     1      18.867  -1.954  36.998  1.00  0.00     0.200 A 
HETATM   11  C2  UNK     1      18.530  -0.072  35.577  1.00  0.00     0.020 A 
HETATM   12  C1  UNK     1      18.369  -0.579  36.866  1.00  0.00     0.032 A 
HETATM   13  C8  UNK     1      18.111   1.216  35.279  1.00  0.00     0.020 A 
HETATM   14  C7  UNK     1      17.794   0.170  37.883  1.00  0.00     0.017 A 
HETATM   15  C11 UNK     1      17.373   1.466  37.585  1.00  0.00     0.001 A 
HETATM   16  C12 UNK     1      17.530   1.986  36.291  1.00  0.00     0.001 A 
HETATM   17  O2  UNK     1      18.832  -2.596  38.032  1.00  0.00    -0.286 OA
ENDBRANCH   1   7
BRANCH   4  18
HETATM   18  O1  UNK     1      20.362  -7.591  39.485  1.00  0.00    -0.275 OA
BRANCH  18  19
HETATM   19  C17 UNK     1      21.504  -8.388  39.379  1.00  0.00     0.298 C 
HETATM   20  O3  UNK     1      22.428  -8.416  40.178  1.00  0.00    -0.259 OA
BRANCH  19  21
HETATM   21  C16 UNK     1      21.460  -9.231  38.157  1.00  0.00     0.039 A 
HETATM   22  C18 UNK     1      22.415  -9.039  37.180  1.00  0.00     0.017 A 
HETATM   23  C20 UNK     1      22.372  -9.831  36.032  1.00  0.00     0.001 A 
HETATM   24  C22 UNK     1      21.376 -10.797  35.887  1.00  0.00     0.000 A 
HETATM   25  C21 UNK     1      20.423 -10.971  36.891  1.00  0.00     0.001 A 
HETATM   26  C19 UNK     1      20.465 -10.179  38.037  1.00  0.00     0.017 A 
ENDBRANCH  19  21
ENDBRANCH  18  19
ENDBRANCH   4  18
TORSDOF 4
ENDMDL
MODEL 5
REMARK VINA RESULT:      -8.8      7.566     12.337
REMARK  4 active torsions:
REMARK  status: ('A' for Active; 'I' for Inactive)
REMARK    1  A    between atoms: C13_17  and  O1_2 
REMARK    2  A    between atoms: C17_21  and  O1_2 
REMARK    3  A    between atoms: C5_9  and  C6_10 
REMARK    4  A    between atoms: C16_20  and  C17_21 
ROOT
HETATM    1  C5  UNK     1      20.118  -2.957  36.598  1.00  0.00    -0.035 A 
HETATM    2  C9  UNK     1      19.010  -2.301  37.107  1.00  0.00     0.014 A 
HETATM    3  C10 UNK     1      20.521  -2.784  35.285  1.00  0.00     0.014 A 
HETATM    4  C13 UNK     1      18.676  -1.261  34.952  1.00  0.00     0.079 A 
HETATM    5  C14 UNK     1      18.283  -1.447  36.277  1.00  0.00     0.038 A 
HETATM    6  C15 UNK     1      19.795  -1.930  34.456  1.00  0.00     0.038 A 
ENDROOT
BRANCH   1   7
HETATM    7  C6  UNK     1      20.887  -3.860  37.475  1.00  0.00     0.034 C 
HETATM    8  C3  UNK     1      20.676  -5.170  37.625  1.00  0.00     0.057 A 
HETATM    9  S1  UNK     1      21.593  -6.211  38.664  1.00  0.00    -0.086 SA
HETATM   10  C4  UNK     1      19.603  -5.898  36.898  1.00  0.00     0.200 A 
HETATM   11  C2  UNK     1      20.621  -7.618  38.192  1.00  0.00     0.020 A 
HETATM   12  C1  UNK     1      19.620  -7.318  37.269  1.00  0.00     0.032 A 
HETATM   13  C8  UNK     1      20.776  -8.918  38.652  1.00  0.00     0.020 A 
HETATM   14  C7  UNK     1      18.755  -8.288  36.783  1.00  0.00     0.017 A 
HETATM   15  C11 UNK     1      18.911  -9.596  37.244  1.00  0.00     0.001 A 
HETATM   16  C12 UNK     1      19.915  -9.909  38.172  1.00  0.00     0.001 A 
HETATM   17  O2  UNK     1      18.817  -5.410  36.106  1.00  0.00    -0.286 OA
ENDBRANCH   1   7
BRANCH   4  18
HETATM   18  O1  UNK     1      17.967  -0.427  34.143  1.00  0.00    -0.275 OA
BRANCH  18  19
HETATM   19  C17 UNK     1      18.502   0.858  34.031  1.00  0.00     0.298 C 
HETATM   20  O3  UNK     1      18.869   1.560  34.961  1.00  0.00    -0.259 OA
BRANCH  19  21
HETATM   21  C16 UNK     1      18.589   1.282  32.609  1.00  0.00     0.039 A 
HETATM   22  C18 UNK     1      18.159   2.546  32.263  1.00  0.00     0.017 A 
HETATM   23  C20 UNK     1      18.241   2.943  30.928  1.00  0.00     0.001 A 
HETATM   24  C22 UNK     1      18.751   2.067  29.970  1.00  0.00     0.000 A 
HETATM   25  C21 UNK     1      19.180   0.794  30.347  1.00  0.00     0.001 A 
HETATM   26  C19 UNK     1      19.098   0.397  31.681  1.00  0.00     0.017 A 
ENDBRANCH  19  21
ENDBRANCH  18  19
ENDBRANCH   4  18
TORSDOF 4
ENDMDL
MODEL 6
REMARK VINA RESULT:      -8.8      8.242     11.729
REMARK  4 active torsions:
REMARK  status: ('A' for Active; 'I' for Inactive)
REMARK    1  A    between atoms: C13_17  and  O1_2 
REMARK    2  A    between atoms: C17_21  and  O1_2 
REMARK    3  A    between atoms: C5_9  and  C6_10 
REMARK    4  A    between atoms: C16_20  and  C17_21 
ROOT
HETATM    1  C5  UNK     1      19.454  -3.024  36.366  1.00  0.00    -0.035 A 
HETATM    2  C9  UNK     1      20.688  -2.951  36.991  1.00  0.00     0.014 A 
HETATM    3  C10 UNK     1      18.745  -4.211  36.303  1.00  0.00     0.014 A 
HETATM    4  C13 UNK     1      20.527  -5.304  37.513  1.00  0.00     0.079 A 
HETATM    5  C14 UNK     1      21.229  -4.100  37.568  1.00  0.00     0.038 A 
HETATM    6  C15 UNK     1      19.286  -5.360  36.881  1.00  0.00     0.038 A 
ENDROOT
BRANCH   1   7
HETATM    7  C6  UNK     1      18.883  -1.809  35.756  1.00  0.00     0.034 C 
HETATM    8  C3  UNK     1      19.078  -1.399  34.501  1.00  0.00     0.057 A 
HETATM    9  S1  UNK     1      18.396   0.034  33.806  1.00  0.00    -0.086 SA
HETATM   10  C4  UNK     1      19.925  -2.148  33.535  1.00  0.00     0.200 A 
HETATM   11  C2  UNK     1      19.181  -0.288  32.248  1.00  0.00     0.020 A 
HETATM   12  C1  UNK     1      19.947  -1.453  32.242  1.00  0.00     0.032 A 
HETATM   13  C8  UNK     1      19.094   0.492  31.105  1.00  0.00     0.020 A 
HETATM   14  C7  UNK     1      20.640  -1.871  31.115  1.00  0.00     0.017 A 
HETATM   15  C11 UNK     1      20.552  -1.087  29.964  1.00  0.00     0.001 A 
HETATM   16  C12 UNK     1      19.784   0.087  29.959  1.00  0.00     0.001 A 
HETATM   17  O2  UNK     1      20.519  -3.187  33.761  1.00  0.00    -0.286 OA
ENDBRANCH   1   7
BRANCH   4  18
HETATM   18  O1  UNK     1      21.055  -6.425  38.078  1.00  0.00    -0.275 OA
BRANCH  18  19
HETATM   19  C17 UNK     1      21.257  -7.479  37.184  1.00  0.00     0.298 C 
HETATM   20  O3  UNK     1      21.882  -7.414  36.137  1.00  0.00    -0.259 OA
BRANCH  19  21
HETATM   21  C16 UNK     1      20.617  -8.728  37.672  1.00  0.00     0.039 A 
HETATM   22  C18 UNK     1      20.328  -9.727  36.766  1.00  0.00     0.017 A 
HETATM   23  C20 UNK     1      19.726 -10.899  37.225  1.00  0.00     0.001 A 
HETATM   24  C22 UNK     1      19.428 -11.046  38.580  1.00  0.00     0.000 A 
HETATM   25  C21 UNK     1      19.732 -10.020  39.475  1.00  0.00     0.001 A 
HETATM   26  C19 UNK     1      20.332  -8.848  39.017  1.00  0.00     0.017 A 
ENDBRANCH  19  21
ENDBRANCH  18  19
ENDBRANCH   4  18
TORSDOF 4
ENDMDL
MODEL 7
REMARK VINA RESULT:      -8.6     22.154     23.917
REMARK  4 active torsions:
REMARK  status: ('A' for Active; 'I' for Inactive)
REMARK    1  A    between atoms: C13_17  and  O1_2 
REMARK    2  A    between atoms: C17_21  and  O1_2 
REMARK    3  A    between atoms: C5_9  and  C6_10 
REMARK    4  A    between atoms: C16_20  and  C17_21 
ROOT
HETATM    1  C5  UNK     1      15.623   9.760  10.327  1.00  0.00    -0.035 A 
HETATM    2  C9  UNK     1      15.986   8.503  10.779  1.00  0.00     0.014 A 
HETATM    3  C10 UNK     1      14.694   9.923   9.314  1.00  0.00     0.014 A 
HETATM    4  C13 UNK     1      14.465   7.522   9.180  1.00  0.00     0.079 A 
HETATM    5  C14 UNK     1      15.403   7.375  10.201  1.00  0.00     0.038 A 
HETATM    6  C15 UNK     1      14.110   8.796   8.737  1.00  0.00     0.038 A 
ENDROOT
BRANCH   1   7
HETATM    7  C6  UNK     1      16.240  10.952  10.938  1.00  0.00     0.034 C 
HETATM    8  C3  UNK     1      17.365  11.545  10.532  1.00  0.00     0.057 A 
HETATM    9  S1  UNK     1      18.072  12.946  11.268  1.00  0.00    -0.086 SA
HETATM   10  C4  UNK     1      18.156  11.055   9.372  1.00  0.00     0.200 A 
HETATM   11  C2  UNK     1      19.409  12.943  10.103  1.00  0.00     0.020 A 
HETATM   12  C1  UNK     1      19.334  11.909   9.172  1.00  0.00     0.032 A 
HETATM   13  C8  UNK     1      20.463  13.844  10.058  1.00  0.00     0.020 A 
HETATM   14  C7  UNK     1      20.291  11.740   8.182  1.00  0.00     0.017 A 
HETATM   15  C11 UNK     1      21.351  12.646   8.134  1.00  0.00     0.001 A 
HETATM   16  C12 UNK     1      21.437  13.691   9.066  1.00  0.00     0.001 A 
HETATM   17  O2  UNK     1      17.885  10.093   8.677  1.00  0.00    -0.286 OA
ENDBRANCH   1   7
BRANCH   4  18
HETATM   18  O1  UNK     1      13.895   6.421   8.617  1.00  0.00    -0.275 OA
BRANCH  18  19
HETATM   19  C17 UNK     1      12.653   6.077   9.155  1.00  0.00     0.298 C 
HETATM   20  O3  UNK     1      12.441   5.777  10.320  1.00  0.00    -0.259 OA
BRANCH  19  21
HETATM   21  C16 UNK     1      11.585   6.130   8.123  1.00  0.00     0.039 A 
HETATM   22  C18 UNK     1      11.947   6.183   6.793  1.00  0.00     0.017 A 
HETATM   23  C20 UNK     1      10.943   6.233   5.824  1.00  0.00     0.001 A 
HETATM   24  C22 UNK     1       9.602   6.229   6.208  1.00  0.00     0.000 A 
HETATM   25  C21 UNK     1       9.265   6.175   7.560  1.00  0.00     0.001 A 
HETATM   26  C19 UNK     1      10.267   6.125   8.528  1.00  0.00     0.017 A 
ENDBRANCH  19  21
ENDBRANCH  18  19
ENDBRANCH   4  18
TORSDOF 4
ENDMDL
MODEL 8
REMARK VINA RESULT:      -8.6     14.725     17.972
REMARK  4 active torsions:
REMARK  status: ('A' for Active; 'I' for Inactive)
REMARK    1  A    between atoms: C13_17  and  O1_2 
REMARK    2  A    between atoms: C17_21  and  O1_2 
REMARK    3  A    between atoms: C5_9  and  C6_10 
REMARK    4  A    between atoms: C16_20  and  C17_21 
ROOT
HETATM    1  C5  UNK     1      28.524  -8.897  37.668  1.00  0.00    -0.035 A 
HETATM    2  C9  UNK     1      27.436  -8.897  36.811  1.00  0.00     0.014 A 
HETATM    3  C10 UNK     1      28.369  -8.723  39.033  1.00  0.00     0.014 A 
HETATM    4  C13 UNK     1      25.982  -8.542  38.707  1.00  0.00     0.079 A 
HETATM    5  C14 UNK     1      26.155  -8.718  37.334  1.00  0.00     0.038 A 
HETATM    6  C15 UNK     1      27.088  -8.545  39.556  1.00  0.00     0.038 A 
ENDROOT
BRANCH   1   7
HETATM    7  C6  UNK     1      29.877  -9.086  37.114  1.00  0.00     0.034 C 
HETATM    8  C3  UNK     1      30.729  -8.113  36.783  1.00  0.00     0.057 A 
HETATM    9  S1  UNK     1      32.317  -8.360  36.132  1.00  0.00    -0.086 SA
HETATM   10  C4  UNK     1      30.401  -6.671  36.942  1.00  0.00     0.200 A 
HETATM   11  C2  UNK     1      32.606  -6.613  36.045  1.00  0.00     0.020 A 
HETATM   12  C1  UNK     1      31.532  -5.848  36.495  1.00  0.00     0.032 A 
HETATM   13  C8  UNK     1      33.758  -5.991  35.584  1.00  0.00     0.020 A 
HETATM   14  C7  UNK     1      31.568  -4.461  36.501  1.00  0.00     0.017 A 
HETATM   15  C11 UNK     1      32.727  -3.834  36.039  1.00  0.00     0.001 A 
HETATM   16  C12 UNK     1      33.814  -4.594  35.583  1.00  0.00     0.001 A 
HETATM   17  O2  UNK     1      29.358  -6.219  37.376  1.00  0.00    -0.286 OA
ENDBRANCH   1   7
BRANCH   4  18
HETATM   18  O1  UNK     1      24.732  -8.368  39.218  1.00  0.00    -0.275 OA
BRANCH  18  19
HETATM   19  C17 UNK     1      24.181  -7.108  38.975  1.00  0.00     0.298 C 
HETATM   20  O3  UNK     1      24.813  -6.088  38.749  1.00  0.00    -0.259 OA
BRANCH  19  21
HETATM   21  C16 UNK     1      22.696  -7.154  39.013  1.00  0.00     0.039 A 
HETATM   22  C18 UNK     1      21.984  -6.076  38.532  1.00  0.00     0.017 A 
HETATM   23  C20 UNK     1      20.590  -6.120  38.567  1.00  0.00     0.001 A 
HETATM   24  C22 UNK     1      19.940  -7.241  39.084  1.00  0.00     0.000 A 
HETATM   25  C21 UNK     1      20.685  -8.318  39.565  1.00  0.00     0.001 A 
HETATM   26  C19 UNK     1      22.078  -8.274  39.529  1.00  0.00     0.017 A 
ENDBRANCH  19  21
ENDBRANCH  18  19
ENDBRANCH   4  18
TORSDOF 4
ENDMDL
MODEL 9
REMARK VINA RESULT:      -8.5      2.615      9.462
REMARK  4 active torsions:
REMARK  status: ('A' for Active; 'I' for Inactive)
REMARK    1  A    between atoms: C13_17  and  O1_2 
REMARK    2  A    between atoms: C17_21  and  O1_2 
REMARK    3  A    between atoms: C5_9  and  C6_10 
REMARK    4  A    between atoms: C16_20  and  C17_21 
ROOT
HETATM    1  C5  UNK     1      18.128   5.737  32.086  1.00  0.00    -0.035 A 
HETATM    2  C9  UNK     1      16.795   6.088  32.220  1.00  0.00     0.014 A 
HETATM    3  C10 UNK     1      19.122   6.391  32.793  1.00  0.00     0.014 A 
HETATM    4  C13 UNK     1      17.435   7.793  33.806  1.00  0.00     0.079 A 
HETATM    5  C14 UNK     1      16.446   7.124  33.086  1.00  0.00     0.038 A 
HETATM    6  C15 UNK     1      18.773   7.427  33.660  1.00  0.00     0.038 A 
ENDROOT
BRANCH   1   7
HETATM    7  C6  UNK     1      18.496   4.642  31.170  1.00  0.00     0.034 C 
HETATM    8  C3  UNK     1      18.580   3.349  31.492  1.00  0.00     0.057 A 
HETATM    9  S1  UNK     1      19.017   2.078  30.397  1.00  0.00    -0.086 SA
HETATM   10  C4  UNK     1      18.300   2.843  32.862  1.00  0.00     0.200 A 
HETATM   11  C2  UNK     1      18.851   0.856  31.671  1.00  0.00     0.020 A 
HETATM   12  C1  UNK     1      18.474   1.386  32.904  1.00  0.00     0.032 A 
HETATM   13  C8  UNK     1      19.060  -0.508  31.536  1.00  0.00     0.020 A 
HETATM   14  C7  UNK     1      18.296   0.587  34.024  1.00  0.00     0.017 A 
HETATM   15  C11 UNK     1      18.505  -0.786  33.889  1.00  0.00     0.001 A 
HETATM   16  C12 UNK     1      18.885  -1.331  32.653  1.00  0.00     0.001 A 
HETATM   17  O2  UNK     1      17.971   3.519  33.820  1.00  0.00    -0.286 OA
ENDBRANCH   1   7
BRANCH   4  18
HETATM   18  O1  UNK     1      17.094   8.804  34.652  1.00  0.00    -0.275 OA
BRANCH  18  19
HETATM   19  C17 UNK     1      16.999  10.057  34.043  1.00  0.00     0.298 C 
HETATM   20  O3  UNK     1      17.914  10.653  33.495  1.00  0.00    -0.259 OA
BRANCH  19  21
HETATM   21  C16 UNK     1      15.617  10.594  34.130  1.00  0.00     0.039 A 
HETATM   22  C18 UNK     1      14.735  10.336  33.102  1.00  0.00     0.017 A 
HETATM   23  C20 UNK     1      13.437  10.841  33.184  1.00  0.00     0.001 A 
HETATM   24  C22 UNK     1      13.051  11.593  34.293  1.00  0.00     0.000 A 
HETATM   25  C21 UNK     1      13.962  11.840  35.320  1.00  0.00     0.001 A 
HETATM   26  C19 UNK     1      15.259  11.336  35.238  1.00  0.00     0.017 A 
ENDBRANCH  19  21
ENDBRANCH  18  19
ENDBRANCH   4  18
TORSDOF 4
ENDMDL
MODEL 10
REMARK VINA RESULT:      -8.4     15.215     17.344
REMARK  4 active torsions:
REMARK  status: ('A' for Active; 'I' for Inactive)
REMARK    1  A    between atoms: C13_17  and  O1_2 
REMARK    2  A    between atoms: C17_21  and  O1_2 
REMARK    3  A    between atoms: C5_9  and  C6_10 
REMARK    4  A    between atoms: C16_20  and  C17_21 
ROOT
HETATM    1  C5  UNK     1      26.163  -8.755  37.541  1.00  0.00    -0.035 A 
HETATM    2  C9  UNK     1      26.570  -9.039  38.833  1.00  0.00     0.014 A 
HETATM    3  C10 UNK     1      26.880  -7.892  36.730  1.00  0.00     0.014 A 
HETATM    4  C13 UNK     1      28.464  -7.571  38.526  1.00  0.00     0.079 A 
HETATM    5  C14 UNK     1      27.729  -8.442  39.330  1.00  0.00     0.038 A 
HETATM    6  C15 UNK     1      28.040  -7.296  37.226  1.00  0.00     0.038 A 
ENDROOT
BRANCH   1   7
HETATM    7  C6  UNK     1      24.938  -9.386  37.016  1.00  0.00     0.034 C 
HETATM    8  C3  UNK     1      23.686  -9.019  37.301  1.00  0.00     0.057 A 
HETATM    9  S1  UNK     1      22.260  -9.778  36.672  1.00  0.00    -0.086 SA
HETATM   10  C4  UNK     1      23.370  -7.889  38.214  1.00  0.00     0.200 A 
HETATM   11  C2  UNK     1      21.212  -8.661  37.566  1.00  0.00     0.020 A 
HETATM   12  C1  UNK     1      21.915  -7.729  38.329  1.00  0.00     0.032 A 
HETATM   13  C8  UNK     1      19.825  -8.652  37.562  1.00  0.00     0.020 A 
HETATM   14  C7  UNK     1      21.269  -6.774  39.100  1.00  0.00     0.017 A 
HETATM   15  C11 UNK     1      19.873  -6.763  39.096  1.00  0.00     0.001 A 
HETATM   16  C12 UNK     1      19.156  -7.696  38.332  1.00  0.00     0.001 A 
HETATM   17  O2  UNK     1      24.181  -7.186  38.789  1.00  0.00    -0.286 OA
ENDBRANCH   1   7
BRANCH   4  18
HETATM   18  O1  UNK     1      29.595  -6.989  39.011  1.00  0.00    -0.275 OA
BRANCH  18  19
HETATM   19  C17 UNK     1      29.590  -5.593  38.964  1.00  0.00     0.298 C 
HETATM   20  O3  UNK     1      28.803  -4.865  39.548  1.00  0.00    -0.259 OA
BRANCH  19  21
HETATM   21  C16 UNK     1      30.691  -5.080  38.107  1.00  0.00     0.039 A 
HETATM   22  C18 UNK     1      31.826  -5.847  37.949  1.00  0.00     0.017 A 
HETATM   23  C20 UNK     1      32.859  -5.364  37.145  1.00  0.00     0.001 A 
HETATM   24  C22 UNK     1      32.733  -4.125  36.518  1.00  0.00     0.000 A 
HETATM   25  C21 UNK     1      31.574  -3.369  36.695  1.00  0.00     0.001 A 
HETATM   26  C19 UNK     1      30.542  -3.851  37.498  1.00  0.00     0.017 A 
ENDBRANCH  19  21
ENDBRANCH  18  19
ENDBRANCH   4  18
TORSDOF 4
ENDMDL
