MODEL 1
REMARK VINA RESULT:      -7.3      0.000      0.000
REMARK  3 active torsions:
REMARK  status: ('A' for Active; 'I' for Inactive)
REMARK    1  A    between atoms: C3_7  and  O1_1 
REMARK    2  A    between atoms: C8_12  and  O1_1 
REMARK    3  A    between atoms: C11_15  and  C8_12 
ROOT
HETATM    1  O2  UNK     1      19.935  -0.494  31.858  1.00  0.00    -0.275 OA
HETATM    2  O3  UNK     1      21.007  -2.510  32.032  1.00  0.00    -0.260 OA
HETATM    3  C1  UNK     1      19.423   0.388  29.648  1.00  0.00    -0.002 A 
HETATM    4  C2  UNK     1      19.385   0.510  31.034  1.00  0.00     0.092 A 
HETATM    5  C3  UNK     1      18.261   2.625  30.869  1.00  0.00     0.071 A 
HETATM    6  C4  UNK     1      18.811   1.615  31.657  1.00  0.00     0.075 A 
HETATM    7  C5  UNK     1      18.869   1.403  28.864  1.00  0.00     0.017 A 
HETATM    8  C6  UNK     1      18.289   2.518  29.477  1.00  0.00     0.038 A 
HETATM    9  C7  UNK     1      20.039  -0.792  29.064  1.00  0.00     0.020 A 
HETATM   10  C9  UNK     1      20.555  -1.739  29.852  1.00  0.00     0.083 A 
HETATM   11  C10 UNK     1      20.528  -1.633  31.322  1.00  0.00     0.288 A 
ENDROOT
BRANCH   5  12
HETATM   12  O1  UNK     1      17.693   3.714  31.455  1.00  0.00    -0.344 OA
BRANCH  12  13
HETATM   13  C8  UNK     1      18.577   4.707  31.972  1.00  0.00     0.253 C 
BRANCH  13  14
HETATM   14  C11 UNK     1      18.665   5.887  31.027  1.00  0.00     0.146 C 
HETATM   15  O4  UNK     1      17.827   6.786  31.015  1.00  0.00    -0.296 OA
HETATM   16  C12 UNK     1      19.845   5.905  30.091  1.00  0.00     0.093 C 
ENDBRANCH  13  14
ENDBRANCH  12  13
ENDBRANCH   5  12
TORSDOF 3
ENDMDL
MODEL 2
REMARK VINA RESULT:      -7.1      2.700      6.939
REMARK  3 active torsions:
REMARK  status: ('A' for Active; 'I' for Inactive)
REMARK    1  A    between atoms: C3_7  and  O1_1 
REMARK    2  A    between atoms: C8_12  and  O1_1 
REMARK    3  A    between atoms: C11_15  and  C8_12 
ROOT
HETATM    1  O2  UNK     1      17.366   6.578  33.683  1.00  0.00    -0.275 OA
HETATM    2  O3  UNK     1      16.746   7.804  35.516  1.00  0.00    -0.260 OA
HETATM    3  C1  UNK     1      19.653   6.744  32.867  1.00  0.00    -0.002 A 
HETATM    4  C2  UNK     1      18.371   6.210  32.766  1.00  0.00     0.092 A 
HETATM    5  C3  UNK     1      19.005   4.918  30.844  1.00  0.00     0.071 A 
HETATM    6  C4  UNK     1      18.033   5.302  31.766  1.00  0.00     0.075 A 
HETATM    7  C5  UNK     1      20.623   6.355  31.940  1.00  0.00     0.017 A 
HETATM    8  C6  UNK     1      20.296   5.443  30.931  1.00  0.00     0.038 A 
HETATM    9  C7  UNK     1      19.937   7.688  33.935  1.00  0.00     0.020 A 
HETATM   10  C9  UNK     1      18.980   8.030  34.800  1.00  0.00     0.083 A 
HETATM   11  C10 UNK     1      17.615   7.479  34.714  1.00  0.00     0.288 A 
ENDROOT
BRANCH   5  12
HETATM   12  O1  UNK     1      18.698   4.031  29.859  1.00  0.00    -0.344 OA
BRANCH  12  13
HETATM   13  C8  UNK     1      18.645   2.652  30.220  1.00  0.00     0.253 C 
BRANCH  13  14
HETATM   14  C11 UNK     1      18.554   1.779  28.986  1.00  0.00     0.146 C 
HETATM   15  O4  UNK     1      17.867   2.084  28.013  1.00  0.00    -0.296 OA
HETATM   16  C12 UNK     1      19.355   0.505  29.010  1.00  0.00     0.093 C 
ENDBRANCH  13  14
ENDBRANCH  12  13
ENDBRANCH   5  12
TORSDOF 3
ENDMDL
MODEL 3
REMARK VINA RESULT:      -7.0      1.851      6.364
REMARK  3 active torsions:
REMARK  status: ('A' for Active; 'I' for Inactive)
REMARK    1  A    between atoms: C3_7  and  O1_1 
REMARK    2  A    between atoms: C8_12  and  O1_1 
REMARK    3  A    between atoms: C11_15  and  C8_12 
ROOT
HETATM    1  O2  UNK     1      17.675   5.277  33.640  1.00  0.00    -0.275 OA
HETATM    2  O3  UNK     1      17.282   7.137  34.917  1.00  0.00    -0.260 OA
HETATM    3  C1  UNK     1      18.516   5.555  31.372  1.00  0.00    -0.002 A 
HETATM    4  C2  UNK     1      18.103   4.728  32.413  1.00  0.00     0.092 A 
HETATM    5  C3  UNK     1      18.511   2.768  31.088  1.00  0.00     0.071 A 
HETATM    6  C4  UNK     1      18.095   3.341  32.288  1.00  0.00     0.075 A 
HETATM    7  C5  UNK     1      18.932   4.974  30.172  1.00  0.00     0.017 A 
HETATM    8  C6  UNK     1      18.929   3.583  30.033  1.00  0.00     0.038 A 
HETATM    9  C7  UNK     1      18.498   6.995  31.571  1.00  0.00     0.020 A 
HETATM   10  C9  UNK     1      18.093   7.506  32.736  1.00  0.00     0.083 A 
HETATM   11  C10 UNK     1      17.651   6.652  33.853  1.00  0.00     0.288 A 
ENDROOT
BRANCH   5  12
HETATM   12  O1  UNK     1      18.513   1.415  30.942  1.00  0.00    -0.344 OA
BRANCH  12  13
HETATM   13  C8  UNK     1      19.099   0.891  29.752  1.00  0.00     0.253 C 
BRANCH  13  14
HETATM   14  C11 UNK     1      20.299   0.027  30.083  1.00  0.00     0.146 C 
HETATM   15  O4  UNK     1      20.852   0.061  31.180  1.00  0.00    -0.296 OA
HETATM   16  C12 UNK     1      20.785  -0.885  28.988  1.00  0.00     0.093 C 
ENDBRANCH  13  14
ENDBRANCH  12  13
ENDBRANCH   5  12
TORSDOF 3
ENDMDL
MODEL 4
REMARK VINA RESULT:      -7.0     22.282     23.921
REMARK  3 active torsions:
REMARK  status: ('A' for Active; 'I' for Inactive)
REMARK    1  A    between atoms: C3_7  and  O1_1 
REMARK    2  A    between atoms: C8_12  and  O1_1 
REMARK    3  A    between atoms: C11_15  and  C8_12 
ROOT
HETATM    1  O2  UNK     1       9.597   5.491   8.680  1.00  0.00    -0.275 OA
HETATM    2  O3  UNK     1       7.437   5.546   7.919  1.00  0.00    -0.260 OA
HETATM    3  C1  UNK     1      11.396   6.165   7.185  1.00  0.00    -0.002 A 
HETATM    4  C2  UNK     1      10.968   5.706   8.428  1.00  0.00     0.092 A 
HETATM    5  C3  UNK     1      13.225   5.643   9.241  1.00  0.00     0.071 A 
HETATM    6  C4  UNK     1      11.864   5.441   9.460  1.00  0.00     0.075 A 
HETATM    7  C5  UNK     1      12.762   6.365   6.973  1.00  0.00     0.017 A 
HETATM    8  C6  UNK     1      13.673   6.104   8.001  1.00  0.00     0.038 A 
HETATM    9  C7  UNK     1      10.406   6.419   6.152  1.00  0.00     0.020 A 
HETATM   10  C9  UNK     1       9.110   6.215   6.400  1.00  0.00     0.083 A 
HETATM   11  C10 UNK     1       8.631   5.729   7.707  1.00  0.00     0.288 A 
ENDROOT
BRANCH   5  12
HETATM   12  O1  UNK     1      14.120   5.392  10.236  1.00  0.00    -0.344 OA
BRANCH  12  13
HETATM   13  C8  UNK     1      15.491   5.677   9.962  1.00  0.00     0.253 C 
BRANCH  13  14
HETATM   14  C11 UNK     1      15.928   6.939  10.675  1.00  0.00     0.146 C 
HETATM   15  O4  UNK     1      15.217   7.509  11.500  1.00  0.00    -0.296 OA
HETATM   16  C12 UNK     1      17.291   7.469  10.318  1.00  0.00     0.093 C 
ENDBRANCH  13  14
ENDBRANCH  12  13
ENDBRANCH   5  12
TORSDOF 3
ENDMDL
MODEL 5
REMARK VINA RESULT:      -7.0      3.191      5.200
REMARK  3 active torsions:
REMARK  status: ('A' for Active; 'I' for Inactive)
REMARK    1  A    between atoms: C3_7  and  O1_1 
REMARK    2  A    between atoms: C8_12  and  O1_1 
REMARK    3  A    between atoms: C11_15  and  C8_12 
ROOT
HETATM    1  O2  UNK     1      18.743   0.644  30.619  1.00  0.00    -0.275 OA
HETATM    2  O3  UNK     1      18.714   1.590  28.533  1.00  0.00    -0.260 OA
HETATM    3  C1  UNK     1      20.204  -1.258  31.035  1.00  0.00    -0.002 A 
HETATM    4  C2  UNK     1      19.258  -0.341  31.487  1.00  0.00     0.092 A 
HETATM    5  C3  UNK     1      19.277  -1.321  33.678  1.00  0.00     0.071 A 
HETATM    6  C4  UNK     1      18.787  -0.359  32.797  1.00  0.00     0.075 A 
HETATM    7  C5  UNK     1      20.691  -2.219  31.924  1.00  0.00     0.017 A 
HETATM    8  C6  UNK     1      20.226  -2.249  33.243  1.00  0.00     0.038 A 
HETATM    9  C7  UNK     1      20.651  -1.183  29.655  1.00  0.00     0.020 A 
HETATM   10  C9  UNK     1      20.159  -0.246  28.840  1.00  0.00     0.083 A 
HETATM   11  C10 UNK     1      19.157   0.736  29.294  1.00  0.00     0.288 A 
ENDROOT
BRANCH   5  12
HETATM   12  O1  UNK     1      18.832  -1.358  34.964  1.00  0.00    -0.344 OA
BRANCH  12  13
HETATM   13  C8  UNK     1      17.855  -0.389  35.340  1.00  0.00     0.253 C 
BRANCH  13  14
HETATM   14  C11 UNK     1      18.457   0.644  36.269  1.00  0.00     0.146 C 
HETATM   15  O4  UNK     1      19.496   1.246  36.001  1.00  0.00    -0.296 OA
HETATM   16  C12 UNK     1      17.713   0.902  37.553  1.00  0.00     0.093 C 
ENDBRANCH  13  14
ENDBRANCH  12  13
ENDBRANCH   5  12
TORSDOF 3
ENDMDL
MODEL 6
REMARK VINA RESULT:      -6.9      2.125      3.841
REMARK  3 active torsions:
REMARK  status: ('A' for Active; 'I' for Inactive)
REMARK    1  A    between atoms: C3_7  and  O1_1 
REMARK    2  A    between atoms: C8_12  and  O1_1 
REMARK    3  A    between atoms: C11_15  and  C8_12 
ROOT
HETATM    1  O2  UNK     1      18.151   2.652  32.672  1.00  0.00    -0.275 OA
HETATM    2  O3  UNK     1      18.216   0.364  32.736  1.00  0.00    -0.260 OA
HETATM    3  C1  UNK     1      18.817   3.799  30.631  1.00  0.00    -0.002 A 
HETATM    4  C2  UNK     1      18.358   3.843  31.945  1.00  0.00     0.092 A 
HETATM    5  C3  UNK     1      18.283   6.241  31.894  1.00  0.00     0.071 A 
HETATM    6  C4  UNK     1      18.087   5.048  32.586  1.00  0.00     0.075 A 
HETATM    7  C5  UNK     1      19.011   4.999  29.943  1.00  0.00     0.017 A 
HETATM    8  C6  UNK     1      18.743   6.217  30.575  1.00  0.00     0.038 A 
HETATM    9  C7  UNK     1      19.081   2.505  30.023  1.00  0.00     0.020 A 
HETATM   10  C9  UNK     1      18.880   1.383  30.718  1.00  0.00     0.083 A 
HETATM   11  C10 UNK     1      18.395   1.403  32.110  1.00  0.00     0.288 A 
ENDROOT
BRANCH   5  12
HETATM   12  O1  UNK     1      18.024   7.432  32.501  1.00  0.00    -0.344 OA
BRANCH  12  13
HETATM   13  C8  UNK     1      16.708   7.626  33.014  1.00  0.00     0.253 C 
BRANCH  13  14
HETATM   14  C11 UNK     1      15.721   7.844  31.886  1.00  0.00     0.146 C 
HETATM   15  O4  UNK     1      15.983   8.538  30.906  1.00  0.00    -0.296 OA
HETATM   16  C12 UNK     1      14.387   7.159  32.026  1.00  0.00     0.093 C 
ENDBRANCH  13  14
ENDBRANCH  12  13
ENDBRANCH   5  12
TORSDOF 3
ENDMDL
MODEL 7
REMARK VINA RESULT:      -6.7     22.798     24.522
REMARK  3 active torsions:
REMARK  status: ('A' for Active; 'I' for Inactive)
REMARK    1  A    between atoms: C3_7  and  O1_1 
REMARK    2  A    between atoms: C8_12  and  O1_1 
REMARK    3  A    between atoms: C11_15  and  C8_12 
ROOT
HETATM    1  O2  UNK     1       9.437   7.403   8.790  1.00  0.00    -0.275 OA
HETATM    2  O3  UNK     1       7.161   7.231   8.594  1.00  0.00    -0.260 OA
HETATM    3  C1  UNK     1      10.845   6.609   6.970  1.00  0.00    -0.002 A 
HETATM    4  C2  UNK     1      10.713   7.189   8.229  1.00  0.00     0.092 A 
HETATM    5  C3  UNK     1      13.096   7.377   8.449  1.00  0.00     0.071 A 
HETATM    6  C4  UNK     1      11.822   7.576   8.977  1.00  0.00     0.075 A 
HETATM    7  C5  UNK     1      12.125   6.412   6.447  1.00  0.00     0.017 A 
HETATM    8  C6  UNK     1      13.247   6.797   7.188  1.00  0.00     0.038 A 
HETATM    9  C7  UNK     1       9.645   6.227   6.244  1.00  0.00     0.020 A 
HETATM   10  C9  UNK     1       8.441   6.435   6.783  1.00  0.00     0.083 A 
HETATM   11  C10 UNK     1       8.274   7.047   8.113  1.00  0.00     0.288 A 
ENDROOT
BRANCH   5  12
HETATM   12  O1  UNK     1      14.194   7.749   9.161  1.00  0.00    -0.344 OA
BRANCH  12  13
HETATM   13  C8  UNK     1      14.665   6.837  10.152  1.00  0.00     0.253 C 
BRANCH  13  14
HETATM   14  C11 UNK     1      16.057   6.348   9.810  1.00  0.00     0.146 C 
HETATM   15  O4  UNK     1      16.259   5.268   9.258  1.00  0.00    -0.296 OA
HETATM   16  C12 UNK     1      17.195   7.260  10.184  1.00  0.00     0.093 C 
ENDBRANCH  13  14
ENDBRANCH  12  13
ENDBRANCH   5  12
TORSDOF 3
ENDMDL
MODEL 8
REMARK VINA RESULT:      -6.7     22.997     24.584
REMARK  3 active torsions:
REMARK  status: ('A' for Active; 'I' for Inactive)
REMARK    1  A    between atoms: C3_7  and  O1_1 
REMARK    2  A    between atoms: C8_12  and  O1_1 
REMARK    3  A    between atoms: C11_15  and  C8_12 
ROOT
HETATM    1  O2  UNK     1      12.021   5.773   9.753  1.00  0.00    -0.275 OA
HETATM    2  O3  UNK     1      14.218   5.887  10.392  1.00  0.00    -0.260 OA
HETATM    3  C1  UNK     1      11.433   6.273   7.445  1.00  0.00    -0.002 A 
HETATM    4  C2  UNK     1      11.056   5.905   8.734  1.00  0.00     0.092 A 
HETATM    5  C3  UNK     1       8.749   5.781   8.081  1.00  0.00     0.071 A 
HETATM    6  C4  UNK     1       9.727   5.657   9.066  1.00  0.00     0.075 A 
HETATM    7  C5  UNK     1      10.448   6.394   6.462  1.00  0.00     0.017 A 
HETATM    8  C6  UNK     1       9.109   6.147   6.782  1.00  0.00     0.038 A 
HETATM    9  C7  UNK     1      12.838   6.518   7.168  1.00  0.00     0.020 A 
HETATM   10  C9  UNK     1      13.746   6.389   8.138  1.00  0.00     0.083 A 
HETATM   11  C10 UNK     1      13.373   6.001   9.511  1.00  0.00     0.288 A 
ENDROOT
BRANCH   5  12
HETATM   12  O1  UNK     1       7.444   5.542   8.382  1.00  0.00    -0.344 OA
BRANCH  12  13
HETATM   13  C8  UNK     1       7.169   4.935   9.643  1.00  0.00     0.253 C 
BRANCH  13  14
HETATM   14  C11 UNK     1       6.634   3.531   9.455  1.00  0.00     0.146 C 
HETATM   15  O4  UNK     1       6.717   2.932   8.385  1.00  0.00    -0.296 OA
HETATM   16  C12 UNK     1       5.988   2.897  10.659  1.00  0.00     0.093 C 
ENDBRANCH  13  14
ENDBRANCH  12  13
ENDBRANCH   5  12
TORSDOF 3
ENDMDL
MODEL 9
REMARK VINA RESULT:      -6.6      2.424      6.196
REMARK  3 active torsions:
REMARK  status: ('A' for Active; 'I' for Inactive)
REMARK    1  A    between atoms: C3_7  and  O1_1 
REMARK    2  A    between atoms: C8_12  and  O1_1 
REMARK    3  A    between atoms: C11_15  and  C8_12 
ROOT
HETATM    1  O2  UNK     1      18.822   1.091  31.395  1.00  0.00    -0.275 OA
HETATM    2  O3  UNK     1      17.950   2.988  30.453  1.00  0.00    -0.260 OA
HETATM    3  C1  UNK     1      19.814  -0.599  29.950  1.00  0.00    -0.002 A 
HETATM    4  C2  UNK     1      19.468  -0.151  31.222  1.00  0.00     0.092 A 
HETATM    5  C3  UNK     1      20.379  -2.132  32.225  1.00  0.00     0.071 A 
HETATM    6  C4  UNK     1      19.742  -0.901  32.363  1.00  0.00     0.075 A 
HETATM    7  C5  UNK     1      20.452  -1.834  29.819  1.00  0.00     0.017 A 
HETATM    8  C6  UNK     1      20.733  -2.598  30.957  1.00  0.00     0.038 A 
HETATM    9  C7  UNK     1      19.497   0.235  28.803  1.00  0.00     0.020 A 
HETATM   10  C9  UNK     1      18.887   1.410  28.975  1.00  0.00     0.083 A 
HETATM   11  C10 UNK     1      18.510   1.907  30.311  1.00  0.00     0.288 A 
ENDROOT
BRANCH   5  12
HETATM   12  O1  UNK     1      20.658  -2.883  33.326  1.00  0.00    -0.344 OA
BRANCH  12  13
HETATM   13  C8  UNK     1      19.920  -2.595  34.512  1.00  0.00     0.253 C 
BRANCH  13  14
HETATM   14  C11 UNK     1      20.854  -2.374  35.683  1.00  0.00     0.146 C 
HETATM   15  O4  UNK     1      21.919  -1.769  35.571  1.00  0.00    -0.296 OA
HETATM   16  C12 UNK     1      20.409  -2.937  37.006  1.00  0.00     0.093 C 
ENDBRANCH  13  14
ENDBRANCH  12  13
ENDBRANCH   5  12
TORSDOF 3
ENDMDL
MODEL 10
REMARK VINA RESULT:      -6.6      1.723      2.438
REMARK  3 active torsions:
REMARK  status: ('A' for Active; 'I' for Inactive)
REMARK    1  A    between atoms: C3_7  and  O1_1 
REMARK    2  A    between atoms: C8_12  and  O1_1 
REMARK    3  A    between atoms: C11_15  and  C8_12 
ROOT
HETATM    1  O2  UNK     1      19.582   0.936  29.455  1.00  0.00    -0.275 OA
HETATM    2  O3  UNK     1      20.536  -0.714  28.184  1.00  0.00    -0.260 OA
HETATM    3  C1  UNK     1      19.092   0.490  31.797  1.00  0.00    -0.002 A 
HETATM    4  C2  UNK     1      19.083   1.354  30.706  1.00  0.00     0.092 A 
HETATM    5  C3  UNK     1      18.084   3.093  32.025  1.00  0.00     0.071 A 
HETATM    6  C4  UNK     1      18.585   2.651  30.802  1.00  0.00     0.075 A 
HETATM    7  C5  UNK     1      18.589   0.940  33.020  1.00  0.00     0.017 A 
HETATM    8  C6  UNK     1      18.086   2.240  33.131  1.00  0.00     0.038 A 
HETATM    9  C7  UNK     1      19.625  -0.851  31.626  1.00  0.00     0.020 A 
HETATM   10  C9  UNK     1      20.098  -1.239  30.438  1.00  0.00     0.083 A 
HETATM   11  C10 UNK     1      20.099  -0.343  29.268  1.00  0.00     0.288 A 
ENDROOT
BRANCH   5  12
HETATM   12  O1  UNK     1      17.593   4.357  32.143  1.00  0.00    -0.344 OA
BRANCH  12  13
HETATM   13  C8  UNK     1      18.304   5.252  32.996  1.00  0.00     0.253 C 
BRANCH  13  14
HETATM   14  C11 UNK     1      19.305   6.066  32.202  1.00  0.00     0.146 C 
HETATM   15  O4  UNK     1      19.148   6.321  31.010  1.00  0.00    -0.296 OA
HETATM   16  C12 UNK     1      20.514   6.554  32.954  1.00  0.00     0.093 C 
ENDBRANCH  13  14
ENDBRANCH  12  13
ENDBRANCH   5  12
TORSDOF 3
ENDMDL
