MODEL 1
REMARK VINA RESULT:      -9.1      0.000      0.000
REMARK  5 active torsions:
REMARK  status: ('A' for Active; 'I' for Inactive)
REMARK    1  A    between atoms: C8_13  and  O2_2 
REMARK    2  A    between atoms: C17_22  and  O5_5 
REMARK    3  A    between atoms: C1_6  and  C2_7 
REMARK    4  A    between atoms: C2_7  and  C6_11 
REMARK    5  A    between atoms: C10_15  and  C6_11 
ROOT
HETATM    1  O1  UNK     1      18.778   0.997  32.364  1.00  0.00    -0.271 OA
HETATM    2  O4  UNK     1      17.920   3.021  32.982  1.00  0.00    -0.259 OA
HETATM    3  C1  UNK     1      18.591   2.806  30.715  1.00  0.00     0.026 A 
HETATM    4  C3  UNK     1      19.505   0.645  30.074  1.00  0.00     0.001 A 
HETATM    5  C4  UNK     1      19.326   0.169  31.367  1.00  0.00     0.123 A 
HETATM    6  C5  UNK     1      19.114   2.011  29.771  1.00  0.00     0.028 A 
HETATM    7  C7  UNK     1      18.396   2.311  32.102  1.00  0.00     0.295 A 
HETATM    8  C8  UNK     1      19.678  -1.131  31.726  1.00  0.00     0.102 A 
HETATM    9  C9  UNK     1      20.051  -0.205  29.110  1.00  0.00     0.014 A 
HETATM   10  C11 UNK     1      20.224  -1.974  30.759  1.00  0.00     0.040 A 
HETATM   11  C12 UNK     1      20.410  -1.512  29.455  1.00  0.00     0.004 A 
ENDROOT
BRANCH   3  12
HETATM   12  C2  UNK     1      18.178   4.219  30.435  1.00  0.00     0.129 C 
BRANCH  12  13
HETATM   13  C6  UNK     1      19.259   5.195  30.864  1.00  0.00     0.164 C 
HETATM   14  O3  UNK     1      20.423   5.114  30.479  1.00  0.00    -0.292 OA
BRANCH  13  15
HETATM   15  C10 UNK     1      18.885   6.289  31.808  1.00  0.00     0.010 A 
HETATM   16  C13 UNK     1      19.783   6.653  32.785  1.00  0.00     0.018 A 
HETATM   17  C15 UNK     1      19.434   7.676  33.667  1.00  0.00     0.037 A 
HETATM   18  C17 UNK     1      18.196   8.308  33.546  1.00  0.00     0.068 A 
HETATM   19  C16 UNK     1      17.308   7.917  32.545  1.00  0.00     0.037 A 
HETATM   20  C14 UNK     1      17.658   6.894  31.663  1.00  0.00     0.018 A 
BRANCH  18  21
HETATM   21  O5  UNK     1      17.855   9.305  34.408  1.00  0.00    -0.356 OA
HETATM   22  C19 UNK     1      16.811  10.186  34.000  1.00  0.00     0.210 C 
ENDBRANCH  18  21
ENDBRANCH  13  15
ENDBRANCH  12  13
ENDBRANCH   3  12
BRANCH   8  23
HETATM   23  O2  UNK     1      19.499  -1.584  32.995  1.00  0.00    -0.353 OA
HETATM   24  C18 UNK     1      20.483  -2.479  33.512  1.00  0.00     0.210 C 
ENDBRANCH   8  23
TORSDOF 5
ENDMDL
MODEL 2
REMARK VINA RESULT:      -8.7      4.552      9.227
REMARK  5 active torsions:
REMARK  status: ('A' for Active; 'I' for Inactive)
REMARK    1  A    between atoms: C8_13  and  O2_2 
REMARK    2  A    between atoms: C17_22  and  O5_5 
REMARK    3  A    between atoms: C1_6  and  C2_7 
REMARK    4  A    between atoms: C2_7  and  C6_11 
REMARK    5  A    between atoms: C10_15  and  C6_11 
ROOT
HETATM    1  O1  UNK     1      18.703   0.790  32.315  1.00  0.00    -0.271 OA
HETATM    2  O4  UNK     1      18.015   0.965  34.485  1.00  0.00    -0.259 OA
HETATM    3  C1  UNK     1      19.054  -1.079  33.868  1.00  0.00     0.026 A 
HETATM    4  C3  UNK     1      19.780  -1.249  31.552  1.00  0.00     0.001 A 
HETATM    5  C4  UNK     1      19.311   0.034  31.295  1.00  0.00     0.123 A 
HETATM    6  C5  UNK     1      19.631  -1.793  32.891  1.00  0.00     0.028 A 
HETATM    7  C7  UNK     1      18.547   0.293  33.606  1.00  0.00     0.295 A 
HETATM    8  C8  UNK     1      19.421   0.616  30.034  1.00  0.00     0.102 A 
HETATM    9  C9  UNK     1      20.377  -1.970  30.516  1.00  0.00     0.014 A 
HETATM   10  C11 UNK     1      20.019  -0.110  29.005  1.00  0.00     0.040 A 
HETATM   11  C12 UNK     1      20.495  -1.399  29.245  1.00  0.00     0.004 A 
ENDROOT
BRANCH   3  12
HETATM   12  C2  UNK     1      18.886  -1.611  35.258  1.00  0.00     0.129 C 
BRANCH  12  13
HETATM   13  C6  UNK     1      20.195  -2.175  35.784  1.00  0.00     0.164 C 
HETATM   14  O3  UNK     1      21.234  -1.520  35.827  1.00  0.00    -0.292 OA
BRANCH  13  15
HETATM   15  C10 UNK     1      20.213  -3.592  36.253  1.00  0.00     0.010 A 
HETATM   16  C13 UNK     1      20.587  -3.852  37.551  1.00  0.00     0.018 A 
HETATM   17  C15 UNK     1      20.604  -5.176  37.990  1.00  0.00     0.037 A 
HETATM   18  C17 UNK     1      20.246  -6.204  37.117  1.00  0.00     0.068 A 
HETATM   19  C16 UNK     1      19.871  -5.907  35.807  1.00  0.00     0.037 A 
HETATM   20  C14 UNK     1      19.853  -4.583  35.369  1.00  0.00     0.018 A 
BRANCH  18  21
HETATM   21  O5  UNK     1      20.264  -7.496  37.545  1.00  0.00    -0.356 OA
HETATM   22  C19 UNK     1      19.075  -7.995  38.154  1.00  0.00     0.210 C 
ENDBRANCH  18  21
ENDBRANCH  13  15
ENDBRANCH  12  13
ENDBRANCH   3  12
BRANCH   8  23
HETATM   23  O2  UNK     1      18.959   1.872  29.796  1.00  0.00    -0.353 OA
HETATM   24  C18 UNK     1      17.953   2.016  28.794  1.00  0.00     0.210 C 
ENDBRANCH   8  23
TORSDOF 5
ENDMDL
MODEL 3
REMARK VINA RESULT:      -8.2      5.682     11.914
REMARK  5 active torsions:
REMARK  status: ('A' for Active; 'I' for Inactive)
REMARK    1  A    between atoms: C8_13  and  O2_2 
REMARK    2  A    between atoms: C17_22  and  O5_5 
REMARK    3  A    between atoms: C1_6  and  C2_7 
REMARK    4  A    between atoms: C2_7  and  C6_11 
REMARK    5  A    between atoms: C10_15  and  C6_11 
ROOT
HETATM    1  O1  UNK     1      19.648  -0.928  34.909  1.00  0.00    -0.271 OA
HETATM    2  O4  UNK     1      20.649  -2.779  34.021  1.00  0.00    -0.259 OA
HETATM    3  C1  UNK     1      19.511  -3.080  36.083  1.00  0.00     0.026 A 
HETATM    4  C3  UNK     1      18.452  -1.098  37.016  1.00  0.00     0.001 A 
HETATM    5  C4  UNK     1      18.891  -0.338  35.938  1.00  0.00     0.123 A 
HETATM    6  C5  UNK     1      18.790  -2.511  37.059  1.00  0.00     0.028 A 
HETATM    7  C7  UNK     1      19.988  -2.279  34.926  1.00  0.00     0.295 A 
HETATM    8  C8  UNK     1      18.602   1.021  35.833  1.00  0.00     0.102 A 
HETATM    9  C9  UNK     1      17.703  -0.479  38.018  1.00  0.00     0.014 A 
HETATM   10  C11 UNK     1      17.854   1.632  36.837  1.00  0.00     0.040 A 
HETATM   11  C12 UNK     1      17.405   0.884  37.927  1.00  0.00     0.004 A 
ENDROOT
BRANCH   3  12
HETATM   12  C2  UNK     1      19.875  -4.533  36.098  1.00  0.00     0.129 C 
BRANCH  12  13
HETATM   13  C6  UNK     1      20.639  -4.888  37.362  1.00  0.00     0.164 C 
HETATM   14  O3  UNK     1      21.445  -4.125  37.890  1.00  0.00    -0.292 OA
BRANCH  13  15
HETATM   15  C10 UNK     1      20.405  -6.229  37.973  1.00  0.00     0.010 A 
HETATM   16  C13 UNK     1      21.318  -6.705  38.887  1.00  0.00     0.018 A 
HETATM   17  C15 UNK     1      21.099  -7.959  39.459  1.00  0.00     0.037 A 
HETATM   18  C17 UNK     1      19.973  -8.700  39.102  1.00  0.00     0.068 A 
HETATM   19  C16 UNK     1      19.067  -8.190  38.174  1.00  0.00     0.037 A 
HETATM   20  C14 UNK     1      19.285  -6.936  37.602  1.00  0.00     0.018 A 
BRANCH  18  21
HETATM   21  O5  UNK     1      19.761  -9.924  39.659  1.00  0.00    -0.356 OA
HETATM   22  C19 UNK     1      19.367 -10.977  38.782  1.00  0.00     0.210 C 
ENDBRANCH  18  21
ENDBRANCH  13  15
ENDBRANCH  12  13
ENDBRANCH   3  12
BRANCH   8  23
HETATM   23  O2  UNK     1      19.038   1.753  34.773  1.00  0.00    -0.353 OA
HETATM   24  C18 UNK     1      18.084   2.057  33.756  1.00  0.00     0.210 C 
ENDBRANCH   8  23
TORSDOF 5
ENDMDL
MODEL 4
REMARK VINA RESULT:      -8.1      4.988     11.807
REMARK  5 active torsions:
REMARK  status: ('A' for Active; 'I' for Inactive)
REMARK    1  A    between atoms: C8_13  and  O2_2 
REMARK    2  A    between atoms: C17_22  and  O5_5 
REMARK    3  A    between atoms: C1_6  and  C2_7 
REMARK    4  A    between atoms: C2_7  and  C6_11 
REMARK    5  A    between atoms: C10_15  and  C6_11 
ROOT
HETATM    1  O1  UNK     1      19.518  -1.255  34.895  1.00  0.00    -0.271 OA
HETATM    2  O4  UNK     1      20.724  -3.154  34.504  1.00  0.00    -0.259 OA
HETATM    3  C1  UNK     1      19.749  -2.946  36.659  1.00  0.00     0.026 A 
HETATM    4  C3  UNK     1      18.469  -0.916  37.058  1.00  0.00     0.001 A 
HETATM    5  C4  UNK     1      18.739  -0.474  35.768  1.00  0.00     0.123 A 
HETATM    6  C5  UNK     1      19.006  -2.197  37.486  1.00  0.00     0.028 A 
HETATM    7  C7  UNK     1      20.046  -2.485  35.278  1.00  0.00     0.295 A 
HETATM    8  C8  UNK     1      18.256   0.744  35.294  1.00  0.00     0.102 A 
HETATM    9  C9  UNK     1      17.693  -0.115  37.898  1.00  0.00     0.014 A 
HETATM   10  C11 UNK     1      17.482   1.538  36.138  1.00  0.00     0.040 A 
HETATM   11  C12 UNK     1      17.201   1.110  37.436  1.00  0.00     0.004 A 
ENDROOT
BRANCH   3  12
HETATM   12  C2  UNK     1      20.315  -4.271  37.069  1.00  0.00     0.129 C 
BRANCH  12  13
HETATM   13  C6  UNK     1      19.424  -5.409  36.603  1.00  0.00     0.164 C 
HETATM   14  O3  UNK     1      18.198  -5.375  36.691  1.00  0.00    -0.292 OA
BRANCH  13  15
HETATM   15  C10 UNK     1      20.073  -6.624  36.030  1.00  0.00     0.010 A 
HETATM   16  C13 UNK     1      20.206  -6.718  34.663  1.00  0.00     0.018 A 
HETATM   17  C15 UNK     1      20.814  -7.853  34.127  1.00  0.00     0.037 A 
HETATM   18  C17 UNK     1      21.273  -8.863  34.972  1.00  0.00     0.068 A 
HETATM   19  C16 UNK     1      21.125  -8.738  36.353  1.00  0.00     0.037 A 
HETATM   20  C14 UNK     1      20.517  -7.602  36.889  1.00  0.00     0.018 A 
BRANCH  18  21
HETATM   21  O5  UNK     1      21.865  -9.971  34.448  1.00  0.00    -0.356 OA
HETATM   22  C19 UNK     1      21.935 -11.125  35.283  1.00  0.00     0.210 C 
ENDBRANCH  18  21
ENDBRANCH  13  15
ENDBRANCH  12  13
ENDBRANCH   3  12
BRANCH   8  23
HETATM   23  O2  UNK     1      18.528   1.165  34.030  1.00  0.00    -0.353 OA
HETATM   24  C18 UNK     1      18.200   2.516  33.709  1.00  0.00     0.210 C 
ENDBRANCH   8  23
TORSDOF 5
ENDMDL
MODEL 5
REMARK VINA RESULT:      -8.1     22.868     25.134
REMARK  5 active torsions:
REMARK  status: ('A' for Active; 'I' for Inactive)
REMARK    1  A    between atoms: C8_13  and  O2_2 
REMARK    2  A    between atoms: C17_22  and  O5_5 
REMARK    3  A    between atoms: C1_6  and  C2_7 
REMARK    4  A    between atoms: C2_7  and  C6_11 
REMARK    5  A    between atoms: C10_15  and  C6_11 
ROOT
HETATM    1  O1  UNK     1      17.953   9.321   9.470  1.00  0.00    -0.271 OA
HETATM    2  O4  UNK     1      17.876   7.335  10.596  1.00  0.00    -0.259 OA
HETATM    3  C1  UNK     1      15.797   8.209   9.852  1.00  0.00     0.026 A 
HETATM    4  C3  UNK     1      15.897  10.326   8.657  1.00  0.00     0.001 A 
HETATM    5  C4  UNK     1      17.280  10.358   8.799  1.00  0.00     0.123 A 
HETATM    6  C5  UNK     1      15.163   9.201   9.212  1.00  0.00     0.028 A 
HETATM    7  C7  UNK     1      17.274   8.232  10.013  1.00  0.00     0.295 A 
HETATM    8  C8  UNK     1      18.044  11.406   8.291  1.00  0.00     0.102 A 
HETATM    9  C9  UNK     1      15.262  11.372   7.985  1.00  0.00     0.014 A 
HETATM   10  C11 UNK     1      17.404  12.447   7.622  1.00  0.00     0.040 A 
HETATM   11  C12 UNK     1      16.017  12.431   7.469  1.00  0.00     0.004 A 
ENDROOT
BRANCH   3  12
HETATM   12  C2  UNK     1      15.070   7.036  10.435  1.00  0.00     0.129 C 
BRANCH  12  13
HETATM   13  C6  UNK     1      14.820   5.974   9.379  1.00  0.00     0.164 C 
HETATM   14  O3  UNK     1      15.683   5.178   9.016  1.00  0.00    -0.292 OA
BRANCH  13  15
HETATM   15  C10 UNK     1      13.469   5.911   8.748  1.00  0.00     0.010 A 
HETATM   16  C13 UNK     1      13.316   6.390   7.467  1.00  0.00     0.018 A 
HETATM   17  C15 UNK     1      12.053   6.331   6.878  1.00  0.00     0.037 A 
HETATM   18  C17 UNK     1      10.978   5.794   7.586  1.00  0.00     0.068 A 
HETATM   19  C16 UNK     1      11.165   5.317   8.882  1.00  0.00     0.037 A 
HETATM   20  C14 UNK     1      12.428   5.376   9.472  1.00  0.00     0.018 A 
BRANCH  18  21
HETATM   21  O5  UNK     1       9.745   5.738   7.011  1.00  0.00    -0.356 OA
HETATM   22  C19 UNK     1       9.617   6.275   5.696  1.00  0.00     0.210 C 
ENDBRANCH  18  21
ENDBRANCH  13  15
ENDBRANCH  12  13
ENDBRANCH   3  12
BRANCH   8  23
HETATM   23  O2  UNK     1      19.396  11.426   8.438  1.00  0.00    -0.353 OA
HETATM   24  C18 UNK     1      20.119  12.389   7.672  1.00  0.00     0.210 C 
ENDBRANCH   8  23
TORSDOF 5
ENDMDL
MODEL 6
REMARK VINA RESULT:      -8.1      2.095      3.250
REMARK  5 active torsions:
REMARK  status: ('A' for Active; 'I' for Inactive)
REMARK    1  A    between atoms: C8_13  and  O2_2 
REMARK    2  A    between atoms: C17_22  and  O5_5 
REMARK    3  A    between atoms: C1_6  and  C2_7 
REMARK    4  A    between atoms: C2_7  and  C6_11 
REMARK    5  A    between atoms: C10_15  and  C6_11 
ROOT
HETATM    1  O1  UNK     1      18.304   1.578  31.781  1.00  0.00    -0.271 OA
HETATM    2  O4  UNK     1      18.303   3.023  30.013  1.00  0.00    -0.259 OA
HETATM    3  C1  UNK     1      18.280   4.001  32.177  1.00  0.00     0.026 A 
HETATM    4  C3  UNK     1      18.279   2.446  34.049  1.00  0.00     0.001 A 
HETATM    5  C4  UNK     1      18.296   1.368  33.172  1.00  0.00     0.123 A 
HETATM    6  C5  UNK     1      18.271   3.793  33.502  1.00  0.00     0.028 A 
HETATM    7  C7  UNK     1      18.296   2.857  31.229  1.00  0.00     0.295 A 
HETATM    8  C8  UNK     1      18.304   0.052  33.630  1.00  0.00     0.102 A 
HETATM    9  C9  UNK     1      18.271   2.200  35.423  1.00  0.00     0.014 A 
HETATM   10  C11 UNK     1      18.296  -0.186  35.003  1.00  0.00     0.040 A 
HETATM   11  C12 UNK     1      18.279   0.885  35.897  1.00  0.00     0.004 A 
ENDROOT
BRANCH   3  12
HETATM   12  C2  UNK     1      18.273   5.375  31.582  1.00  0.00     0.129 C 
BRANCH  12  13
HETATM   13  C6  UNK     1      18.918   6.377  32.523  1.00  0.00     0.164 C 
HETATM   14  O3  UNK     1      20.133   6.433  32.708  1.00  0.00    -0.292 OA
BRANCH  13  15
HETATM   15  C10 UNK     1      18.031   7.322  33.262  1.00  0.00     0.010 A 
HETATM   16  C13 UNK     1      18.501   8.584  33.545  1.00  0.00     0.018 A 
HETATM   17  C15 UNK     1      17.671   9.468  34.236  1.00  0.00     0.037 A 
HETATM   18  C17 UNK     1      16.394   9.064  34.625  1.00  0.00     0.068 A 
HETATM   19  C16 UNK     1      15.947   7.779  34.323  1.00  0.00     0.037 A 
HETATM   20  C14 UNK     1      16.776   6.895  33.632  1.00  0.00     0.018 A 
BRANCH  18  21
HETATM   21  O5  UNK     1      15.586   9.926  35.300  1.00  0.00    -0.356 OA
HETATM   22  C19 UNK     1      14.318  10.220  34.717  1.00  0.00     0.210 C 
ENDBRANCH  18  21
ENDBRANCH  13  15
ENDBRANCH  12  13
ENDBRANCH   3  12
BRANCH   8  23
HETATM   23  O2  UNK     1      18.320  -0.995  32.762  1.00  0.00    -0.353 OA
HETATM   24  C18 UNK     1      19.582  -1.611  32.508  1.00  0.00     0.210 C 
ENDBRANCH   8  23
TORSDOF 5
ENDMDL
MODEL 7
REMARK VINA RESULT:      -8.0      1.643      8.309
REMARK  5 active torsions:
REMARK  status: ('A' for Active; 'I' for Inactive)
REMARK    1  A    between atoms: C8_13  and  O2_2 
REMARK    2  A    between atoms: C17_22  and  O5_5 
REMARK    3  A    between atoms: C1_6  and  C2_7 
REMARK    4  A    between atoms: C2_7  and  C6_11 
REMARK    5  A    between atoms: C10_15  and  C6_11 
ROOT
HETATM    1  O1  UNK     1      19.677   6.987  32.670  1.00  0.00    -0.271 OA
HETATM    2  O4  UNK     1      21.014   5.806  31.243  1.00  0.00    -0.259 OA
HETATM    3  C1  UNK     1      18.697   5.287  31.195  1.00  0.00     0.026 A 
HETATM    4  C3  UNK     1      17.289   6.553  32.722  1.00  0.00     0.001 A 
HETATM    5  C4  UNK     1      18.397   7.253  33.187  1.00  0.00     0.123 A 
HETATM    6  C5  UNK     1      17.480   5.545  31.693  1.00  0.00     0.028 A 
HETATM    7  C7  UNK     1      19.890   6.026  31.684  1.00  0.00     0.295 A 
HETATM    8  C8  UNK     1      18.285   8.232  34.172  1.00  0.00     0.102 A 
HETATM    9  C9  UNK     1      16.033   6.843  33.259  1.00  0.00     0.014 A 
HETATM   10  C11 UNK     1      17.028   8.516  34.702  1.00  0.00     0.040 A 
HETATM   11  C12 UNK     1      15.905   7.823  34.247  1.00  0.00     0.004 A 
ENDROOT
BRANCH   3  12
HETATM   12  C2  UNK     1      18.927   4.255  30.134  1.00  0.00     0.129 C 
BRANCH  12  13
HETATM   13  C6  UNK     1      18.208   2.960  30.471  1.00  0.00     0.164 C 
HETATM   14  O3  UNK     1      17.091   2.932  30.984  1.00  0.00    -0.292 OA
BRANCH  13  15
HETATM   15  C10 UNK     1      18.901   1.672  30.178  1.00  0.00     0.010 A 
HETATM   16  C13 UNK     1      19.596   1.051  31.191  1.00  0.00     0.018 A 
HETATM   17  C15 UNK     1      20.244  -0.153  30.917  1.00  0.00     0.037 A 
HETATM   18  C17 UNK     1      20.178  -0.704  29.637  1.00  0.00     0.068 A 
HETATM   19  C16 UNK     1      19.467  -0.051  28.632  1.00  0.00     0.037 A 
HETATM   20  C14 UNK     1      18.818   1.154  28.906  1.00  0.00     0.018 A 
BRANCH  18  21
HETATM   21  O5  UNK     1      20.812  -1.878  29.369  1.00  0.00    -0.356 OA
HETATM   22  C19 UNK     1      20.797  -2.872  30.392  1.00  0.00     0.210 C 
ENDBRANCH  18  21
ENDBRANCH  13  15
ENDBRANCH  12  13
ENDBRANCH   3  12
BRANCH   8  23
HETATM   23  O2  UNK     1      19.376   8.910  34.618  1.00  0.00    -0.353 OA
HETATM   24  C18 UNK     1      19.472  10.290  34.271  1.00  0.00     0.210 C 
ENDBRANCH   8  23
TORSDOF 5
ENDMDL
MODEL 8
REMARK VINA RESULT:      -8.0      2.800      4.288
REMARK  5 active torsions:
REMARK  status: ('A' for Active; 'I' for Inactive)
REMARK    1  A    between atoms: C8_13  and  O2_2 
REMARK    2  A    between atoms: C17_22  and  O5_5 
REMARK    3  A    between atoms: C1_6  and  C2_7 
REMARK    4  A    between atoms: C2_7  and  C6_11 
REMARK    5  A    between atoms: C10_15  and  C6_11 
ROOT
HETATM    1  O1  UNK     1      18.631  -1.093  34.135  1.00  0.00    -0.271 OA
HETATM    2  O4  UNK     1      19.161  -1.164  31.915  1.00  0.00    -0.259 OA
HETATM    3  C1  UNK     1      18.695   0.980  32.822  1.00  0.00     0.026 A 
HETATM    4  C3  UNK     1      18.130   1.037  35.188  1.00  0.00     0.001 A 
HETATM    5  C4  UNK     1      18.274  -0.343  35.271  1.00  0.00     0.123 A 
HETATM    6  C5  UNK     1      18.354   1.688  33.908  1.00  0.00     0.028 A 
HETATM    7  C7  UNK     1      18.851  -0.496  32.897  1.00  0.00     0.295 A 
HETATM    8  C8  UNK     1      18.074  -1.030  36.466  1.00  0.00     0.102 A 
HETATM    9  C9  UNK     1      17.775   1.750  36.335  1.00  0.00     0.014 A 
HETATM   10  C11 UNK     1      17.720  -0.313  37.607  1.00  0.00     0.040 A 
HETATM   11  C12 UNK     1      17.570   1.074  37.542  1.00  0.00     0.004 A 
ENDROOT
BRANCH   3  12
HETATM   12  C2  UNK     1      18.934   1.621  31.490  1.00  0.00     0.129 C 
BRANCH  12  13
HETATM   13  C6  UNK     1      18.018   2.816  31.290  1.00  0.00     0.164 C 
HETATM   14  O3  UNK     1      16.933   2.736  30.717  1.00  0.00    -0.292 OA
BRANCH  13  15
HETATM   15  C10 UNK     1      18.469   4.143  31.802  1.00  0.00     0.010 A 
HETATM   16  C13 UNK     1      19.390   4.855  31.069  1.00  0.00     0.018 A 
HETATM   17  C15 UNK     1      19.811   6.096  31.547  1.00  0.00     0.037 A 
HETATM   18  C17 UNK     1      19.298   6.591  32.746  1.00  0.00     0.068 A 
HETATM   19  C16 UNK     1      18.366   5.845  33.466  1.00  0.00     0.037 A 
HETATM   20  C14 UNK     1      17.945   4.605  32.988  1.00  0.00     0.018 A 
BRANCH  18  21
HETATM   21  O5  UNK     1      19.711   7.800  33.214  1.00  0.00    -0.356 OA
HETATM   22  C19 UNK     1      18.729   8.624  33.839  1.00  0.00     0.210 C 
ENDBRANCH  18  21
ENDBRANCH  13  15
ENDBRANCH  12  13
ENDBRANCH   3  12
BRANCH   8  23
HETATM   23  O2  UNK     1      18.218  -2.381  36.534  1.00  0.00    -0.353 OA
HETATM   24  C18 UNK     1      19.435  -2.878  37.087  1.00  0.00     0.210 C 
ENDBRANCH   8  23
TORSDOF 5
ENDMDL
MODEL 9
REMARK VINA RESULT:      -7.8     14.694     18.388
REMARK  5 active torsions:
REMARK  status: ('A' for Active; 'I' for Inactive)
REMARK    1  A    between atoms: C8_13  and  O2_2 
REMARK    2  A    between atoms: C17_22  and  O5_5 
REMARK    3  A    between atoms: C1_6  and  C2_7 
REMARK    4  A    between atoms: C2_7  and  C6_11 
REMARK    5  A    between atoms: C10_15  and  C6_11 
ROOT
HETATM    1  O1  UNK     1      19.247   1.447  16.755  1.00  0.00    -0.271 OA
HETATM    2  O4  UNK     1      19.087   0.499  14.684  1.00  0.00    -0.259 OA
HETATM    3  C1  UNK     1      18.886  -0.971  16.538  1.00  0.00     0.026 A 
HETATM    4  C3  UNK     1      19.061   0.056  18.736  1.00  0.00     0.001 A 
HETATM    5  C4  UNK     1      19.240   1.306  18.154  1.00  0.00     0.123 A 
HETATM    6  C5  UNK     1      18.881  -1.098  17.872  1.00  0.00     0.028 A 
HETATM    7  C7  UNK     1      19.079   0.359  15.903  1.00  0.00     0.295 A 
HETATM    8  C8  UNK     1      19.418   2.454  18.923  1.00  0.00     0.102 A 
HETATM    9  C9  UNK     1      19.060  -0.047  20.129  1.00  0.00     0.014 A 
HETATM   10  C11 UNK     1      19.415   2.344  20.313  1.00  0.00     0.040 A 
HETATM   11  C12 UNK     1      19.237   1.097  20.914  1.00  0.00     0.004 A 
ENDROOT
BRANCH   3  12
HETATM   12  C2  UNK     1      18.703  -2.141  15.620  1.00  0.00     0.129 C 
BRANCH  12  13
HETATM   13  C6  UNK     1      20.017  -2.529  14.966  1.00  0.00     0.164 C 
HETATM   14  O3  UNK     1      21.017  -2.840  15.611  1.00  0.00    -0.292 OA
BRANCH  13  15
HETATM   15  C10 UNK     1      20.094  -2.514  13.476  1.00  0.00     0.010 A 
HETATM   16  C13 UNK     1      20.960  -1.633  12.869  1.00  0.00     0.018 A 
HETATM   17  C15 UNK     1      21.033  -1.619  11.476  1.00  0.00     0.037 A 
HETATM   18  C17 UNK     1      20.237  -2.488  10.729  1.00  0.00     0.068 A 
HETATM   19  C16 UNK     1      19.370  -3.369  11.373  1.00  0.00     0.037 A 
HETATM   20  C14 UNK     1      19.298  -3.382  12.766  1.00  0.00     0.018 A 
BRANCH  18  21
HETATM   21  O5  UNK     1      20.307  -2.473   9.369  1.00  0.00    -0.356 OA
HETATM   22  C19 UNK     1      21.537  -2.885   8.778  1.00  0.00     0.210 C 
ENDBRANCH  18  21
ENDBRANCH  13  15
ENDBRANCH  12  13
ENDBRANCH   3  12
BRANCH   8  23
HETATM   23  O2  UNK     1      19.593   3.671  18.342  1.00  0.00    -0.353 OA
HETATM   24  C18 UNK     1      20.862   4.299  18.515  1.00  0.00     0.210 C 
ENDBRANCH   8  23
TORSDOF 5
ENDMDL
MODEL 10
REMARK VINA RESULT:      -7.7      2.810      8.987
REMARK  5 active torsions:
REMARK  status: ('A' for Active; 'I' for Inactive)
REMARK    1  A    between atoms: C8_13  and  O2_2 
REMARK    2  A    between atoms: C17_22  and  O5_5 
REMARK    3  A    between atoms: C1_6  and  C2_7 
REMARK    4  A    between atoms: C2_7  and  C6_11 
REMARK    5  A    between atoms: C10_15  and  C6_11 
ROOT
HETATM    1  O1  UNK     1      18.251  10.225  34.229  1.00  0.00    -0.271 OA
HETATM    2  O4  UNK     1      20.331   9.315  34.481  1.00  0.00    -0.259 OA
HETATM    3  C1  UNK     1      18.529   7.786  34.246  1.00  0.00     0.026 A 
HETATM    4  C3  UNK     1      16.321   8.773  33.981  1.00  0.00     0.001 A 
HETATM    5  C4  UNK     1      16.866  10.049  34.057  1.00  0.00     0.123 A 
HETATM    6  C5  UNK     1      17.209   7.626  34.082  1.00  0.00     0.028 A 
HETATM    7  C7  UNK     1      19.125   9.145  34.331  1.00  0.00     0.295 A 
HETATM    8  C8  UNK     1      16.073  11.191  33.967  1.00  0.00     0.102 A 
HETATM    9  C9  UNK     1      14.942   8.636  33.809  1.00  0.00     0.014 A 
HETATM   10  C11 UNK     1      14.698  11.047  33.796  1.00  0.00     0.040 A 
HETATM   11  C12 UNK     1      14.134   9.772  33.717  1.00  0.00     0.004 A 
ENDROOT
BRANCH   3  12
HETATM   12  C2  UNK     1      19.470   6.625  34.353  1.00  0.00     0.129 C 
BRANCH  12  13
HETATM   13  C6  UNK     1      20.041   6.262  32.993  1.00  0.00     0.164 C 
HETATM   14  O3  UNK     1      21.033   6.811  32.518  1.00  0.00    -0.292 OA
BRANCH  13  15
HETATM   15  C10 UNK     1      19.352   5.202  32.200  1.00  0.00     0.010 A 
HETATM   16  C13 UNK     1      19.550   5.163  30.839  1.00  0.00     0.018 A 
HETATM   17  C15 UNK     1      18.906   4.172  30.098  1.00  0.00     0.037 A 
HETATM   18  C17 UNK     1      18.082   3.247  30.739  1.00  0.00     0.068 A 
HETATM   19  C16 UNK     1      17.902   3.313  32.120  1.00  0.00     0.037 A 
HETATM   20  C14 UNK     1      18.546   4.304  32.861  1.00  0.00     0.018 A 
BRANCH  18  21
HETATM   21  O5  UNK     1      17.453   2.281  30.015  1.00  0.00    -0.356 OA
HETATM   22  C19 UNK     1      18.177   1.710  28.927  1.00  0.00     0.210 C 
ENDBRANCH  18  21
ENDBRANCH  13  15
ENDBRANCH  12  13
ENDBRANCH   3  12
BRANCH   8  23
HETATM   23  O2  UNK     1      16.619  12.434  34.043  1.00  0.00    -0.353 OA
HETATM   24  C18 UNK     1      16.714  13.025  35.338  1.00  0.00     0.210 C 
ENDBRANCH   8  23
TORSDOF 5
ENDMDL
