MODEL 1
REMARK VINA RESULT:      -9.0      0.000      0.000
REMARK  4 active torsions:
REMARK  status: ('A' for Active; 'I' for Inactive)
REMARK    1  A    between atoms: C11_19  and  O2_3 
REMARK    2  A    between atoms: C5_13  and  O2_3 
REMARK       I    between atoms: C12_20  and  N1_6 
REMARK    3  A    between atoms: C13_21  and  N1_6 
REMARK    4  A    between atoms: C11_19  and  C12_20 
ROOT
HETATM    1  O1  UNK     1      21.468  -8.943  35.145  1.00  0.00    -0.275 OA
HETATM    2  O3  UNK     1      22.486 -10.972  34.876  1.00  0.00    -0.260 OA
HETATM    3  C1  UNK     1      19.862  -8.645  36.961  1.00  0.00     0.004 A 
HETATM    4  C2  UNK     1      20.562  -8.138  35.866  1.00  0.00     0.092 A 
HETATM    5  C3  UNK     1      20.086 -10.042  37.356  1.00  0.00    -0.043 A 
HETATM    6  C4  UNK     1      18.979  -7.781  37.624  1.00  0.00     0.017 A 
HETATM    7  C5  UNK     1      19.527  -5.982  36.095  1.00  0.00     0.072 A 
HETATM    8  C6  UNK     1      20.408  -6.823  35.424  1.00  0.00     0.075 A 
HETATM    9  C7  UNK     1      18.814  -6.459  37.194  1.00  0.00     0.038 A 
HETATM   10  C8  UNK     1      20.954 -10.783  36.653  1.00  0.00     0.090 A 
HETATM   11  C9  UNK     1      19.349 -10.616  38.530  1.00  0.00     0.049 C 
HETATM   12  C10 UNK     1      21.701 -10.264  35.495  1.00  0.00     0.288 A 
ENDROOT
BRANCH   7  13
HETATM   13  O2  UNK     1      19.362  -4.696  35.682  1.00  0.00    -0.342 OA
BRANCH  13  14
HETATM   14  C11 UNK     1      20.142  -3.697  36.339  1.00  0.00     0.278 C 
BRANCH  14  15
HETATM   15  C12 UNK     1      20.494  -2.616  35.339  1.00  0.00     0.247 C 
HETATM   16  O4  UNK     1      21.564  -2.021  35.417  1.00  0.00    -0.271 OA
HETATM   17  N1  UNK     1      19.484  -2.443  34.400  1.00  0.00    -0.302 N 
HETATM   18  H10 UNK     1      18.651  -3.021  34.471  1.00  0.00     0.171 HD
BRANCH  17  19
HETATM   19  C13 UNK     1      19.464  -1.534  33.316  1.00  0.00     0.196 A 
HETATM   20  S1  UNK     1      20.396  -1.987  31.975  1.00  0.00    -0.034 SA
HETATM   21  C14 UNK     1      19.849  -0.521  31.270  1.00  0.00     0.097 A 
HETATM   22  N3  UNK     1      19.044   0.190  32.032  1.00  0.00    -0.145 NA
HETATM   23  C15 UNK     1      20.288  -0.147  29.912  1.00  0.00     0.081 C 
HETATM   24  N2  UNK     1      18.819  -0.422  33.252  1.00  0.00    -0.123 NA
ENDBRANCH  17  19
ENDBRANCH  14  15
ENDBRANCH  13  14
ENDBRANCH   7  13
TORSDOF 4
ENDMDL
MODEL 2
REMARK VINA RESULT:      -8.9      7.496     12.738
REMARK  4 active torsions:
REMARK  status: ('A' for Active; 'I' for Inactive)
REMARK    1  A    between atoms: C11_19  and  O2_3 
REMARK    2  A    between atoms: C5_13  and  O2_3 
REMARK       I    between atoms: C12_20  and  N1_6 
REMARK    3  A    between atoms: C13_21  and  N1_6 
REMARK    4  A    between atoms: C11_19  and  C12_20 
ROOT
HETATM    1  O1  UNK     1      16.583   6.393  33.100  1.00  0.00    -0.275 OA
HETATM    2  O3  UNK     1      15.164   7.442  34.554  1.00  0.00    -0.260 OA
HETATM    3  C1  UNK     1      18.949   7.002  33.091  1.00  0.00     0.004 A 
HETATM    4  C2  UNK     1      17.890   6.240  32.595  1.00  0.00     0.092 A 
HETATM    5  C3  UNK     1      18.677   7.973  34.159  1.00  0.00    -0.043 A 
HETATM    6  C4  UNK     1      20.218   6.790  32.536  1.00  0.00     0.017 A 
HETATM    7  C5  UNK     1      19.328   5.100  31.044  1.00  0.00     0.072 A 
HETATM    8  C6  UNK     1      18.061   5.295  31.582  1.00  0.00     0.075 A 
HETATM    9  C7  UNK     1      20.406   5.846  31.520  1.00  0.00     0.038 A 
HETATM   10  C8  UNK     1      17.424   8.097  34.621  1.00  0.00     0.090 A 
HETATM   11  C9  UNK     1      19.794   8.808  34.714  1.00  0.00     0.049 C 
HETATM   12  C10 UNK     1      16.297   7.302  34.107  1.00  0.00     0.288 A 
ENDROOT
BRANCH   7  13
HETATM   13  O2  UNK     1      19.518   4.184  30.055  1.00  0.00    -0.342 OA
BRANCH  13  14
HETATM   14  C11 UNK     1      18.350   3.647  29.434  1.00  0.00     0.278 C 
BRANCH  14  15
HETATM   15  C12 UNK     1      18.313   2.153  29.673  1.00  0.00     0.247 C 
HETATM   16  O4  UNK     1      17.476   1.454  29.112  1.00  0.00    -0.271 OA
HETATM   17  N1  UNK     1      19.310   1.753  30.554  1.00  0.00    -0.302 N 
HETATM   18  H10 UNK     1      19.933   2.460  30.937  1.00  0.00     0.171 HD
BRANCH  17  19
HETATM   19  C13 UNK     1      19.585   0.439  31.004  1.00  0.00     0.196 A 
HETATM   20  S1  UNK     1      20.360  -0.563  29.878  1.00  0.00    -0.034 SA
HETATM   21  C14 UNK     1      20.299  -1.760  31.106  1.00  0.00     0.097 A 
HETATM   22  N3  UNK     1      19.735  -1.369  32.229  1.00  0.00    -0.145 NA
HETATM   23  C15 UNK     1      20.854  -3.104  30.854  1.00  0.00     0.081 C 
HETATM   24  N2  UNK     1      19.311  -0.054  32.161  1.00  0.00    -0.123 NA
ENDBRANCH  17  19
ENDBRANCH  14  15
ENDBRANCH  13  14
ENDBRANCH   7  13
TORSDOF 4
ENDMDL
MODEL 3
REMARK VINA RESULT:      -8.8      1.634      1.707
REMARK  4 active torsions:
REMARK  status: ('A' for Active; 'I' for Inactive)
REMARK    1  A    between atoms: C11_19  and  O2_3 
REMARK    2  A    between atoms: C5_13  and  O2_3 
REMARK       I    between atoms: C12_20  and  N1_6 
REMARK    3  A    between atoms: C13_21  and  N1_6 
REMARK    4  A    between atoms: C11_19  and  C12_20 
ROOT
HETATM    1  O1  UNK     1      21.337  -8.794  35.171  1.00  0.00    -0.275 OA
HETATM    2  O3  UNK     1      22.346 -10.769  34.615  1.00  0.00    -0.260 OA
HETATM    3  C1  UNK     1      19.848  -8.717  37.105  1.00  0.00     0.004 A 
HETATM    4  C2  UNK     1      20.474  -8.085  36.031  1.00  0.00     0.092 A 
HETATM    5  C3  UNK     1      20.104 -10.146  37.329  1.00  0.00    -0.043 A 
HETATM    6  C4  UNK     1      19.005  -7.942  37.914  1.00  0.00     0.017 A 
HETATM    7  C5  UNK     1      19.445  -5.979  36.561  1.00  0.00     0.072 A 
HETATM    8  C6  UNK     1      20.285  -6.731  35.747  1.00  0.00     0.075 A 
HETATM    9  C7  UNK     1      18.805  -6.583  37.643  1.00  0.00     0.038 A 
HETATM   10  C8  UNK     1      20.930 -10.795  36.495  1.00  0.00     0.090 A 
HETATM   11  C9  UNK     1      19.446 -10.855  38.476  1.00  0.00     0.049 C 
HETATM   12  C10 UNK     1      21.598 -10.143  35.357  1.00  0.00     0.288 A 
ENDROOT
BRANCH   7  13
HETATM   13  O2  UNK     1      19.247  -4.658  36.304  1.00  0.00    -0.342 OA
BRANCH  13  14
HETATM   14  C11 UNK     1      20.190  -3.740  36.856  1.00  0.00     0.278 C 
BRANCH  14  15
HETATM   15  C12 UNK     1      20.357  -2.578  35.901  1.00  0.00     0.247 C 
HETATM   16  O4  UNK     1      21.475  -2.231  35.533  1.00  0.00    -0.271 OA
HETATM   17  N1  UNK     1      19.131  -2.032  35.543  1.00  0.00    -0.302 N 
HETATM   18  H10 UNK     1      18.285  -2.437  35.936  1.00  0.00     0.171 HD
BRANCH  17  19
HETATM   19  C13 UNK     1      18.895  -0.945  34.667  1.00  0.00     0.196 A 
HETATM   20  S1  UNK     1      18.455   0.508  35.420  1.00  0.00    -0.034 SA
HETATM   21  C14 UNK     1      18.388   1.153  33.831  1.00  0.00     0.097 A 
HETATM   22  N3  UNK     1      18.681   0.296  32.875  1.00  0.00    -0.145 NA
HETATM   23  C15 UNK     1      18.020   2.567  33.624  1.00  0.00     0.081 C 
HETATM   24  N2  UNK     1      18.983  -0.955  33.383  1.00  0.00    -0.123 NA
ENDBRANCH  17  19
ENDBRANCH  14  15
ENDBRANCH  13  14
ENDBRANCH   7  13
TORSDOF 4
ENDMDL
MODEL 4
REMARK VINA RESULT:      -8.7      2.201      2.745
REMARK  4 active torsions:
REMARK  status: ('A' for Active; 'I' for Inactive)
REMARK    1  A    between atoms: C11_19  and  O2_3 
REMARK    2  A    between atoms: C5_13  and  O2_3 
REMARK       I    between atoms: C12_20  and  N1_6 
REMARK    3  A    between atoms: C13_21  and  N1_6 
REMARK    4  A    between atoms: C11_19  and  C12_20 
ROOT
HETATM    1  O1  UNK     1      19.061  -9.299  38.286  1.00  0.00    -0.275 OA
HETATM    2  O3  UNK     1      19.049 -11.407  39.172  1.00  0.00    -0.260 OA
HETATM    3  C1  UNK     1      20.390  -8.851  36.286  1.00  0.00     0.004 A 
HETATM    4  C2  UNK     1      19.523  -8.416  37.289  1.00  0.00     0.092 A 
HETATM    5  C3  UNK     1      20.815 -10.257  36.284  1.00  0.00    -0.043 A 
HETATM    6  C4  UNK     1      20.804  -7.911  35.332  1.00  0.00     0.017 A 
HETATM    7  C5  UNK     1      19.493  -6.180  36.409  1.00  0.00     0.072 A 
HETATM    8  C6  UNK     1      19.070  -7.098  37.365  1.00  0.00     0.075 A 
HETATM    9  C7  UNK     1      20.358  -6.586  35.394  1.00  0.00     0.038 A 
HETATM   10  C8  UNK     1      20.359 -11.075  37.244  1.00  0.00     0.090 A 
HETATM   11  C9  UNK     1      21.746 -10.756  35.219  1.00  0.00     0.049 C 
HETATM   12  C10 UNK     1      19.445 -10.631  38.310  1.00  0.00     0.288 A 
ENDROOT
BRANCH   7  13
HETATM   13  O2  UNK     1      19.064  -4.890  36.463  1.00  0.00    -0.342 OA
BRANCH  13  14
HETATM   14  C11 UNK     1      19.947  -3.936  37.051  1.00  0.00     0.278 C 
BRANCH  14  15
HETATM   15  C12 UNK     1      20.186  -2.816  36.061  1.00  0.00     0.247 C 
HETATM   16  O4  UNK     1      21.313  -2.599  35.628  1.00  0.00    -0.271 OA
HETATM   17  N1  UNK     1      19.008  -2.148  35.753  1.00  0.00    -0.302 N 
HETATM   18  H10 UNK     1      18.146  -2.452  36.199  1.00  0.00     0.171 HD
BRANCH  17  19
HETATM   19  C13 UNK     1      18.843  -1.058  34.864  1.00  0.00     0.196 A 
HETATM   20  S1  UNK     1      18.379   0.402  35.589  1.00  0.00    -0.034 SA
HETATM   21  C14 UNK     1      18.420   1.046  33.999  1.00  0.00     0.097 A 
HETATM   22  N3  UNK     1      18.759   0.185  33.063  1.00  0.00    -0.145 NA
HETATM   23  C15 UNK     1      18.087   2.466  33.770  1.00  0.00     0.081 C 
HETATM   24  N2  UNK     1      19.010  -1.070  33.588  1.00  0.00    -0.123 NA
ENDBRANCH  17  19
ENDBRANCH  14  15
ENDBRANCH  13  14
ENDBRANCH   7  13
TORSDOF 4
ENDMDL
MODEL 5
REMARK VINA RESULT:      -8.7      1.787      2.021
REMARK  4 active torsions:
REMARK  status: ('A' for Active; 'I' for Inactive)
REMARK    1  A    between atoms: C11_19  and  O2_3 
REMARK    2  A    between atoms: C5_13  and  O2_3 
REMARK       I    between atoms: C12_20  and  N1_6 
REMARK    3  A    between atoms: C13_21  and  N1_6 
REMARK    4  A    between atoms: C11_19  and  C12_20 
ROOT
HETATM    1  O1  UNK     1      19.693  -8.670  36.655  1.00  0.00    -0.275 OA
HETATM    2  O3  UNK     1      19.576 -10.905  37.123  1.00  0.00    -0.260 OA
HETATM    3  C1  UNK     1      21.068  -7.225  38.065  1.00  0.00     0.004 A 
HETATM    4  C2  UNK     1      20.208  -7.399  36.980  1.00  0.00     0.092 A 
HETATM    5  C3  UNK     1      21.431  -8.398  38.871  1.00  0.00    -0.043 A 
HETATM    6  C4  UNK     1      21.536  -5.929  38.322  1.00  0.00     0.017 A 
HETATM    7  C5  UNK     1      20.289  -5.060  36.434  1.00  0.00     0.072 A 
HETATM    8  C6  UNK     1      19.813  -6.338  36.163  1.00  0.00     0.075 A 
HETATM    9  C7  UNK     1      21.149  -4.855  37.512  1.00  0.00     0.038 A 
HETATM   10  C8  UNK     1      20.926  -9.595  38.539  1.00  0.00     0.090 A 
HETATM   11  C9  UNK     1      22.352  -8.245  40.045  1.00  0.00     0.049 C 
HETATM   12  C10 UNK     1      20.018  -9.795  37.397  1.00  0.00     0.288 A 
ENDROOT
BRANCH   7  13
HETATM   13  O2  UNK     1      19.917  -4.011  35.651  1.00  0.00    -0.342 OA
BRANCH  13  14
HETATM   14  C11 UNK     1      19.553  -2.802  36.316  1.00  0.00     0.278 C 
BRANCH  14  15
HETATM   15  C12 UNK     1      19.600  -1.664  35.319  1.00  0.00     0.247 C 
HETATM   16  O4  UNK     1      19.758  -0.508  35.700  1.00  0.00    -0.271 OA
HETATM   17  N1  UNK     1      19.454  -2.121  34.015  1.00  0.00    -0.302 N 
HETATM   18  H10 UNK     1      19.331  -3.119  33.862  1.00  0.00     0.171 HD
BRANCH  17  19
HETATM   19  C13 UNK     1      19.455  -1.352  32.827  1.00  0.00     0.196 A 
HETATM   20  S1  UNK     1      20.531  -1.875  31.628  1.00  0.00    -0.034 SA
HETATM   21  C14 UNK     1      19.931  -0.558  30.706  1.00  0.00     0.097 A 
HETATM   22  N3  UNK     1      19.011   0.164  31.310  1.00  0.00    -0.145 NA
HETATM   23  C15 UNK     1      20.454  -0.308  29.349  1.00  0.00     0.081 C 
HETATM   24  N2  UNK     1      18.731  -0.317  32.577  1.00  0.00    -0.123 NA
ENDBRANCH  17  19
ENDBRANCH  14  15
ENDBRANCH  13  14
ENDBRANCH   7  13
TORSDOF 4
ENDMDL
MODEL 6
REMARK VINA RESULT:      -8.7      2.231      2.547
REMARK  4 active torsions:
REMARK  status: ('A' for Active; 'I' for Inactive)
REMARK    1  A    between atoms: C11_19  and  O2_3 
REMARK    2  A    between atoms: C5_13  and  O2_3 
REMARK       I    between atoms: C12_20  and  N1_6 
REMARK    3  A    between atoms: C13_21  and  N1_6 
REMARK    4  A    between atoms: C11_19  and  C12_20 
ROOT
HETATM    1  O1  UNK     1      21.927  -6.726  39.220  1.00  0.00    -0.275 OA
HETATM    2  O3  UNK     1      22.754  -8.458  40.461  1.00  0.00    -0.260 OA
HETATM    3  C1  UNK     1      19.958  -7.092  37.821  1.00  0.00     0.004 A 
HETATM    4  C2  UNK     1      20.961  -6.253  38.308  1.00  0.00     0.092 A 
HETATM    5  C3  UNK     1      19.923  -8.488  38.278  1.00  0.00    -0.043 A 
HETATM    6  C4  UNK     1      19.035  -6.546  36.918  1.00  0.00     0.017 A 
HETATM    7  C5  UNK     1      20.140  -4.392  37.028  1.00  0.00     0.072 A 
HETATM    8  C6  UNK     1      21.065  -4.915  37.925  1.00  0.00     0.075 A 
HETATM    9  C7  UNK     1      19.127  -5.206  36.525  1.00  0.00     0.038 A 
HETATM   10  C8  UNK     1      20.855  -8.910  39.146  1.00  0.00     0.090 A 
HETATM   11  C9  UNK     1      18.858  -9.416  37.774  1.00  0.00     0.049 C 
HETATM   12  C10 UNK     1      21.919  -8.037  39.669  1.00  0.00     0.288 A 
ENDROOT
BRANCH   7  13
HETATM   13  O2  UNK     1      20.223  -3.090  36.641  1.00  0.00    -0.342 OA
BRANCH  13  14
HETATM   14  C11 UNK     1      18.996  -2.415  36.366  1.00  0.00     0.278 C 
BRANCH  14  15
HETATM   15  C12 UNK     1      19.250  -1.344  35.327  1.00  0.00     0.247 C 
HETATM   16  O4  UNK     1      19.567  -0.209  35.669  1.00  0.00    -0.271 OA
HETATM   17  N1  UNK     1      19.084  -1.834  34.038  1.00  0.00    -0.302 N 
HETATM   18  H10 UNK     1      18.818  -2.809  33.920  1.00  0.00     0.171 HD
BRANCH  17  19
HETATM   19  C13 UNK     1      19.244  -1.129  32.821  1.00  0.00     0.196 A 
HETATM   20  S1  UNK     1      20.292  -1.849  31.701  1.00  0.00    -0.034 SA
HETATM   21  C14 UNK     1      19.921  -0.508  30.697  1.00  0.00     0.097 A 
HETATM   22  N3  UNK     1      19.080   0.358  31.223  1.00  0.00    -0.145 NA
HETATM   23  C15 UNK     1      20.534  -0.396  29.359  1.00  0.00     0.081 C 
HETATM   24  N2  UNK     1      18.680  -0.020  32.492  1.00  0.00    -0.123 NA
ENDBRANCH  17  19
ENDBRANCH  14  15
ENDBRANCH  13  14
ENDBRANCH   7  13
TORSDOF 4
ENDMDL
MODEL 7
REMARK VINA RESULT:      -8.7      3.571      9.090
REMARK  4 active torsions:
REMARK  status: ('A' for Active; 'I' for Inactive)
REMARK    1  A    between atoms: C11_19  and  O2_3 
REMARK    2  A    between atoms: C5_13  and  O2_3 
REMARK       I    between atoms: C12_20  and  N1_6 
REMARK    3  A    between atoms: C13_21  and  N1_6 
REMARK    4  A    between atoms: C11_19  and  C12_20 
ROOT
HETATM    1  O1  UNK     1      19.520  -0.810  30.431  1.00  0.00    -0.275 OA
HETATM    2  O3  UNK     1      20.122  -0.624  28.233  1.00  0.00    -0.260 OA
HETATM    3  C1  UNK     1      18.778   1.181  31.638  1.00  0.00     0.004 A 
HETATM    4  C2  UNK     1      19.055  -0.187  31.607  1.00  0.00     0.092 A 
HETATM    5  C3  UNK     1      18.979   1.967  30.413  1.00  0.00    -0.043 A 
HETATM    6  C4  UNK     1      18.320   1.724  32.846  1.00  0.00     0.017 A 
HETATM    7  C5  UNK     1      18.437  -0.448  33.914  1.00  0.00     0.072 A 
HETATM    8  C6  UNK     1      18.892  -1.007  32.725  1.00  0.00     0.075 A 
HETATM    9  C7  UNK     1      18.151   0.915  33.975  1.00  0.00     0.038 A 
HETATM   10  C8  UNK     1      19.421   1.348  29.309  1.00  0.00     0.090 A 
HETATM   11  C9  UNK     1      18.690   3.440  30.413  1.00  0.00     0.049 C 
HETATM   12  C10 UNK     1      19.719  -0.093  29.261  1.00  0.00     0.288 A 
ENDROOT
BRANCH   7  13
HETATM   13  O2  UNK     1      18.270  -1.229  35.016  1.00  0.00    -0.342 OA
BRANCH  13  14
HETATM   14  C11 UNK     1      19.292  -1.175  36.011  1.00  0.00     0.278 C 
BRANCH  14  15
HETATM   15  C12 UNK     1      20.207  -2.367  35.837  1.00  0.00     0.247 C 
HETATM   16  O4  UNK     1      21.371  -2.212  35.483  1.00  0.00    -0.271 OA
HETATM   17  N1  UNK     1      19.554  -3.558  36.131  1.00  0.00    -0.302 N 
HETATM   18  H10 UNK     1      18.579  -3.520  36.414  1.00  0.00     0.171 HD
BRANCH  17  19
HETATM   19  C13 UNK     1      20.090  -4.867  36.087  1.00  0.00     0.196 A 
HETATM   20  S1  UNK     1      20.593  -5.493  37.579  1.00  0.00    -0.034 SA
HETATM   21  C14 UNK     1      21.027  -6.896  36.692  1.00  0.00     0.097 A 
HETATM   22  N3  UNK     1      20.787  -6.826  35.399  1.00  0.00    -0.145 NA
HETATM   23  C15 UNK     1      21.621  -8.054  37.387  1.00  0.00     0.081 C 
HETATM   24  N2  UNK     1      20.227  -5.612  35.046  1.00  0.00    -0.123 NA
ENDBRANCH  17  19
ENDBRANCH  14  15
ENDBRANCH  13  14
ENDBRANCH   7  13
TORSDOF 4
ENDMDL
MODEL 8
REMARK VINA RESULT:      -8.6      4.170      8.884
REMARK  4 active torsions:
REMARK  status: ('A' for Active; 'I' for Inactive)
REMARK    1  A    between atoms: C11_19  and  O2_3 
REMARK    2  A    between atoms: C5_13  and  O2_3 
REMARK       I    between atoms: C12_20  and  N1_6 
REMARK    3  A    between atoms: C13_21  and  N1_6 
REMARK    4  A    between atoms: C11_19  and  C12_20 
ROOT
HETATM    1  O1  UNK     1      18.731   0.009  34.021  1.00  0.00    -0.275 OA
HETATM    2  O3  UNK     1      17.949   1.994  33.200  1.00  0.00    -0.260 OA
HETATM    3  C1  UNK     1      18.461  -0.490  36.397  1.00  0.00     0.004 A 
HETATM    4  C2  UNK     1      18.907  -0.850  35.125  1.00  0.00     0.092 A 
HETATM    5  C3  UNK     1      17.796   0.809  36.569  1.00  0.00    -0.043 A 
HETATM    6  C4  UNK     1      18.674  -1.400  37.442  1.00  0.00     0.017 A 
HETATM    7  C5  UNK     1      19.750  -2.953  35.925  1.00  0.00     0.072 A 
HETATM    8  C6  UNK     1      19.548  -2.065  34.874  1.00  0.00     0.075 A 
HETATM    9  C7  UNK     1      19.314  -2.622  37.207  1.00  0.00     0.038 A 
HETATM   10  C8  UNK     1      17.642   1.605  35.501  1.00  0.00     0.090 A 
HETATM   11  C9  UNK     1      17.304   1.225  37.924  1.00  0.00     0.049 C 
HETATM   12  C10 UNK     1      18.108   1.240  34.153  1.00  0.00     0.288 A 
ENDROOT
BRANCH   7  13
HETATM   13  O2  UNK     1      20.372  -4.143  35.703  1.00  0.00    -0.342 OA
BRANCH  13  14
HETATM   14  C11 UNK     1      19.988  -5.241  36.532  1.00  0.00     0.278 C 
BRANCH  14  15
HETATM   15  C12 UNK     1      20.144  -6.524  35.746  1.00  0.00     0.247 C 
HETATM   16  O4  UNK     1      19.424  -6.754  34.780  1.00  0.00    -0.271 OA
HETATM   17  N1  UNK     1      21.161  -7.318  36.262  1.00  0.00    -0.302 N 
HETATM   18  H10 UNK     1      21.673  -6.984  37.075  1.00  0.00     0.171 HD
BRANCH  17  19
HETATM   19  C13 UNK     1      21.597  -8.577  35.785  1.00  0.00     0.196 A 
HETATM   20  S1  UNK     1      22.724  -9.372  36.769  1.00  0.00    -0.034 SA
HETATM   21  C14 UNK     1      22.677 -10.615  35.586  1.00  0.00     0.097 A 
HETATM   22  N3  UNK     1      21.866 -10.383  34.575  1.00  0.00    -0.145 NA
HETATM   23  C15 UNK     1      23.508 -11.823  35.751  1.00  0.00     0.081 C 
HETATM   24  N2  UNK     1      21.225  -9.164  34.701  1.00  0.00    -0.123 NA
ENDBRANCH  17  19
ENDBRANCH  14  15
ENDBRANCH  13  14
ENDBRANCH   7  13
TORSDOF 4
ENDMDL
MODEL 9
REMARK VINA RESULT:      -8.6      7.847     13.724
REMARK  4 active torsions:
REMARK  status: ('A' for Active; 'I' for Inactive)
REMARK    1  A    between atoms: C11_19  and  O2_3 
REMARK    2  A    between atoms: C5_13  and  O2_3 
REMARK       I    between atoms: C12_20  and  N1_6 
REMARK    3  A    between atoms: C13_21  and  N1_6 
REMARK    4  A    between atoms: C11_19  and  C12_20 
ROOT
HETATM    1  O1  UNK     1      16.529   8.921  33.360  1.00  0.00    -0.275 OA
HETATM    2  O3  UNK     1      16.078  11.092  33.918  1.00  0.00    -0.260 OA
HETATM    3  C1  UNK     1      18.807   8.073  33.603  1.00  0.00     0.004 A 
HETATM    4  C2  UNK     1      17.471   7.878  33.251  1.00  0.00     0.092 A 
HETATM    5  C3  UNK     1      19.219   9.395  34.094  1.00  0.00    -0.043 A 
HETATM    6  C4  UNK     1      19.681   6.986  33.466  1.00  0.00     0.017 A 
HETATM    7  C5  UNK     1      17.878   5.588  32.647  1.00  0.00     0.072 A 
HETATM    8  C6  UNK     1      16.995   6.655  32.776  1.00  0.00     0.075 A 
HETATM    9  C7  UNK     1      19.219   5.753  32.991  1.00  0.00     0.038 A 
HETATM   10  C8  UNK     1      18.302  10.368  34.188  1.00  0.00     0.090 A 
HETATM   11  C9  UNK     1      20.649   9.638  34.481  1.00  0.00     0.049 C 
HETATM   12  C10 UNK     1      16.889  10.178  33.820  1.00  0.00     0.288 A 
ENDROOT
BRANCH   7  13
HETATM   13  O2  UNK     1      17.437   4.386  32.187  1.00  0.00    -0.342 OA
BRANCH  13  14
HETATM   14  C11 UNK     1      18.405   3.524  31.589  1.00  0.00     0.278 C 
BRANCH  14  15
HETATM   15  C12 UNK     1      18.279   2.147  32.205  1.00  0.00     0.247 C 
HETATM   16  O4  UNK     1      18.715   1.161  31.620  1.00  0.00    -0.271 OA
HETATM   17  N1  UNK     1      17.646   2.197  33.441  1.00  0.00    -0.302 N 
HETATM   18  H10 UNK     1      17.341   3.101  33.794  1.00  0.00     0.171 HD
BRANCH  17  19
HETATM   19  C13 UNK     1      17.362   1.115  34.308  1.00  0.00     0.196 A 
HETATM   20  S1  UNK     1      18.616   0.685  35.363  1.00  0.00    -0.034 SA
HETATM   21  C14 UNK     1      17.538  -0.520  35.936  1.00  0.00     0.097 A 
HETATM   22  N3  UNK     1      16.363  -0.537  35.342  1.00  0.00    -0.145 NA
HETATM   23  C15 UNK     1      17.960  -1.436  37.014  1.00  0.00     0.081 C 
HETATM   24  N2  UNK     1      16.266   0.443  34.370  1.00  0.00    -0.123 NA
ENDBRANCH  17  19
ENDBRANCH  14  15
ENDBRANCH  13  14
ENDBRANCH   7  13
TORSDOF 4
ENDMDL
MODEL 10
REMARK VINA RESULT:      -8.5      9.921     14.818
REMARK  4 active torsions:
REMARK  status: ('A' for Active; 'I' for Inactive)
REMARK    1  A    between atoms: C11_19  and  O2_3 
REMARK    2  A    between atoms: C5_13  and  O2_3 
REMARK       I    between atoms: C12_20  and  N1_6 
REMARK    3  A    between atoms: C13_21  and  N1_6 
REMARK    4  A    between atoms: C11_19  and  C12_20 
ROOT
HETATM    1  O1  UNK     1      17.864  10.159  33.633  1.00  0.00    -0.275 OA
HETATM    2  O3  UNK     1      18.485  12.278  34.228  1.00  0.00    -0.260 OA
HETATM    3  C1  UNK     1      15.543   9.463  33.945  1.00  0.00     0.004 A 
HETATM    4  C2  UNK     1      16.848   9.187  33.535  1.00  0.00     0.092 A 
HETATM    5  C3  UNK     1      15.241  10.796  34.484  1.00  0.00    -0.043 A 
HETATM    6  C4  UNK     1      14.590   8.443  33.814  1.00  0.00     0.017 A 
HETATM    7  C5  UNK     1      16.260   6.948  32.890  1.00  0.00     0.072 A 
HETATM    8  C6  UNK     1      17.219   7.947  33.012  1.00  0.00     0.075 A 
HETATM    9  C7  UNK     1      14.947   7.195  33.291  1.00  0.00     0.038 A 
HETATM   10  C8  UNK     1      16.227  11.701  34.565  1.00  0.00     0.090 A 
HETATM   11  C9  UNK     1      13.848  11.125  34.933  1.00  0.00     0.049 C 
HETATM   12  C10 UNK     1      17.609  11.425  34.138  1.00  0.00     0.288 A 
ENDROOT
BRANCH   7  13
HETATM   13  O2  UNK     1      16.599   5.732  32.383  1.00  0.00    -0.342 OA
BRANCH  13  14
HETATM   14  C11 UNK     1      17.839   5.171  32.814  1.00  0.00     0.278 C 
BRANCH  14  15
HETATM   15  C12 UNK     1      18.502   4.488  31.638  1.00  0.00     0.247 C 
HETATM   16  O4  UNK     1      19.488   4.987  31.104  1.00  0.00    -0.271 OA
HETATM   17  N1  UNK     1      17.858   3.302  31.307  1.00  0.00    -0.302 N 
HETATM   18  H10 UNK     1      17.047   3.022  31.852  1.00  0.00     0.171 HD
BRANCH  17  19
HETATM   19  C13 UNK     1      18.198   2.397  30.274  1.00  0.00     0.196 A 
HETATM   20  S1  UNK     1      19.303   1.187  30.707  1.00  0.00    -0.034 SA
HETATM   21  C14 UNK     1      19.141   0.648  29.086  1.00  0.00     0.097 A 
HETATM   22  N3  UNK     1      18.316   1.361  28.348  1.00  0.00    -0.145 NA
HETATM   23  C15 UNK     1      19.899  -0.530  28.620  1.00  0.00     0.081 C 
HETATM   24  N2  UNK     1      17.757   2.404  29.064  1.00  0.00    -0.123 NA
ENDBRANCH  17  19
ENDBRANCH  14  15
ENDBRANCH  13  14
ENDBRANCH   7  13
TORSDOF 4
ENDMDL
