MODEL 1
REMARK VINA RESULT:      -7.9      0.000      0.000
REMARK  2 active torsions:
REMARK  status: ('A' for Active; 'I' for Inactive)
REMARK    1  A    between atoms: C13_17  and  O3_4 
REMARK    2  A    between atoms: C3_7  and  C5_9 
ROOT
HETATM    1  O1  UNK     1      18.642   1.247  32.960  1.00  0.00    -0.274 OA
HETATM    2  O2  UNK     1      18.088   2.856  34.469  1.00  0.00    -0.259 OA
HETATM    3  C1  UNK     1      18.796   3.262  30.969  1.00  0.00    -0.032 A 
HETATM    4  C2  UNK     1      19.065   1.847  30.637  1.00  0.00     0.005 A 
HETATM    5  C3  UNK     1      18.474   3.588  32.240  1.00  0.00     0.057 A 
HETATM    6  C4  UNK     1      18.978   0.889  31.644  1.00  0.00     0.092 A 
HETATM    7  C6  UNK     1      18.382   2.559  33.314  1.00  0.00     0.300 A 
HETATM    8  C7  UNK     1      18.905   4.268  29.847  1.00  0.00     0.050 C 
HETATM    9  C8  UNK     1      19.407   1.396  29.353  1.00  0.00     0.017 A 
HETATM   10  C9  UNK     1      19.216  -0.468  31.414  1.00  0.00     0.074 A 
HETATM   11  C10 UNK     1      19.649   0.039  29.103  1.00  0.00     0.037 A 
HETATM   12  C13 UNK     1      19.554  -0.892  30.134  1.00  0.00     0.068 A 
ENDROOT
BRANCH   5  13
HETATM   13  C5  UNK     1      18.203   4.975  32.610  1.00  0.00    -0.019 A 
HETATM   14  C11 UNK     1      16.952   5.527  32.353  1.00  0.00     0.014 A 
HETATM   15  C14 UNK     1      16.695   6.852  32.703  1.00  0.00     0.020 A 
HETATM   16  C16 UNK     1      17.689   7.620  33.309  1.00  0.00     0.011 A 
HETATM   17 Br1  UNK     1      17.342   9.416  33.784  1.00  0.00    -0.051 Br
HETATM   18  C15 UNK     1      18.942   7.062  33.565  1.00  0.00     0.020 A 
HETATM   19  C12 UNK     1      19.199   5.737  33.214  1.00  0.00     0.014 A 
ENDBRANCH   5  13
BRANCH  12  20
HETATM   20  O3  UNK     1      19.790  -2.209  29.889  1.00  0.00    -0.361 OA
HETATM   21  H11 UNK     1      18.993  -2.719  30.115  1.00  0.00     0.217 HD
ENDBRANCH  12  20
TORSDOF 2
ENDMDL
MODEL 2
REMARK VINA RESULT:      -7.7      3.953      8.079
REMARK  2 active torsions:
REMARK  status: ('A' for Active; 'I' for Inactive)
REMARK    1  A    between atoms: C13_17  and  O3_4 
REMARK    2  A    between atoms: C3_7  and  C5_9 
ROOT
HETATM    1  O1  UNK     1      18.991   8.913  33.851  1.00  0.00    -0.274 OA
HETATM    2  O2  UNK     1      20.299   7.141  33.287  1.00  0.00    -0.259 OA
HETATM    3  C1  UNK     1      16.829   7.660  32.507  1.00  0.00    -0.032 A 
HETATM    4  C2  UNK     1      16.654   8.972  33.166  1.00  0.00     0.005 A 
HETATM    5  C3  UNK     1      18.039   7.060  32.552  1.00  0.00     0.057 A 
HETATM    6  C4  UNK     1      17.741   9.552  33.815  1.00  0.00     0.092 A 
HETATM    7  C6  UNK     1      19.200   7.686  33.247  1.00  0.00     0.300 A 
HETATM    8  C7  UNK     1      15.623   7.067  31.819  1.00  0.00     0.050 C 
HETATM    9  C8  UNK     1      15.445   9.684  33.181  1.00  0.00     0.017 A 
HETATM   10  C9  UNK     1      17.659  10.788  34.461  1.00  0.00     0.074 A 
HETATM   11  C10 UNK     1      15.344  10.925  33.824  1.00  0.00     0.037 A 
HETATM   12  C13 UNK     1      16.451  11.477  34.464  1.00  0.00     0.068 A 
ENDROOT
BRANCH   5  13
HETATM   13  C5  UNK     1      18.254   5.763  31.915  1.00  0.00    -0.019 A 
HETATM   14  C11 UNK     1      18.762   5.704  30.622  1.00  0.00     0.014 A 
HETATM   15  C14 UNK     1      18.963   4.465  30.014  1.00  0.00     0.020 A 
HETATM   16  C16 UNK     1      18.656   3.291  30.701  1.00  0.00     0.011 A 
HETATM   17 Br1  UNK     1      18.929   1.612  29.877  1.00  0.00    -0.051 Br
HETATM   18  C15 UNK     1      18.148   3.356  31.998  1.00  0.00     0.020 A 
HETATM   19  C12 UNK     1      17.945   4.595  32.607  1.00  0.00     0.014 A 
ENDBRANCH   5  13
BRANCH  12  20
HETATM   20  O3  UNK     1      16.351  12.681  35.087  1.00  0.00    -0.361 OA
HETATM   21  H11 UNK     1      16.673  13.374  34.486  1.00  0.00     0.217 HD
ENDBRANCH  12  20
TORSDOF 2
ENDMDL
MODEL 3
REMARK VINA RESULT:      -7.2      3.840      7.820
REMARK  2 active torsions:
REMARK  status: ('A' for Active; 'I' for Inactive)
REMARK    1  A    between atoms: C13_17  and  O3_4 
REMARK    2  A    between atoms: C3_7  and  C5_9 
ROOT
HETATM    1  O1  UNK     1      16.313   8.278  32.923  1.00  0.00    -0.274 OA
HETATM    2  O2  UNK     1      15.663   6.321  31.965  1.00  0.00    -0.259 OA
HETATM    3  C1  UNK     1      18.964   7.274  33.020  1.00  0.00    -0.032 A 
HETATM    4  C2  UNK     1      18.646   8.624  33.531  1.00  0.00     0.005 A 
HETATM    5  C3  UNK     1      17.971   6.518  32.503  1.00  0.00     0.057 A 
HETATM    6  C4  UNK     1      17.332   9.079  33.464  1.00  0.00     0.092 A 
HETATM    7  C6  UNK     1      16.565   7.009  32.435  1.00  0.00     0.300 A 
HETATM    8  C7  UNK     1      20.403   6.823  33.110  1.00  0.00     0.050 C 
HETATM    9  C8  UNK     1      19.596   9.493  34.089  1.00  0.00     0.017 A 
HETATM   10  C9  UNK     1      16.948  10.341  33.925  1.00  0.00     0.074 A 
HETATM   11  C10 UNK     1      19.231  10.762  34.556  1.00  0.00     0.037 A 
HETATM   12  C13 UNK     1      17.906  11.186  34.474  1.00  0.00     0.068 A 
ENDROOT
BRANCH   5  13
HETATM   13  C5  UNK     1      18.243   5.179  31.986  1.00  0.00    -0.019 A 
HETATM   14  C11 UNK     1      18.691   5.020  30.678  1.00  0.00     0.014 A 
HETATM   15  C14 UNK     1      18.948   3.741  30.185  1.00  0.00     0.020 A 
HETATM   16  C16 UNK     1      18.757   2.626  31.001  1.00  0.00     0.011 A 
HETATM   17 Br1  UNK     1      19.105   0.893  30.333  1.00  0.00    -0.051 Br
HETATM   18  C15 UNK     1      18.309   2.791  32.312  1.00  0.00     0.020 A 
HETATM   19  C12 UNK     1      18.051   4.070  32.805  1.00  0.00     0.014 A 
ENDBRANCH   5  13
BRANCH  12  20
HETATM   20  O3  UNK     1      17.553  12.418  34.927  1.00  0.00    -0.361 OA
HETATM   21  H11 UNK     1      18.274  13.043  34.735  1.00  0.00     0.217 HD
ENDBRANCH  12  20
TORSDOF 2
ENDMDL
MODEL 4
REMARK VINA RESULT:      -7.2     13.492     15.236
REMARK  2 active torsions:
REMARK  status: ('A' for Active; 'I' for Inactive)
REMARK    1  A    between atoms: C13_17  and  O3_4 
REMARK    2  A    between atoms: C3_7  and  C5_9 
ROOT
HETATM    1  O1  UNK     1      25.887  -5.103  38.803  1.00  0.00    -0.274 OA
HETATM    2  O2  UNK     1      23.615  -5.193  38.825  1.00  0.00    -0.259 OA
HETATM    3  C1  UNK     1      25.932  -7.934  38.633  1.00  0.00    -0.032 A 
HETATM    4  C2  UNK     1      27.189  -7.157  38.665  1.00  0.00     0.005 A 
HETATM    5  C3  UNK     1      24.753  -7.276  38.686  1.00  0.00     0.057 A 
HETATM    6  C4  UNK     1      27.122  -5.769  38.749  1.00  0.00     0.092 A 
HETATM    7  C6  UNK     1      24.687  -5.790  38.776  1.00  0.00     0.300 A 
HETATM    8  C7  UNK     1      26.051  -9.437  38.539  1.00  0.00     0.050 C 
HETATM    9  C8  UNK     1      28.467  -7.735  38.617  1.00  0.00     0.017 A 
HETATM   10  C9  UNK     1      28.262  -4.962  38.784  1.00  0.00     0.074 A 
HETATM   11  C10 UNK     1      29.621  -6.942  38.651  1.00  0.00     0.037 A 
HETATM   12  C13 UNK     1      29.519  -5.555  38.735  1.00  0.00     0.068 A 
ENDROOT
BRANCH   5  13
HETATM   13  C5  UNK     1      23.488  -8.007  38.655  1.00  0.00    -0.019 A 
HETATM   14  C11 UNK     1      22.991  -8.478  37.444  1.00  0.00     0.014 A 
HETATM   15  C14 UNK     1      21.782  -9.172  37.415  1.00  0.00     0.020 A 
HETATM   16  C16 UNK     1      21.076  -9.395  38.597  1.00  0.00     0.011 A 
HETATM   17 Br1  UNK     1      19.437 -10.336  38.558  1.00  0.00    -0.051 Br
HETATM   18  C15 UNK     1      21.579  -8.921  39.809  1.00  0.00     0.020 A 
HETATM   19  C12 UNK     1      22.787  -8.225  39.838  1.00  0.00     0.014 A 
ENDBRANCH   5  13
BRANCH  12  20
HETATM   20  O3  UNK     1      30.640  -4.788  38.768  1.00  0.00    -0.361 OA
HETATM   21  H11 UNK     1      31.107  -4.875  37.919  1.00  0.00     0.217 HD
ENDBRANCH  12  20
TORSDOF 2
ENDMDL
MODEL 5
REMARK VINA RESULT:      -7.1      6.675      9.573
REMARK  2 active torsions:
REMARK  status: ('A' for Active; 'I' for Inactive)
REMARK    1  A    between atoms: C13_17  and  O3_4 
REMARK    2  A    between atoms: C3_7  and  C5_9 
ROOT
HETATM    1  O1  UNK     1      19.646  -1.568  33.794  1.00  0.00    -0.274 OA
HETATM    2  O2  UNK     1      20.589  -3.632  33.948  1.00  0.00    -0.259 OA
HETATM    3  C1  UNK     1      18.902  -1.778  36.523  1.00  0.00    -0.032 A 
HETATM    4  C2  UNK     1      18.566  -0.572  35.737  1.00  0.00     0.005 A 
HETATM    5  C3  UNK     1      19.572  -2.786  35.924  1.00  0.00     0.057 A 
HETATM    6  C4  UNK     1      18.950  -0.509  34.400  1.00  0.00     0.092 A 
HETATM    7  C6  UNK     1      19.980  -2.715  34.492  1.00  0.00     0.300 A 
HETATM    8  C7  UNK     1      18.468  -1.801  37.970  1.00  0.00     0.050 C 
HETATM    9  C8  UNK     1      17.873   0.532  36.256  1.00  0.00     0.017 A 
HETATM   10  C9  UNK     1      18.672   0.593  33.588  1.00  0.00     0.074 A 
HETATM   11  C10 UNK     1      17.585   1.646  35.457  1.00  0.00     0.037 A 
HETATM   12  C13 UNK     1      17.984   1.676  34.123  1.00  0.00     0.068 A 
ENDROOT
BRANCH   5  13
HETATM   13  C5  UNK     1      19.925  -3.994  36.666  1.00  0.00    -0.019 A 
HETATM   14  C11 UNK     1      21.104  -4.033  37.403  1.00  0.00     0.014 A 
HETATM   15  C14 UNK     1      21.441  -5.188  38.109  1.00  0.00     0.020 A 
HETATM   16  C16 UNK     1      20.597  -6.298  38.076  1.00  0.00     0.011 A 
HETATM   17 Br1  UNK     1      21.054  -7.863  39.032  1.00  0.00    -0.051 Br
HETATM   18  C15 UNK     1      19.416  -6.253  37.336  1.00  0.00     0.020 A 
HETATM   19  C12 UNK     1      19.079  -5.099  36.629  1.00  0.00     0.014 A 
ENDBRANCH   5  13
BRANCH  12  20
HETATM   20  O3  UNK     1      17.704   2.759  33.350  1.00  0.00    -0.361 OA
HETATM   21  H11 UNK     1      18.033   2.596  32.449  1.00  0.00     0.217 HD
ENDBRANCH  12  20
TORSDOF 2
ENDMDL
MODEL 6
REMARK VINA RESULT:      -7.1     15.882     17.552
REMARK  2 active torsions:
REMARK  status: ('A' for Active; 'I' for Inactive)
REMARK    1  A    between atoms: C13_17  and  O3_4 
REMARK    2  A    between atoms: C3_7  and  C5_9 
ROOT
HETATM    1  O1  UNK     1      28.453  -7.597  38.112  1.00  0.00    -0.274 OA
HETATM    2  O2  UNK     1      28.023  -9.618  37.164  1.00  0.00    -0.259 OA
HETATM    3  C1  UNK     1      30.240  -7.050  35.978  1.00  0.00    -0.032 A 
HETATM    4  C2  UNK     1      30.022  -6.062  37.056  1.00  0.00     0.005 A 
HETATM    5  C3  UNK     1      29.574  -8.225  36.021  1.00  0.00     0.057 A 
HETATM    6  C4  UNK     1      29.136  -6.370  38.085  1.00  0.00     0.092 A 
HETATM    7  C6  UNK     1      28.627  -8.550  37.125  1.00  0.00     0.300 A 
HETATM    8  C7  UNK     1      31.207  -6.673  34.880  1.00  0.00     0.050 C 
HETATM    9  C8  UNK     1      30.659  -4.813  37.113  1.00  0.00     0.017 A 
HETATM   10  C9  UNK     1      28.874  -5.493  39.140  1.00  0.00     0.074 A 
HETATM   11  C10 UNK     1      30.409  -3.920  38.163  1.00  0.00     0.037 A 
HETATM   12  C13 UNK     1      29.517  -4.260  39.176  1.00  0.00     0.068 A 
ENDROOT
BRANCH   5  13
HETATM   13  C5  UNK     1      29.760  -9.227  34.974  1.00  0.00    -0.019 A 
HETATM   14  C11 UNK     1      30.775 -10.172  35.095  1.00  0.00     0.014 A 
HETATM   15  C14 UNK     1      30.953 -11.126  34.093  1.00  0.00     0.020 A 
HETATM   16  C16 UNK     1      30.117 -11.133  32.977  1.00  0.00     0.011 A 
HETATM   17 Br1  UNK     1      30.359 -12.426  31.621  1.00  0.00    -0.051 Br
HETATM   18  C15 UNK     1      29.101 -10.184  32.862  1.00  0.00     0.020 A 
HETATM   19  C12 UNK     1      28.922  -9.229  33.863  1.00  0.00     0.014 A 
ENDBRANCH   5  13
BRANCH  12  20
HETATM   20  O3  UNK     1      29.275  -3.392  40.194  1.00  0.00    -0.361 OA
HETATM   21  H11 UNK     1      28.640  -2.721  39.892  1.00  0.00     0.217 HD
ENDBRANCH  12  20
TORSDOF 2
ENDMDL
MODEL 7
REMARK VINA RESULT:      -6.9     22.453     23.468
REMARK  2 active torsions:
REMARK  status: ('A' for Active; 'I' for Inactive)
REMARK    1  A    between atoms: C13_17  and  O3_4 
REMARK    2  A    between atoms: C3_7  and  C5_9 
ROOT
HETATM    1  O1  UNK     1      16.099   6.342   9.811  1.00  0.00    -0.274 OA
HETATM    2  O2  UNK     1      17.955   7.499  10.437  1.00  0.00    -0.259 OA
HETATM    3  C1  UNK     1      14.907   8.800   9.047  1.00  0.00    -0.032 A 
HETATM    4  C2  UNK     1      14.176   7.524   8.894  1.00  0.00     0.005 A 
HETATM    5  C3  UNK     1      16.157   8.783   9.558  1.00  0.00     0.057 A 
HETATM    6  C4  UNK     1      14.799   6.340   9.282  1.00  0.00     0.092 A 
HETATM    7  C6  UNK     1      16.818   7.513   9.972  1.00  0.00     0.300 A 
HETATM    8  C7  UNK     1      14.195  10.059   8.611  1.00  0.00     0.050 C 
HETATM    9  C8  UNK     1      12.876   7.424   8.377  1.00  0.00     0.017 A 
HETATM   10  C9  UNK     1      14.178   5.093   9.171  1.00  0.00     0.074 A 
HETATM   11  C10 UNK     1      12.238   6.182   8.259  1.00  0.00     0.037 A 
HETATM   12  C13 UNK     1      12.889   5.017   8.656  1.00  0.00     0.068 A 
ENDROOT
BRANCH   5  13
HETATM   13  C5  UNK     1      16.913  10.022   9.723  1.00  0.00    -0.019 A 
HETATM   14  C11 UNK     1      16.695  10.821  10.841  1.00  0.00     0.014 A 
HETATM   15  C14 UNK     1      17.415  12.005  10.996  1.00  0.00     0.020 A 
HETATM   16  C16 UNK     1      18.350  12.386  10.034  1.00  0.00     0.011 A 
HETATM   17 Br1  UNK     1      19.326  13.991  10.244  1.00  0.00    -0.051 Br
HETATM   18  C15 UNK     1      18.565  11.581   8.915  1.00  0.00     0.020 A 
HETATM   19  C12 UNK     1      17.845  10.397   8.759  1.00  0.00     0.014 A 
ENDBRANCH   5  13
BRANCH  12  20
HETATM   20  O3  UNK     1      12.268   3.813   8.540  1.00  0.00    -0.361 OA
HETATM   21  H11 UNK     1      11.840   3.762   7.668  1.00  0.00     0.217 HD
ENDBRANCH  12  20
TORSDOF 2
ENDMDL
MODEL 8
REMARK VINA RESULT:      -6.8     15.595     16.989
REMARK  2 active torsions:
REMARK  status: ('A' for Active; 'I' for Inactive)
REMARK    1  A    between atoms: C13_17  and  O3_4 
REMARK    2  A    between atoms: C3_7  and  C5_9 
ROOT
HETATM    1  O1  UNK     1      31.825  -4.281  36.253  1.00  0.00    -0.274 OA
HETATM    2  O2  UNK     1      33.030  -4.552  34.343  1.00  0.00    -0.259 OA
HETATM    3  C1  UNK     1      30.140  -6.402  35.411  1.00  0.00    -0.032 A 
HETATM    4  C2  UNK     1      29.899  -5.706  36.693  1.00  0.00     0.005 A 
HETATM    5  C3  UNK     1      31.179  -6.014  34.639  1.00  0.00     0.057 A 
HETATM    6  C4  UNK     1      30.751  -4.670  37.069  1.00  0.00     0.092 A 
HETATM    7  C6  UNK     1      32.087  -4.904  35.046  1.00  0.00     0.300 A 
HETATM    8  C7  UNK     1      29.194  -7.522  35.045  1.00  0.00     0.050 C 
HETATM    9  C8  UNK     1      28.852  -6.024  37.571  1.00  0.00     0.017 A 
HETATM   10  C9  UNK     1      30.592  -3.962  38.262  1.00  0.00     0.074 A 
HETATM   11  C10 UNK     1      28.678  -5.326  38.772  1.00  0.00     0.037 A 
HETATM   12  C13 UNK     1      29.548  -4.295  39.118  1.00  0.00     0.068 A 
ENDROOT
BRANCH   5  13
HETATM   13  C5  UNK     1      31.452  -6.678  33.366  1.00  0.00    -0.019 A 
HETATM   14  C11 UNK     1      30.839  -6.221  32.204  1.00  0.00     0.014 A 
HETATM   15  C14 UNK     1      31.098  -6.857  30.990  1.00  0.00     0.020 A 
HETATM   16  C16 UNK     1      31.969  -7.945  30.943  1.00  0.00     0.011 A 
HETATM   17 Br1  UNK     1      32.319  -8.807  29.298  1.00  0.00    -0.051 Br
HETATM   18  C15 UNK     1      32.581  -8.398  32.111  1.00  0.00     0.020 A 
HETATM   19  C12 UNK     1      32.322  -7.763  33.326  1.00  0.00     0.014 A 
ENDBRANCH   5  13
BRANCH  12  20
HETATM   20  O3  UNK     1      29.377  -3.618  40.285  1.00  0.00    -0.361 OA
HETATM   21  H11 UNK     1      28.456  -3.309  40.338  1.00  0.00     0.217 HD
ENDBRANCH  12  20
TORSDOF 2
ENDMDL
MODEL 9
REMARK VINA RESULT:      -6.8     15.600     17.033
REMARK  2 active torsions:
REMARK  status: ('A' for Active; 'I' for Inactive)
REMARK    1  A    between atoms: C13_17  and  O3_4 
REMARK    2  A    between atoms: C3_7  and  C5_9 
ROOT
HETATM    1  O1  UNK     1      31.820  -4.348  36.222  1.00  0.00    -0.274 OA
HETATM    2  O2  UNK     1      33.014  -4.655  34.311  1.00  0.00    -0.259 OA
HETATM    3  C1  UNK     1      30.107  -6.459  35.412  1.00  0.00    -0.032 A 
HETATM    4  C2  UNK     1      29.879  -5.745  36.686  1.00  0.00     0.005 A 
HETATM    5  C3  UNK     1      31.147  -6.092  34.632  1.00  0.00     0.057 A 
HETATM    6  C4  UNK     1      30.744  -4.715  37.046  1.00  0.00     0.092 A 
HETATM    7  C6  UNK     1      32.069  -4.988  35.021  1.00  0.00     0.300 A 
HETATM    8  C7  UNK     1      29.147  -7.572  35.063  1.00  0.00     0.050 C 
HETATM    9  C8  UNK     1      28.832  -6.041  37.572  1.00  0.00     0.017 A 
HETATM   10  C9  UNK     1      30.598  -3.991  38.232  1.00  0.00     0.074 A 
HETATM   11  C10 UNK     1      28.670  -5.326  38.766  1.00  0.00     0.037 A 
HETATM   12  C13 UNK     1      29.553  -4.301  39.096  1.00  0.00     0.068 A 
ENDROOT
BRANCH   5  13
HETATM   13  C5  UNK     1      31.407  -6.774  33.365  1.00  0.00    -0.019 A 
HETATM   14  C11 UNK     1      32.256  -7.876  33.336  1.00  0.00     0.014 A 
HETATM   15  C14 UNK     1      32.506  -8.524  32.126  1.00  0.00     0.020 A 
HETATM   16  C16 UNK     1      31.907  -8.068  30.952  1.00  0.00     0.011 A 
HETATM   17 Br1  UNK     1      32.246  -8.945  29.313  1.00  0.00    -0.051 Br
HETATM   18  C15 UNK     1      31.057  -6.962  30.988  1.00  0.00     0.020 A 
HETATM   19  C12 UNK     1      30.807  -6.314  32.197  1.00  0.00     0.014 A 
ENDBRANCH   5  13
BRANCH  12  20
HETATM   20  O3  UNK     1      29.395  -3.608  40.255  1.00  0.00    -0.361 OA
HETATM   21  H11 UNK     1      30.269  -3.325  40.575  1.00  0.00     0.217 HD
ENDBRANCH  12  20
TORSDOF 2
ENDMDL
MODEL 10
REMARK VINA RESULT:      -6.8     15.883     17.947
REMARK  2 active torsions:
REMARK  status: ('A' for Active; 'I' for Inactive)
REMARK    1  A    between atoms: C13_17  and  O3_4 
REMARK    2  A    between atoms: C3_7  and  C5_9 
ROOT
HETATM    1  O1  UNK     1      28.459  -6.571  37.169  1.00  0.00    -0.274 OA
HETATM    2  O2  UNK     1      30.099  -5.483  36.029  1.00  0.00    -0.259 OA
HETATM    3  C1  UNK     1      30.328  -8.618  37.773  1.00  0.00    -0.032 A 
HETATM    4  C2  UNK     1      28.932  -8.700  38.253  1.00  0.00     0.005 A 
HETATM    5  C3  UNK     1      30.706  -7.549  37.037  1.00  0.00     0.057 A 
HETATM    6  C4  UNK     1      28.047  -7.674  37.934  1.00  0.00     0.092 A 
HETATM    7  C6  UNK     1      29.754  -6.454  36.698  1.00  0.00     0.300 A 
HETATM    8  C7  UNK     1      31.254  -9.752  38.145  1.00  0.00     0.050 C 
HETATM    9  C8  UNK     1      28.431  -9.762  39.022  1.00  0.00     0.017 A 
HETATM   10  C9  UNK     1      26.713  -7.676  38.348  1.00  0.00     0.074 A 
HETATM   11  C10 UNK     1      27.096  -9.781  39.446  1.00  0.00     0.037 A 
HETATM   12  C13 UNK     1      26.237  -8.738  39.110  1.00  0.00     0.068 A 
ENDROOT
BRANCH   5  13
HETATM   13  C5  UNK     1      32.077  -7.429  36.545  1.00  0.00    -0.019 A 
HETATM   14  C11 UNK     1      33.040  -6.803  37.329  1.00  0.00     0.014 A 
HETATM   15  C14 UNK     1      34.347  -6.686  36.857  1.00  0.00     0.020 A 
HETATM   16  C16 UNK     1      34.685  -7.196  35.603  1.00  0.00     0.011 A 
HETATM   17 Br1  UNK     1      36.456  -7.037  34.963  1.00  0.00    -0.051 Br
HETATM   18  C15 UNK     1      33.715  -7.822  34.821  1.00  0.00     0.020 A 
HETATM   19  C12 UNK     1      32.408  -7.939  35.293  1.00  0.00     0.014 A 
ENDBRANCH   5  13
BRANCH  12  20
HETATM   20  O3  UNK     1      24.942  -8.758  39.523  1.00  0.00    -0.361 OA
HETATM   21  H11 UNK     1      24.808  -9.529  40.100  1.00  0.00     0.217 HD
ENDBRANCH  12  20
TORSDOF 2
ENDMDL
