MODEL 1
REMARK VINA RESULT:      -9.4      0.000      0.000
REMARK  5 active torsions:
REMARK  status: ('A' for Active; 'I' for Inactive)
REMARK    1  A    between atoms: C16_23  and  N1_6 
REMARK    2  A    between atoms: C3_10  and  N1_6 
REMARK    3  A    between atoms: C16_23  and  N2_7 
REMARK    4  A    between atoms: C8_15  and  N2_7 
REMARK    5  A    between atoms: C1_8  and  C3_10 
ROOT
HETATM    1  N2  UNK     1      19.158   3.833  30.281  1.00  0.00    -0.333 N 
HETATM    2  H10 UNK     1      19.539   4.133  29.388  1.00  0.00     0.168 HD
ENDROOT
BRANCH   1   3
HETATM    3  C16 UNK     1      18.588   2.549  30.250  1.00  0.00     0.172 C 
HETATM    4  S1  UNK     1      18.152   1.648  28.899  1.00  0.00    -0.041 SA
BRANCH   3   5
HETATM    5  N1  UNK     1      18.401   1.951  31.490  1.00  0.00    -0.363 N 
HETATM    6  H9  UNK     1      17.881   2.498  32.170  1.00  0.00     0.162 HD
BRANCH   5   7
HETATM    7  C3  UNK     1      18.862   0.639  31.906  1.00  0.00     0.160 C 
BRANCH   7   8
HETATM    8  C1  UNK     1      18.600   0.388  33.364  1.00  0.00    -0.038 A 
HETATM    9  C6  UNK     1      18.247   1.453  34.188  1.00  0.00     0.048 A 
HETATM   10  C4  UNK     1      18.015   1.173  35.519  1.00  0.00     0.105 A 
HETATM   11  O1  UNK     1      17.664   2.076  36.475  1.00  0.00    -0.323 OA
HETATM   12  C7  UNK     1      18.126  -0.104  36.021  1.00  0.00     0.105 A 
HETATM   13  C15 UNK     1      17.566   1.224  37.635  1.00  0.00     0.352 A 
HETATM   14  O2  UNK     1      17.857  -0.160  37.353  1.00  0.00    -0.323 OA
HETATM   15  C13 UNK     1      18.473  -1.171  35.218  1.00  0.00     0.040 A 
HETATM   16  C10 UNK     1      18.714  -0.915  33.866  1.00  0.00     0.012 A 
ENDBRANCH   7   8
ENDBRANCH   5   7
ENDBRANCH   3   5
ENDBRANCH   1   3
BRANCH   1  17
HETATM   17  C8  UNK     1      19.067   4.885  31.193  1.00  0.00     0.036 A 
HETATM   18  C11 UNK     1      17.829   5.263  31.701  1.00  0.00     0.067 A 
HETATM   19  C5  UNK     1      17.759   6.318  32.613  1.00  0.00     0.092 A 
HETATM   20  C2  UNK     1      18.894   7.012  33.037  1.00  0.00     0.004 A 
HETATM   21  O3  UNK     1      16.477   6.653  33.093  1.00  0.00    -0.275 OA
HETATM   22  C12 UNK     1      20.132   6.616  32.514  1.00  0.00     0.017 A 
HETATM   23  C9  UNK     1      18.727   8.109  34.000  1.00  0.00    -0.043 A 
HETATM   24  C14 UNK     1      20.217   5.561  31.598  1.00  0.00     0.030 A 
HETATM   25  C17 UNK     1      17.497   8.406  34.440  1.00  0.00     0.090 A 
HETATM   26  C18 UNK     1      19.928   8.875  34.475  1.00  0.00     0.049 C 
HETATM   27  C19 UNK     1      16.291   7.683  34.002  1.00  0.00     0.288 A 
HETATM   28  O4  UNK     1      15.180   7.984  34.425  1.00  0.00    -0.260 OA
ENDBRANCH   1  17
TORSDOF 5
ENDMDL
MODEL 2
REMARK VINA RESULT:      -9.2      6.670     12.289
REMARK  5 active torsions:
REMARK  status: ('A' for Active; 'I' for Inactive)
REMARK    1  A    between atoms: C16_23  and  N1_6 
REMARK    2  A    between atoms: C3_10  and  N1_6 
REMARK    3  A    between atoms: C16_23  and  N2_7 
REMARK    4  A    between atoms: C8_15  and  N2_7 
REMARK    5  A    between atoms: C1_8  and  C3_10 
ROOT
HETATM    1  N2  UNK     1      18.408  -5.047  36.443  1.00  0.00    -0.333 N 
HETATM    2  H10 UNK     1      17.532  -5.024  35.929  1.00  0.00     0.168 HD
ENDROOT
BRANCH   1   3
HETATM    3  C16 UNK     1      18.879  -3.776  36.816  1.00  0.00     0.172 C 
HETATM    4  S1  UNK     1      20.455  -3.335  37.200  1.00  0.00    -0.041 SA
BRANCH   3   5
HETATM    5  N1  UNK     1      17.924  -2.768  36.829  1.00  0.00    -0.363 N 
HETATM    6  H9  UNK     1      17.074  -2.959  36.305  1.00  0.00     0.162 HD
BRANCH   5   7
HETATM    7  C3  UNK     1      18.011  -1.489  37.510  1.00  0.00     0.160 C 
BRANCH   7   8
HETATM    8  C1  UNK     1      18.025  -0.339  36.545  1.00  0.00    -0.038 A 
HETATM    9  C6  UNK     1      18.207  -0.588  35.187  1.00  0.00     0.048 A 
HETATM   10  C4  UNK     1      18.213   0.501  34.340  1.00  0.00     0.105 A 
HETATM   11  O1  UNK     1      18.376   0.460  32.989  1.00  0.00    -0.323 OA
HETATM   12  C7  UNK     1      18.046   1.785  34.808  1.00  0.00     0.105 A 
HETATM   13  C15 UNK     1      18.295   1.863  32.660  1.00  0.00     0.352 A 
HETATM   14  O2  UNK     1      18.085   2.708  33.809  1.00  0.00    -0.323 OA
HETATM   15  C13 UNK     1      17.865   2.049  36.149  1.00  0.00     0.040 A 
HETATM   16  C10 UNK     1      17.855   0.965  37.030  1.00  0.00     0.012 A 
ENDBRANCH   7   8
ENDBRANCH   5   7
ENDBRANCH   3   5
ENDBRANCH   1   3
BRANCH   1  17
HETATM   17  C8  UNK     1      19.019  -6.301  36.384  1.00  0.00     0.036 A 
HETATM   18  C11 UNK     1      18.693  -7.280  37.317  1.00  0.00     0.067 A 
HETATM   19  C5  UNK     1      19.315  -8.528  37.239  1.00  0.00     0.092 A 
HETATM   20  C2  UNK     1      20.256  -8.832  36.254  1.00  0.00     0.004 A 
HETATM   21  O3  UNK     1      18.944  -9.479  38.211  1.00  0.00    -0.275 OA
HETATM   22  C12 UNK     1      20.570  -7.832  35.324  1.00  0.00     0.017 A 
HETATM   23  C9  UNK     1      20.859 -10.171  36.248  1.00  0.00    -0.043 A 
HETATM   24  C14 UNK     1      19.955  -6.576  35.389  1.00  0.00     0.030 A 
HETATM   25  C17 UNK     1      20.488 -11.056  37.183  1.00  0.00     0.090 A 
HETATM   26  C18 UNK     1      21.875 -10.529  35.202  1.00  0.00     0.049 C 
HETATM   27  C19 UNK     1      19.496 -10.751  38.229  1.00  0.00     0.288 A 
HETATM   28  O4  UNK     1      19.181 -11.585  39.069  1.00  0.00    -0.260 OA
ENDBRANCH   1  17
TORSDOF 5
ENDMDL
MODEL 3
REMARK VINA RESULT:      -9.1      1.398      6.829
REMARK  5 active torsions:
REMARK  status: ('A' for Active; 'I' for Inactive)
REMARK    1  A    between atoms: C16_23  and  N1_6 
REMARK    2  A    between atoms: C3_10  and  N1_6 
REMARK    3  A    between atoms: C16_23  and  N2_7 
REMARK    4  A    between atoms: C8_15  and  N2_7 
REMARK    5  A    between atoms: C1_8  and  C3_10 
ROOT
HETATM    1  N2  UNK     1      18.890   0.870  31.135  1.00  0.00    -0.333 N 
HETATM    2  H10 UNK     1      19.451   0.103  30.777  1.00  0.00     0.168 HD
ENDROOT
BRANCH   1   3
HETATM    3  C16 UNK     1      18.761   1.944  30.237  1.00  0.00     0.172 C 
HETATM    4  S1  UNK     1      17.926   1.972  28.779  1.00  0.00    -0.041 SA
BRANCH   3   5
HETATM    5  N1  UNK     1      19.373   3.127  30.632  1.00  0.00    -0.363 N 
HETATM    6  H9  UNK     1      20.192   3.023  31.226  1.00  0.00     0.162 HD
BRANCH   5   7
HETATM    7  C3  UNK     1      18.972   4.478  30.286  1.00  0.00     0.160 C 
BRANCH   7   8
HETATM    8  C1  UNK     1      18.911   5.372  31.491  1.00  0.00    -0.038 A 
HETATM    9  C6  UNK     1      17.698   5.548  32.151  1.00  0.00     0.048 A 
HETATM   10  C4  UNK     1      17.693   6.379  33.253  1.00  0.00     0.105 A 
HETATM   11  O1  UNK     1      16.610   6.675  34.024  1.00  0.00    -0.323 OA
HETATM   12  C7  UNK     1      18.834   7.013  33.688  1.00  0.00     0.105 A 
HETATM   13  C15 UNK     1      17.199   7.566  34.993  1.00  0.00     0.352 A 
HETATM   14  O2  UNK     1      18.609   7.784  34.786  1.00  0.00    -0.323 OA
HETATM   15  C13 UNK     1      20.044   6.850  33.046  1.00  0.00     0.040 A 
HETATM   16  C10 UNK     1      20.078   6.014  31.928  1.00  0.00     0.012 A 
ENDBRANCH   7   8
ENDBRANCH   5   7
ENDBRANCH   3   5
ENDBRANCH   1   3
BRANCH   1  17
HETATM   17  C8  UNK     1      18.647   0.750  32.504  1.00  0.00     0.036 A 
HETATM   18  C11 UNK     1      18.867  -0.463  33.148  1.00  0.00     0.067 A 
HETATM   19  C5  UNK     1      18.619  -0.561  34.518  1.00  0.00     0.092 A 
HETATM   20  C2  UNK     1      18.155   0.519  35.271  1.00  0.00     0.004 A 
HETATM   21  O3  UNK     1      18.863  -1.815  35.114  1.00  0.00    -0.275 OA
HETATM   22  C12 UNK     1      17.939   1.732  34.603  1.00  0.00     0.017 A 
HETATM   23  C9  UNK     1      17.922   0.325  36.708  1.00  0.00    -0.043 A 
HETATM   24  C14 UNK     1      18.183   1.846  33.230  1.00  0.00     0.030 A 
HETATM   25  C17 UNK     1      18.161  -0.878  37.249  1.00  0.00     0.090 A 
HETATM   26  C18 UNK     1      17.422   1.466  37.545  1.00  0.00     0.049 C 
HETATM   27  C19 UNK     1      18.651  -2.027  36.468  1.00  0.00     0.288 A 
HETATM   28  O4  UNK     1      18.858  -3.113  36.997  1.00  0.00    -0.260 OA
ENDBRANCH   1  17
TORSDOF 5
ENDMDL
MODEL 4
REMARK VINA RESULT:      -9.0      6.368     11.811
REMARK  5 active torsions:
REMARK  status: ('A' for Active; 'I' for Inactive)
REMARK    1  A    between atoms: C16_23  and  N1_6 
REMARK    2  A    between atoms: C3_10  and  N1_6 
REMARK    3  A    between atoms: C16_23  and  N2_7 
REMARK    4  A    between atoms: C8_15  and  N2_7 
REMARK    5  A    between atoms: C1_8  and  C3_10 
ROOT
HETATM    1  N2  UNK     1      19.747  -4.297  35.314  1.00  0.00    -0.333 N 
HETATM    2  H10 UNK     1      19.812  -4.612  34.350  1.00  0.00     0.168 HD
ENDROOT
BRANCH   1   3
HETATM    3  C16 UNK     1      19.564  -2.909  35.444  1.00  0.00     0.172 C 
HETATM    4  S1  UNK     1      19.126  -2.055  36.823  1.00  0.00    -0.041 SA
BRANCH   3   5
HETATM    5  N1  UNK     1      19.815  -2.166  34.298  1.00  0.00    -0.363 N 
HETATM    6  H9  UNK     1      19.428  -1.226  34.288  1.00  0.00     0.162 HD
BRANCH   5   7
HETATM    7  C3  UNK     1      20.567  -2.586  33.130  1.00  0.00     0.160 C 
BRANCH   7   8
HETATM    8  C1  UNK     1      20.250  -1.746  31.926  1.00  0.00    -0.038 A 
HETATM    9  C6  UNK     1      19.565  -0.545  32.091  1.00  0.00     0.048 A 
HETATM   10  C4  UNK     1      19.298   0.191  30.955  1.00  0.00     0.105 A 
HETATM   11  O1  UNK     1      18.642   1.384  30.914  1.00  0.00    -0.323 OA
HETATM   12  C7  UNK     1      19.687  -0.235  29.706  1.00  0.00     0.105 A 
HETATM   13  C15 UNK     1      18.662   1.659  29.498  1.00  0.00     0.352 A 
HETATM   14  O2  UNK     1      19.325   0.636  28.726  1.00  0.00    -0.323 OA
HETATM   15  C13 UNK     1      20.367  -1.422  29.525  1.00  0.00     0.040 A 
HETATM   16  C10 UNK     1      20.651  -2.188  30.658  1.00  0.00     0.012 A 
ENDBRANCH   7   8
ENDBRANCH   5   7
ENDBRANCH   3   5
ENDBRANCH   1   3
BRANCH   1  17
HETATM   17  C8  UNK     1      20.133  -5.288  36.217  1.00  0.00     0.036 A 
HETATM   18  C11 UNK     1      19.610  -6.572  36.111  1.00  0.00     0.067 A 
HETATM   19  C5  UNK     1      20.011  -7.549  37.025  1.00  0.00     0.092 A 
HETATM   20  C2  UNK     1      20.924  -7.283  38.047  1.00  0.00     0.004 A 
HETATM   21  O3  UNK     1      19.448  -8.831  36.865  1.00  0.00    -0.275 OA
HETATM   22  C12 UNK     1      21.440  -5.983  38.136  1.00  0.00     0.017 A 
HETATM   23  C9  UNK     1      21.290  -8.372  38.963  1.00  0.00    -0.043 A 
HETATM   24  C14 UNK     1      21.047  -4.993  37.228  1.00  0.00     0.030 A 
HETATM   25  C17 UNK     1      20.738  -9.581  38.788  1.00  0.00     0.090 A 
HETATM   26  C18 UNK     1      22.268  -8.118  40.073  1.00  0.00     0.049 C 
HETATM   27  C19 UNK     1      19.775  -9.877  37.715  1.00  0.00     0.288 A 
HETATM   28  O4  UNK     1      19.290 -10.995  37.586  1.00  0.00    -0.260 OA
ENDBRANCH   1  17
TORSDOF 5
ENDMDL
MODEL 5
REMARK VINA RESULT:      -8.9      1.145      6.631
REMARK  5 active torsions:
REMARK  status: ('A' for Active; 'I' for Inactive)
REMARK    1  A    between atoms: C16_23  and  N1_6 
REMARK    2  A    between atoms: C3_10  and  N1_6 
REMARK    3  A    between atoms: C16_23  and  N2_7 
REMARK    4  A    between atoms: C8_15  and  N2_7 
REMARK    5  A    between atoms: C1_8  and  C3_10 
ROOT
HETATM    1  N2  UNK     1      18.997   0.462  30.799  1.00  0.00    -0.333 N 
HETATM    2  H10 UNK     1      19.599  -0.157  30.265  1.00  0.00     0.168 HD
ENDROOT
BRANCH   1   3
HETATM    3  C16 UNK     1      18.705   1.671  30.144  1.00  0.00     0.172 C 
HETATM    4  S1  UNK     1      17.903   1.881  28.682  1.00  0.00    -0.041 SA
BRANCH   3   5
HETATM    5  N1  UNK     1      19.099   2.822  30.815  1.00  0.00    -0.363 N 
HETATM    6  H9  UNK     1      19.521   2.677  31.728  1.00  0.00     0.162 HD
BRANCH   5   7
HETATM    7  C3  UNK     1      18.977   4.191  30.349  1.00  0.00     0.160 C 
BRANCH   7   8
HETATM    8  C1  UNK     1      18.931   5.169  31.488  1.00  0.00    -0.038 A 
HETATM    9  C6  UNK     1      17.741   5.348  32.188  1.00  0.00     0.048 A 
HETATM   10  C4  UNK     1      17.749   6.258  33.226  1.00  0.00     0.105 A 
HETATM   11  O1  UNK     1      16.689   6.569  34.021  1.00  0.00    -0.323 OA
HETATM   12  C7  UNK     1      18.881   6.964  33.562  1.00  0.00     0.105 A 
HETATM   13  C15 UNK     1      17.282   7.551  34.897  1.00  0.00     0.352 A 
HETATM   14  O2  UNK     1      18.673   7.805  34.611  1.00  0.00    -0.323 OA
HETATM   15  C13 UNK     1      20.068   6.799  32.880  1.00  0.00     0.040 A 
HETATM   16  C10 UNK     1      20.089   5.884  31.824  1.00  0.00     0.012 A 
ENDBRANCH   7   8
ENDBRANCH   5   7
ENDBRANCH   3   5
ENDBRANCH   1   3
BRANCH   1  17
HETATM   17  C8  UNK     1      18.868   0.053  32.127  1.00  0.00     0.036 A 
HETATM   18  C11 UNK     1      18.316   0.911  33.072  1.00  0.00     0.067 A 
HETATM   19  C5  UNK     1      18.195   0.481  34.394  1.00  0.00     0.092 A 
HETATM   20  C2  UNK     1      18.609  -0.787  34.807  1.00  0.00     0.004 A 
HETATM   21  O3  UNK     1      17.628   1.394  35.305  1.00  0.00    -0.275 OA
HETATM   22  C12 UNK     1      19.162  -1.637  33.839  1.00  0.00     0.017 A 
HETATM   23  C9  UNK     1      18.443  -1.156  36.219  1.00  0.00    -0.043 A 
HETATM   24  C14 UNK     1      19.290  -1.220  32.510  1.00  0.00     0.030 A 
HETATM   25  C17 UNK     1      17.900  -0.267  37.063  1.00  0.00     0.090 A 
HETATM   26  C18 UNK     1      18.879  -2.512  36.694  1.00  0.00     0.049 C 
HETATM   27  C19 UNK     1      17.459   1.073  36.644  1.00  0.00     0.288 A 
HETATM   28  O4  UNK     1      16.967   1.861  37.444  1.00  0.00    -0.260 OA
ENDBRANCH   1  17
TORSDOF 5
ENDMDL
MODEL 6
REMARK VINA RESULT:      -8.8      2.991      8.486
REMARK  5 active torsions:
REMARK  status: ('A' for Active; 'I' for Inactive)
REMARK    1  A    between atoms: C16_23  and  N1_6 
REMARK    2  A    between atoms: C3_10  and  N1_6 
REMARK    3  A    between atoms: C16_23  and  N2_7 
REMARK    4  A    between atoms: C8_15  and  N2_7 
REMARK    5  A    between atoms: C1_8  and  C3_10 
ROOT
HETATM    1  N2  UNK     1      17.558   4.037  31.934  1.00  0.00    -0.333 N 
HETATM    2  H10 UNK     1      16.546   3.972  31.881  1.00  0.00     0.168 HD
ENDROOT
BRANCH   1   3
HETATM    3  C16 UNK     1      18.030   5.340  32.169  1.00  0.00     0.172 C 
HETATM    4  S1  UNK     1      19.460   6.031  31.620  1.00  0.00    -0.041 SA
BRANCH   3   5
HETATM    5  N1  UNK     1      17.186   6.153  32.915  1.00  0.00    -0.363 N 
HETATM    6  H9  UNK     1      16.283   6.356  32.493  1.00  0.00     0.162 HD
BRANCH   5   7
HETATM    7  C3  UNK     1      17.454   6.729  34.220  1.00  0.00     0.160 C 
BRANCH   7   8
HETATM    8  C1  UNK     1      17.201   8.209  34.242  1.00  0.00    -0.038 A 
HETATM    9  C6  UNK     1      18.225   9.083  33.886  1.00  0.00     0.048 A 
HETATM   10  C4  UNK     1      17.944  10.434  33.923  1.00  0.00     0.105 A 
HETATM   11  O1  UNK     1      18.810  11.437  33.612  1.00  0.00    -0.323 OA
HETATM   12  C7  UNK     1      16.707  10.907  34.295  1.00  0.00     0.105 A 
HETATM   13  C15 UNK     1      17.979  12.595  33.831  1.00  0.00     0.352 A 
HETATM   14  O2  UNK     1      16.643  12.266  34.264  1.00  0.00    -0.323 OA
HETATM   15  C13 UNK     1      15.681  10.056  34.650  1.00  0.00     0.040 A 
HETATM   16  C10 UNK     1      15.938   8.683  34.623  1.00  0.00     0.012 A 
ENDBRANCH   7   8
ENDBRANCH   5   7
ENDBRANCH   3   5
ENDBRANCH   1   3
BRANCH   1  17
HETATM   17  C8  UNK     1      18.183   2.873  31.484  1.00  0.00     0.036 A 
HETATM   18  C11 UNK     1      18.423   1.824  32.365  1.00  0.00     0.067 A 
HETATM   19  C5  UNK     1      19.048   0.668  31.894  1.00  0.00     0.092 A 
HETATM   20  C2  UNK     1      19.444   0.524  30.563  1.00  0.00     0.004 A 
HETATM   21  O3  UNK     1      19.263  -0.360  32.834  1.00  0.00    -0.275 OA
HETATM   22  C12 UNK     1      19.193   1.592  29.691  1.00  0.00     0.017 A 
HETATM   23  C9  UNK     1      20.095  -0.728  30.155  1.00  0.00    -0.043 A 
HETATM   24  C14 UNK     1      18.568   2.757  30.149  1.00  0.00     0.030 A 
HETATM   25  C17 UNK     1      20.287  -1.689  31.069  1.00  0.00     0.090 A 
HETATM   26  C18 UNK     1      20.533  -0.913  28.731  1.00  0.00     0.049 C 
HETATM   27  C19 UNK     1      19.875  -1.552  32.477  1.00  0.00     0.288 A 
HETATM   28  O4  UNK     1      20.068  -2.453  33.286  1.00  0.00    -0.260 OA
ENDBRANCH   1  17
TORSDOF 5
ENDMDL
MODEL 7
REMARK VINA RESULT:      -8.7      3.226      4.662
REMARK  5 active torsions:
REMARK  status: ('A' for Active; 'I' for Inactive)
REMARK    1  A    between atoms: C16_23  and  N1_6 
REMARK    2  A    between atoms: C3_10  and  N1_6 
REMARK    3  A    between atoms: C16_23  and  N2_7 
REMARK    4  A    between atoms: C8_15  and  N2_7 
REMARK    5  A    between atoms: C1_8  and  C3_10 
ROOT
HETATM    1  N2  UNK     1      17.586   5.208  32.437  1.00  0.00    -0.333 N 
HETATM    2  H10 UNK     1      17.654   4.649  33.282  1.00  0.00     0.168 HD
ENDROOT
BRANCH   1   3
HETATM    3  C16 UNK     1      18.346   4.709  31.365  1.00  0.00     0.172 C 
HETATM    4  S1  UNK     1      19.357   5.567  30.333  1.00  0.00    -0.041 SA
BRANCH   3   5
HETATM    5  N1  UNK     1      18.270   3.336  31.172  1.00  0.00    -0.363 N 
HETATM    6  H9  UNK     1      18.229   2.772  32.017  1.00  0.00     0.162 HD
BRANCH   5   7
HETATM    7  C3  UNK     1      18.238   2.631  29.903  1.00  0.00     0.160 C 
BRANCH   7   8
HETATM    8  C1  UNK     1      18.926   1.299  29.983  1.00  0.00    -0.038 A 
HETATM    9  C6  UNK     1      19.141   0.714  31.228  1.00  0.00     0.048 A 
HETATM   10  C4  UNK     1      19.776  -0.511  31.250  1.00  0.00     0.105 A 
HETATM   11  O1  UNK     1      20.074  -1.235  32.364  1.00  0.00    -0.323 OA
HETATM   12  C7  UNK     1      20.184  -1.137  30.095  1.00  0.00     0.105 A 
HETATM   13  C15 UNK     1      20.716  -2.387  31.779  1.00  0.00     0.352 A 
HETATM   14  O2  UNK     1      20.788  -2.331  30.339  1.00  0.00    -0.323 OA
HETATM   15  C13 UNK     1      19.979  -0.572  28.853  1.00  0.00     0.040 A 
HETATM   16  C10 UNK     1      19.339   0.668  28.801  1.00  0.00     0.012 A 
ENDBRANCH   7   8
ENDBRANCH   5   7
ENDBRANCH   3   5
ENDBRANCH   1   3
BRANCH   1  17
HETATM   17  C8  UNK     1      16.986   6.446  32.674  1.00  0.00     0.036 A 
HETATM   18  C11 UNK     1      17.753   7.523  33.103  1.00  0.00     0.067 A 
HETATM   19  C5  UNK     1      17.133   8.753  33.333  1.00  0.00     0.092 A 
HETATM   20  C2  UNK     1      15.763   8.943  33.146  1.00  0.00     0.004 A 
HETATM   21  O3  UNK     1      17.963   9.806  33.766  1.00  0.00    -0.275 OA
HETATM   22  C12 UNK     1      15.007   7.845  32.712  1.00  0.00     0.017 A 
HETATM   23  C9  UNK     1      15.195  10.272  33.411  1.00  0.00    -0.043 A 
HETATM   24  C14 UNK     1      15.615   6.606  32.478  1.00  0.00     0.030 A 
HETATM   25  C17 UNK     1      16.007  11.255  33.822  1.00  0.00     0.090 A 
HETATM   26  C18 UNK     1      13.725  10.508  33.220  1.00  0.00     0.049 C 
HETATM   27  C19 UNK     1      17.455  11.070  34.024  1.00  0.00     0.288 A 
HETATM   28  O4  UNK     1      18.167  11.994  34.402  1.00  0.00    -0.260 OA
ENDBRANCH   1  17
TORSDOF 5
ENDMDL
MODEL 8
REMARK VINA RESULT:      -8.7      6.859      9.682
REMARK  5 active torsions:
REMARK  status: ('A' for Active; 'I' for Inactive)
REMARK    1  A    between atoms: C16_23  and  N1_6 
REMARK    2  A    between atoms: C3_10  and  N1_6 
REMARK    3  A    between atoms: C16_23  and  N2_7 
REMARK    4  A    between atoms: C8_15  and  N2_7 
REMARK    5  A    between atoms: C1_8  and  C3_10 
ROOT
HETATM    1  N2  UNK     1      20.318  -4.107  36.489  1.00  0.00    -0.333 N 
HETATM    2  H10 UNK     1      20.550  -4.443  35.559  1.00  0.00     0.168 HD
ENDROOT
BRANCH   1   3
HETATM    3  C16 UNK     1      20.484  -5.073  37.497  1.00  0.00     0.172 C 
HETATM    4  S1  UNK     1      21.904  -5.506  38.283  1.00  0.00    -0.041 SA
BRANCH   3   5
HETATM    5  N1  UNK     1      19.320  -5.711  37.907  1.00  0.00    -0.363 N 
HETATM    6  H9  UNK     1      18.912  -5.371  38.774  1.00  0.00     0.162 HD
BRANCH   5   7
HETATM    7  C3  UNK     1      18.631  -6.794  37.229  1.00  0.00     0.160 C 
BRANCH   7   8
HETATM    8  C1  UNK     1      19.501  -8.010  37.085  1.00  0.00    -0.038 A 
HETATM    9  C6  UNK     1      20.110  -8.274  35.862  1.00  0.00     0.048 A 
HETATM   10  C4  UNK     1      20.900  -9.402  35.779  1.00  0.00     0.105 A 
HETATM   11  O1  UNK     1      21.574  -9.825  34.674  1.00  0.00    -0.323 OA
HETATM   12  C7  UNK     1      21.085 -10.238  36.856  1.00  0.00     0.105 A 
HETATM   13  C15 UNK     1      22.202 -11.022  35.177  1.00  0.00     0.352 A 
HETATM   14  O2  UNK     1      21.896 -11.290  36.561  1.00  0.00    -0.323 OA
HETATM   15  C13 UNK     1      20.489  -9.992  38.076  1.00  0.00     0.040 A 
HETATM   16  C10 UNK     1      19.683  -8.857  38.187  1.00  0.00     0.012 A 
ENDBRANCH   7   8
ENDBRANCH   5   7
ENDBRANCH   3   5
ENDBRANCH   1   3
BRANCH   1  17
HETATM   17  C8  UNK     1      19.644  -2.885  36.454  1.00  0.00     0.036 A 
HETATM   18  C11 UNK     1      19.595  -2.149  35.275  1.00  0.00     0.067 A 
HETATM   19  C5  UNK     1      18.915  -0.930  35.261  1.00  0.00     0.092 A 
HETATM   20  C2  UNK     1      18.278  -0.419  36.393  1.00  0.00     0.004 A 
HETATM   21  O3  UNK     1      18.898  -0.231  34.037  1.00  0.00    -0.275 OA
HETATM   22  C12 UNK     1      18.339  -1.176  37.571  1.00  0.00     0.017 A 
HETATM   23  C9  UNK     1      17.585   0.872  36.287  1.00  0.00    -0.043 A 
HETATM   24  C14 UNK     1      19.017  -2.399  37.601  1.00  0.00     0.030 A 
HETATM   25  C17 UNK     1      17.586   1.515  35.111  1.00  0.00     0.090 A 
HETATM   26  C18 UNK     1      16.892   1.449  37.487  1.00  0.00     0.049 C 
HETATM   27  C19 UNK     1      18.252   0.989  33.908  1.00  0.00     0.288 A 
HETATM   28  O4  UNK     1      18.233   1.606  32.849  1.00  0.00    -0.260 OA
ENDBRANCH   1  17
TORSDOF 5
ENDMDL
MODEL 9
REMARK VINA RESULT:      -8.6      3.058      4.164
REMARK  5 active torsions:
REMARK  status: ('A' for Active; 'I' for Inactive)
REMARK    1  A    between atoms: C16_23  and  N1_6 
REMARK    2  A    between atoms: C3_10  and  N1_6 
REMARK    3  A    between atoms: C16_23  and  N2_7 
REMARK    4  A    between atoms: C8_15  and  N2_7 
REMARK    5  A    between atoms: C1_8  and  C3_10 
ROOT
HETATM    1  N2  UNK     1      17.591   4.788  32.007  1.00  0.00    -0.333 N 
HETATM    2  H10 UNK     1      17.020   4.690  31.173  1.00  0.00     0.168 HD
ENDROOT
BRANCH   1   3
HETATM    3  C16 UNK     1      17.979   3.562  32.575  1.00  0.00     0.172 C 
HETATM    4  S1  UNK     1      18.449   3.265  34.161  1.00  0.00    -0.041 SA
BRANCH   3   5
HETATM    5  N1  UNK     1      17.926   2.468  31.721  1.00  0.00    -0.363 N 
HETATM    6  H9  UNK     1      17.327   1.703  32.019  1.00  0.00     0.162 HD
BRANCH   5   7
HETATM    7  C3  UNK     1      18.625   2.309  30.458  1.00  0.00     0.160 C 
BRANCH   7   8
HETATM    8  C1  UNK     1      19.243   0.947  30.326  1.00  0.00    -0.038 A 
HETATM    9  C6  UNK     1      19.466   0.183  31.469  1.00  0.00     0.048 A 
HETATM   10  C4  UNK     1      20.036  -1.062  31.295  1.00  0.00     0.105 A 
HETATM   11  O1  UNK     1      20.331  -1.948  32.286  1.00  0.00    -0.323 OA
HETATM   12  C7  UNK     1      20.373  -1.538  30.049  1.00  0.00     0.105 A 
HETATM   13  C15 UNK     1      20.892  -3.036  31.522  1.00  0.00     0.352 A 
HETATM   14  O2  UNK     1      20.920  -2.782  30.102  1.00  0.00    -0.323 OA
HETATM   15  C13 UNK     1      20.158  -0.795  28.907  1.00  0.00     0.040 A 
HETATM   16  C10 UNK     1      19.583   0.469  29.053  1.00  0.00     0.012 A 
ENDBRANCH   7   8
ENDBRANCH   5   7
ENDBRANCH   3   5
ENDBRANCH   1   3
BRANCH   1  17
HETATM   17  C8  UNK     1      17.589   6.096  32.494  1.00  0.00     0.036 A 
HETATM   18  C11 UNK     1      16.388   6.720  32.813  1.00  0.00     0.067 A 
HETATM   19  C5  UNK     1      16.408   8.028  33.300  1.00  0.00     0.092 A 
HETATM   20  C2  UNK     1      17.596   8.738  33.481  1.00  0.00     0.004 A 
HETATM   21  O3  UNK     1      15.159   8.606  33.606  1.00  0.00    -0.275 OA
HETATM   22  C12 UNK     1      18.796   8.091  33.156  1.00  0.00     0.017 A 
HETATM   23  C9  UNK     1      17.523  10.110  34.000  1.00  0.00    -0.043 A 
HETATM   24  C14 UNK     1      18.792   6.780  32.666  1.00  0.00     0.030 A 
HETATM   25  C17 UNK     1      16.323  10.635  34.282  1.00  0.00     0.090 A 
HETATM   26  C18 UNK     1      18.783  10.900  34.206  1.00  0.00     0.049 C 
HETATM   27  C19 UNK     1      15.060   9.900  34.097  1.00  0.00     0.288 A 
HETATM   28  O4  UNK     1      13.980  10.413  34.365  1.00  0.00    -0.260 OA
ENDBRANCH   1  17
TORSDOF 5
ENDMDL
MODEL 10
REMARK VINA RESULT:      -8.6      3.854      5.276
REMARK  5 active torsions:
REMARK  status: ('A' for Active; 'I' for Inactive)
REMARK    1  A    between atoms: C16_23  and  N1_6 
REMARK    2  A    between atoms: C3_10  and  N1_6 
REMARK    3  A    between atoms: C16_23  and  N2_7 
REMARK    4  A    between atoms: C8_15  and  N2_7 
REMARK    5  A    between atoms: C1_8  and  C3_10 
ROOT
HETATM    1  N2  UNK     1      18.173   2.790  35.693  1.00  0.00    -0.333 N 
HETATM    2  H10 UNK     1      18.813   3.270  36.318  1.00  0.00     0.168 HD
ENDROOT
BRANCH   1   3
HETATM    3  C16 UNK     1      17.547   1.672  36.271  1.00  0.00     0.172 C 
HETATM    4  S1  UNK     1      17.614   1.170  37.874  1.00  0.00    -0.041 SA
BRANCH   3   5
HETATM    5  N1  UNK     1      16.754   0.923  35.412  1.00  0.00    -0.363 N 
HETATM    6  H9  UNK     1      16.167   1.457  34.775  1.00  0.00     0.162 HD
BRANCH   5   7
HETATM    7  C3  UNK     1      16.681  -0.524  35.325  1.00  0.00     0.160 C 
BRANCH   7   8
HETATM    8  C1  UNK     1      17.922  -1.113  34.720  1.00  0.00    -0.038 A 
HETATM    9  C6  UNK     1      18.088  -1.086  33.337  1.00  0.00     0.048 A 
HETATM   10  C4  UNK     1      19.245  -1.640  32.829  1.00  0.00     0.105 A 
HETATM   11  O1  UNK     1      19.584  -1.709  31.512  1.00  0.00    -0.323 OA
HETATM   12  C7  UNK     1      20.201  -2.198  33.645  1.00  0.00     0.105 A 
HETATM   13  C15 UNK     1      20.862  -2.374  31.592  1.00  0.00     0.352 A 
HETATM   14  O2  UNK     1      21.259  -2.687  32.942  1.00  0.00    -0.323 OA
HETATM   15  C13 UNK     1      20.054  -2.233  35.016  1.00  0.00     0.040 A 
HETATM   16  C10 UNK     1      18.892  -1.680  35.558  1.00  0.00     0.012 A 
ENDBRANCH   7   8
ENDBRANCH   5   7
ENDBRANCH   3   5
ENDBRANCH   1   3
BRANCH   1  17
HETATM   17  C8  UNK     1      18.314   3.214  34.370  1.00  0.00     0.036 A 
HETATM   18  C11 UNK     1      18.230   2.295  33.330  1.00  0.00     0.067 A 
HETATM   19  C5  UNK     1      18.373   2.741  32.014  1.00  0.00     0.092 A 
HETATM   20  C2  UNK     1      18.599   4.083  31.702  1.00  0.00     0.004 A 
HETATM   21  O3  UNK     1      18.278   1.763  31.004  1.00  0.00    -0.275 OA
HETATM   22  C12 UNK     1      18.679   4.992  32.765  1.00  0.00     0.017 A 
HETATM   23  C9  UNK     1      18.736   4.462  30.290  1.00  0.00    -0.043 A 
HETATM   24  C14 UNK     1      18.538   4.561  34.089  1.00  0.00     0.030 A 
HETATM   25  C17 UNK     1      18.641   3.512  29.350  1.00  0.00     0.090 A 
HETATM   26  C18 UNK     1      18.980   5.897  29.921  1.00  0.00     0.049 C 
HETATM   27  C19 UNK     1      18.404   2.092  29.663  1.00  0.00     0.288 A 
HETATM   28  O4  UNK     1      18.323   1.250  28.776  1.00  0.00    -0.260 OA
ENDBRANCH   1  17
TORSDOF 5
ENDMDL
