MODEL 1
REMARK VINA RESULT:      -8.0      0.000      0.000
REMARK  2 active torsions:
REMARK  status: ('A' for Active; 'I' for Inactive)
REMARK    1  A    between atoms: C8_12  and  O1_3 
REMARK    2  A    between atoms: C5_9  and  C6_10 
ROOT
HETATM    1  S1  UNK     1      13.102   7.105   7.612  1.00  0.00    -0.086 SA
HETATM    2  O2  UNK     1      10.427   8.408  10.068  1.00  0.00    -0.286 OA
HETATM    3  C1  UNK     1      10.476   7.269   7.984  1.00  0.00     0.032 A 
HETATM    4  C2  UNK     1      12.556   7.888   9.059  1.00  0.00     0.057 A 
HETATM    5  C3  UNK     1      11.435   6.796   7.091  1.00  0.00     0.020 A 
HETATM    6  C4  UNK     1      11.072   7.919   9.159  1.00  0.00     0.200 A 
HETATM    7  C6  UNK     1      13.351   8.409   9.994  1.00  0.00     0.037 C 
HETATM    8  C7  UNK     1       9.117   7.119   7.751  1.00  0.00     0.017 A 
HETATM    9  C9  UNK     1      11.043   6.154   5.925  1.00  0.00     0.020 A 
HETATM   10  C11 UNK     1       8.720   6.473   6.580  1.00  0.00     0.001 A 
HETATM   11  C12 UNK     1       9.677   5.993   5.673  1.00  0.00     0.001 A 
ENDROOT
BRANCH   7  12
HETATM   12  C5  UNK     1      14.825   8.418   9.969  1.00  0.00    -0.000 A 
HETATM   13  C10 UNK     1      15.468   9.549   9.488  1.00  0.00     0.033 A 
HETATM   14  C14 UNK     1      16.862   9.580   9.453  1.00  0.00     0.011 A 
HETATM   15 Br1  UNK     1      17.759  11.111   8.804  1.00  0.00    -0.051 Br
HETATM   16  C15 UNK     1      17.596   8.481   9.901  1.00  0.00     0.022 A 
HETATM   17  C13 UNK     1      16.935   7.350  10.381  1.00  0.00     0.039 A 
HETATM   18  C8  UNK     1      15.541   7.319  10.416  1.00  0.00     0.078 A 
BRANCH  18  19
HETATM   19  O1  UNK     1      14.921   6.201  10.890  1.00  0.00    -0.355 OA
HETATM   20  C16 UNK     1      15.015   5.022  10.094  1.00  0.00     0.210 C 
ENDBRANCH  18  19
ENDBRANCH   7  12
TORSDOF 2
ENDMDL
MODEL 2
REMARK VINA RESULT:      -7.6     28.998     31.379
REMARK  2 active torsions:
REMARK  status: ('A' for Active; 'I' for Inactive)
REMARK    1  A    between atoms: C8_12  and  O1_3 
REMARK    2  A    between atoms: C5_9  and  C6_10 
ROOT
HETATM    1  S1  UNK     1      18.927  -5.279  36.831  1.00  0.00    -0.086 SA
HETATM    2  O2  UNK     1      22.510  -4.958  38.222  1.00  0.00    -0.286 OA
HETATM    3  C1  UNK     1      20.800  -6.605  38.169  1.00  0.00     0.032 A 
HETATM    4  C2  UNK     1      20.421  -4.453  37.126  1.00  0.00     0.057 A 
HETATM    5  C3  UNK     1      19.504  -6.730  37.671  1.00  0.00     0.020 A 
HETATM    6  C4  UNK     1      21.390  -5.292  37.881  1.00  0.00     0.200 A 
HETATM    7  C6  UNK     1      20.700  -3.209  36.733  1.00  0.00     0.037 C 
HETATM    8  C7  UNK     1      21.425  -7.636  38.856  1.00  0.00     0.017 A 
HETATM    9  C9  UNK     1      18.799  -7.910  37.857  1.00  0.00     0.020 A 
HETATM   10  C11 UNK     1      20.719  -8.823  39.042  1.00  0.00     0.001 A 
HETATM   11  C12 UNK     1      19.413  -8.960  38.546  1.00  0.00     0.001 A 
ENDROOT
BRANCH   7  12
HETATM   12  C5  UNK     1      19.796  -2.317  35.984  1.00  0.00    -0.000 A 
HETATM   13  C10 UNK     1      18.886  -1.553  36.698  1.00  0.00     0.033 A 
HETATM   14  C14 UNK     1      18.020  -0.702  36.011  1.00  0.00     0.011 A 
HETATM   15 Br1  UNK     1      16.773   0.351  36.964  1.00  0.00    -0.051 Br
HETATM   16  C15 UNK     1      18.076  -0.625  34.619  1.00  0.00     0.022 A 
HETATM   17  C13 UNK     1      18.997  -1.401  33.914  1.00  0.00     0.039 A 
HETATM   18  C8  UNK     1      19.863  -2.252  34.601  1.00  0.00     0.078 A 
BRANCH  18  19
HETATM   19  O1  UNK     1      20.752  -2.999  33.887  1.00  0.00    -0.355 OA
HETATM   20  C16 UNK     1      21.007  -2.594  32.544  1.00  0.00     0.210 C 
ENDBRANCH  18  19
ENDBRANCH   7  12
TORSDOF 2
ENDMDL
MODEL 3
REMARK VINA RESULT:      -7.5     28.925     31.311
REMARK  2 active torsions:
REMARK  status: ('A' for Active; 'I' for Inactive)
REMARK    1  A    between atoms: C8_12  and  O1_3 
REMARK    2  A    between atoms: C5_9  and  C6_10 
ROOT
HETATM    1  S1  UNK     1      19.050  -5.369  36.532  1.00  0.00    -0.086 SA
HETATM    2  O2  UNK     1      22.435  -4.877  38.317  1.00  0.00    -0.286 OA
HETATM    3  C1  UNK     1      20.745  -6.543  38.208  1.00  0.00     0.032 A 
HETATM    4  C2  UNK     1      20.496  -4.501  36.931  1.00  0.00     0.057 A 
HETATM    5  C3  UNK     1      19.521  -6.729  37.568  1.00  0.00     0.020 A 
HETATM    6  C4  UNK     1      21.366  -5.255  37.874  1.00  0.00     0.200 A 
HETATM    7  C6  UNK     1      20.821  -3.295  36.462  1.00  0.00     0.037 C 
HETATM    8  C7  UNK     1      21.282  -7.499  39.058  1.00  0.00     0.017 A 
HETATM    9  C9  UNK     1      18.799  -7.896  37.773  1.00  0.00     0.020 A 
HETATM   10  C11 UNK     1      20.559  -8.673  39.265  1.00  0.00     0.001 A 
HETATM   11  C12 UNK     1      19.325  -8.870  38.627  1.00  0.00     0.001 A 
ENDROOT
BRANCH   7  12
HETATM   12  C5  UNK     1      20.015  -2.486  35.528  1.00  0.00    -0.000 A 
HETATM   13  C10 UNK     1      20.345  -2.516  34.181  1.00  0.00     0.033 A 
HETATM   14  C14 UNK     1      19.597  -1.759  33.278  1.00  0.00     0.011 A 
HETATM   15 Br1  UNK     1      20.026  -1.784  31.438  1.00  0.00    -0.051 Br
HETATM   16  C15 UNK     1      18.531  -0.983  33.733  1.00  0.00     0.022 A 
HETATM   17  C13 UNK     1      18.212  -0.963  35.092  1.00  0.00     0.039 A 
HETATM   18  C8  UNK     1      18.959  -1.720  35.994  1.00  0.00     0.078 A 
BRANCH  18  19
HETATM   19  O1  UNK     1      18.626  -1.682  37.316  1.00  0.00    -0.355 OA
HETATM   20  C16 UNK     1      17.872  -0.558  37.761  1.00  0.00     0.210 C 
ENDBRANCH  18  19
ENDBRANCH   7  12
TORSDOF 2
ENDMDL
MODEL 4
REMARK VINA RESULT:      -7.3     28.917     31.087
REMARK  2 active torsions:
REMARK  status: ('A' for Active; 'I' for Inactive)
REMARK    1  A    between atoms: C8_12  and  O1_3 
REMARK    2  A    between atoms: C5_9  and  C6_10 
ROOT
HETATM    1  S1  UNK     1      18.735  -2.351  37.776  1.00  0.00    -0.086 SA
HETATM    2  O2  UNK     1      19.818  -1.770  34.119  1.00  0.00    -0.286 OA
HETATM    3  C1  UNK     1      18.740  -0.535  35.837  1.00  0.00     0.032 A 
HETATM    4  C2  UNK     1      19.448  -2.810  36.264  1.00  0.00     0.057 A 
HETATM    5  C3  UNK     1      18.344  -0.736  37.158  1.00  0.00     0.020 A 
HETATM    6  C4  UNK     1      19.393  -1.716  35.258  1.00  0.00     0.200 A 
HETATM    7  C6  UNK     1      19.993  -4.000  36.004  1.00  0.00     0.037 C 
HETATM    8  C7  UNK     1      18.521   0.667  35.179  1.00  0.00     0.017 A 
HETATM    9  C9  UNK     1      17.709   0.281  37.856  1.00  0.00     0.020 A 
HETATM   10  C11 UNK     1      17.884   1.691  35.879  1.00  0.00     0.001 A 
HETATM   11  C12 UNK     1      17.481   1.500  37.209  1.00  0.00     0.001 A 
ENDROOT
BRANCH   7  12
HETATM   12  C5  UNK     1      20.086  -5.132  36.944  1.00  0.00    -0.000 A 
HETATM   13  C10 UNK     1      21.272  -5.312  37.640  1.00  0.00     0.033 A 
HETATM   14  C14 UNK     1      21.384  -6.377  38.535  1.00  0.00     0.011 A 
HETATM   15 Br1  UNK     1      22.990  -6.642  39.495  1.00  0.00    -0.051 Br
HETATM   16  C15 UNK     1      20.309  -7.246  38.723  1.00  0.00     0.022 A 
HETATM   17  C13 UNK     1      19.122  -7.052  38.015  1.00  0.00     0.039 A 
HETATM   18  C8  UNK     1      19.010  -5.987  37.120  1.00  0.00     0.078 A 
BRANCH  18  19
HETATM   19  O1  UNK     1      17.840  -5.821  36.442  1.00  0.00    -0.355 OA
HETATM   20  C16 UNK     1      17.287  -6.974  35.811  1.00  0.00     0.210 C 
ENDBRANCH  18  19
ENDBRANCH   7  12
TORSDOF 2
ENDMDL
MODEL 5
REMARK VINA RESULT:      -7.3      1.623      2.134
REMARK  2 active torsions:
REMARK  status: ('A' for Active; 'I' for Inactive)
REMARK    1  A    between atoms: C8_12  and  O1_3 
REMARK    2  A    between atoms: C5_9  and  C6_10 
ROOT
HETATM    1  S1  UNK     1      11.567   8.142   9.387  1.00  0.00    -0.086 SA
HETATM    2  O2  UNK     1      12.196   6.386   6.010  1.00  0.00    -0.286 OA
HETATM    3  C1  UNK     1      10.327   6.946   7.365  1.00  0.00     0.032 A 
HETATM    4  C2  UNK     1      12.557   7.540   8.098  1.00  0.00     0.057 A 
HETATM    5  C3  UNK     1      10.091   7.577   8.584  1.00  0.00     0.020 A 
HETATM    6  C4  UNK     1      11.755   6.892   7.025  1.00  0.00     0.200 A 
HETATM    7  C6  UNK     1      13.887   7.632   8.045  1.00  0.00     0.037 C 
HETATM    8  C7  UNK     1       9.296   6.438   6.588  1.00  0.00     0.017 A 
HETATM    9  C9  UNK     1       8.793   7.713   9.057  1.00  0.00     0.020 A 
HETATM   10  C11 UNK     1       7.991   6.575   7.061  1.00  0.00     0.001 A 
HETATM   11  C12 UNK     1       7.741   7.208   8.287  1.00  0.00     0.001 A 
ENDROOT
BRANCH   7  12
HETATM   12  C5  UNK     1      14.750   8.256   9.065  1.00  0.00    -0.000 A 
HETATM   13  C10 UNK     1      15.183   9.557   8.853  1.00  0.00     0.033 A 
HETATM   14  C14 UNK     1      16.001  10.169   9.803  1.00  0.00     0.011 A 
HETATM   15 Br1  UNK     1      16.602  11.940   9.536  1.00  0.00    -0.051 Br
HETATM   16  C15 UNK     1      16.375   9.473  10.953  1.00  0.00     0.022 A 
HETATM   17  C13 UNK     1      15.932   8.164  11.152  1.00  0.00     0.039 A 
HETATM   18  C8  UNK     1      15.114   7.553  10.202  1.00  0.00     0.078 A 
BRANCH  18  19
HETATM   19  O1  UNK     1      14.696   6.274  10.421  1.00  0.00    -0.355 OA
HETATM   20  C16 UNK     1      15.524   5.228   9.921  1.00  0.00     0.210 C 
ENDBRANCH  18  19
ENDBRANCH   7  12
TORSDOF 2
ENDMDL
MODEL 6
REMARK VINA RESULT:      -7.2      3.353      7.096
REMARK  2 active torsions:
REMARK  status: ('A' for Active; 'I' for Inactive)
REMARK    1  A    between atoms: C8_12  and  O1_3 
REMARK    2  A    between atoms: C5_9  and  C6_10 
ROOT
HETATM    1  S1  UNK     1      12.795   7.610   9.468  1.00  0.00    -0.086 SA
HETATM    2  O2  UNK     1      14.928   4.396   9.430  1.00  0.00    -0.286 OA
HETATM    3  C1  UNK     1      15.276   6.717   9.793  1.00  0.00     0.032 A 
HETATM    4  C2  UNK     1      13.050   5.905   9.293  1.00  0.00     0.057 A 
HETATM    5  C3  UNK     1      14.513   7.883   9.808  1.00  0.00     0.020 A 
HETATM    6  C4  UNK     1      14.474   5.523   9.497  1.00  0.00     0.200 A 
HETATM    7  C6  UNK     1      12.100   5.012   9.010  1.00  0.00     0.037 C 
HETATM    8  C7  UNK     1      16.641   6.729  10.039  1.00  0.00     0.017 A 
HETATM    9  C9  UNK     1      15.116   9.105  10.072  1.00  0.00     0.020 A 
HETATM   10  C11 UNK     1      17.249   7.955  10.306  1.00  0.00     0.001 A 
HETATM   11  C12 UNK     1      16.492   9.136  10.322  1.00  0.00     0.001 A 
ENDROOT
BRANCH   7  12
HETATM   12  C5  UNK     1      10.672   5.310   8.795  1.00  0.00    -0.000 A 
HETATM   13  C10 UNK     1       9.790   5.093   9.843  1.00  0.00     0.033 A 
HETATM   14  C14 UNK     1       8.434   5.367   9.663  1.00  0.00     0.011 A 
HETATM   15 Br1  UNK     1       7.214   5.080  11.078  1.00  0.00    -0.051 Br
HETATM   16  C15 UNK     1       7.978   5.855   8.439  1.00  0.00     0.022 A 
HETATM   17  C13 UNK     1       8.877   6.068   7.393  1.00  0.00     0.039 A 
HETATM   18  C8  UNK     1      10.233   5.794   7.573  1.00  0.00     0.078 A 
BRANCH  18  19
HETATM   19  O1  UNK     1      11.090   6.010   6.535  1.00  0.00    -0.355 OA
HETATM   20  C16 UNK     1      10.664   6.921   5.524  1.00  0.00     0.210 C 
ENDBRANCH  18  19
ENDBRANCH   7  12
TORSDOF 2
ENDMDL
MODEL 7
REMARK VINA RESULT:      -7.2     23.139     25.049
REMARK  2 active torsions:
REMARK  status: ('A' for Active; 'I' for Inactive)
REMARK    1  A    between atoms: C8_12  and  O1_3 
REMARK    2  A    between atoms: C5_9  and  C6_10 
ROOT
HETATM    1  S1  UNK     1      15.987   7.116  32.978  1.00  0.00    -0.086 SA
HETATM    2  O2  UNK     1      18.938   9.338  34.091  1.00  0.00    -0.286 OA
HETATM    3  C1  UNK     1      16.591   9.567  33.805  1.00  0.00     0.032 A 
HETATM    4  C2  UNK     1      17.652   7.443  33.329  1.00  0.00     0.057 A 
HETATM    5  C3  UNK     1      15.519   8.772  33.404  1.00  0.00     0.020 A 
HETATM    6  C4  UNK     1      17.869   8.844  33.782  1.00  0.00     0.200 A 
HETATM    7  C6  UNK     1      18.647   6.562  33.217  1.00  0.00     0.037 C 
HETATM    8  C7  UNK     1      16.423  10.892  34.179  1.00  0.00     0.017 A 
HETATM    9  C9  UNK     1      14.237   9.301  33.367  1.00  0.00     0.020 A 
HETATM   10  C11 UNK     1      15.135  11.425  34.144  1.00  0.00     0.001 A 
HETATM   11  C12 UNK     1      14.049  10.635  33.740  1.00  0.00     0.001 A 
ENDROOT
BRANCH   7  12
HETATM   12  C5  UNK     1      18.514   5.161  32.777  1.00  0.00    -0.000 A 
HETATM   13  C10 UNK     1      18.336   4.182  33.743  1.00  0.00     0.033 A 
HETATM   14  C14 UNK     1      18.209   2.849  33.351  1.00  0.00     0.011 A 
HETATM   15 Br1  UNK     1      17.965   1.499  34.650  1.00  0.00    -0.051 Br
HETATM   16  C15 UNK     1      18.259   2.513  31.998  1.00  0.00     0.022 A 
HETATM   17  C13 UNK     1      18.438   3.508  31.037  1.00  0.00     0.039 A 
HETATM   18  C8  UNK     1      18.566   4.841  31.429  1.00  0.00     0.078 A 
BRANCH  18  19
HETATM   19  O1  UNK     1      18.741   5.794  30.470  1.00  0.00    -0.355 OA
HETATM   20  C16 UNK     1      20.057   5.951  29.947  1.00  0.00     0.210 C 
ENDBRANCH  18  19
ENDBRANCH   7  12
TORSDOF 2
ENDMDL
MODEL 8
REMARK VINA RESULT:      -7.1     23.959     26.083
REMARK  2 active torsions:
REMARK  status: ('A' for Active; 'I' for Inactive)
REMARK    1  A    between atoms: C8_12  and  O1_3 
REMARK    2  A    between atoms: C5_9  and  C6_10 
ROOT
HETATM    1  S1  UNK     1      18.207   2.766  34.786  1.00  0.00    -0.086 SA
HETATM    2  O2  UNK     1      17.925  -0.752  33.227  1.00  0.00    -0.286 OA
HETATM    3  C1  UNK     1      17.894   0.200  35.403  1.00  0.00     0.032 A 
HETATM    4  C2  UNK     1      18.165   1.637  33.472  1.00  0.00     0.057 A 
HETATM    5  C3  UNK     1      17.996   1.467  35.975  1.00  0.00     0.020 A 
HETATM    6  C4  UNK     1      17.986   0.235  33.937  1.00  0.00     0.200 A 
HETATM    7  C6  UNK     1      18.276   1.957  32.182  1.00  0.00     0.037 C 
HETATM    8  C7  UNK     1      17.723  -0.942  36.172  1.00  0.00     0.017 A 
HETATM    9  C9  UNK     1      17.930   1.615  37.353  1.00  0.00     0.020 A 
HETATM   10  C11 UNK     1      17.655  -0.795  37.557  1.00  0.00     0.001 A 
HETATM   11  C12 UNK     1      17.757   0.475  38.144  1.00  0.00     0.001 A 
ENDROOT
BRANCH   7  12
HETATM   12  C5  UNK     1      18.455   3.318  31.643  1.00  0.00    -0.000 A 
HETATM   13  C10 UNK     1      18.247   4.394  32.492  1.00  0.00     0.033 A 
HETATM   14  C14 UNK     1      18.410   5.691  32.004  1.00  0.00     0.011 A 
HETATM   15 Br1  UNK     1      18.134   7.173  33.144  1.00  0.00    -0.051 Br
HETATM   16  C15 UNK     1      18.780   5.895  30.674  1.00  0.00     0.022 A 
HETATM   17  C13 UNK     1      18.984   4.802  29.831  1.00  0.00     0.039 A 
HETATM   18  C8  UNK     1      18.822   3.505  30.319  1.00  0.00     0.078 A 
BRANCH  18  19
HETATM   19  O1  UNK     1      19.028   2.455  29.474  1.00  0.00    -0.355 OA
HETATM   20  C16 UNK     1      17.936   2.070  28.642  1.00  0.00     0.210 C 
ENDBRANCH  18  19
ENDBRANCH   7  12
TORSDOF 2
ENDMDL
MODEL 9
REMARK VINA RESULT:      -7.0     12.545     14.760
REMARK  2 active torsions:
REMARK  status: ('A' for Active; 'I' for Inactive)
REMARK    1  A    between atoms: C8_12  and  O1_3 
REMARK    2  A    between atoms: C5_9  and  C6_10 
ROOT
HETATM    1  S1  UNK     1      19.207  -1.398  17.917  1.00  0.00    -0.086 SA
HETATM    2  O2  UNK     1      19.216   1.113  14.989  1.00  0.00    -0.286 OA
HETATM    3  C1  UNK     1      19.117   1.198  17.361  1.00  0.00     0.032 A 
HETATM    4  C2  UNK     1      19.256  -0.947  16.245  1.00  0.00     0.057 A 
HETATM    5  C3  UNK     1      19.113   0.298  18.424  1.00  0.00     0.020 A 
HETATM    6  C4  UNK     1      19.200   0.528  16.056  1.00  0.00     0.200 A 
HETATM    7  C6  UNK     1      19.336  -1.800  15.222  1.00  0.00     0.037 C 
HETATM    8  C7  UNK     1      19.051   2.569  17.558  1.00  0.00     0.017 A 
HETATM    9  C9  UNK     1      19.038   0.764  19.729  1.00  0.00     0.020 A 
HETATM   10  C11 UNK     1      18.978   3.040  18.868  1.00  0.00     0.001 A 
HETATM   11  C12 UNK     1      18.971   2.144  19.947  1.00  0.00     0.001 A 
ENDROOT
BRANCH   7  12
HETATM   12  C5  UNK     1      19.396  -3.269  15.326  1.00  0.00    -0.000 A 
HETATM   13  C10 UNK     1      18.202  -3.971  15.409  1.00  0.00     0.033 A 
HETATM   14  C14 UNK     1      18.233  -5.363  15.508  1.00  0.00     0.011 A 
HETATM   15 Br1  UNK     1      16.620  -6.341  15.620  1.00  0.00    -0.051 Br
HETATM   16  C15 UNK     1      19.456  -6.034  15.523  1.00  0.00     0.022 A 
HETATM   17  C13 UNK     1      20.649  -5.314  15.440  1.00  0.00     0.039 A 
HETATM   18  C8  UNK     1      20.618  -3.923  15.341  1.00  0.00     0.078 A 
BRANCH  18  19
HETATM   19  O1  UNK     1      21.797  -3.244  15.261  1.00  0.00    -0.355 OA
HETATM   20  C16 UNK     1      22.806  -3.587  16.208  1.00  0.00     0.210 C 
ENDBRANCH  18  19
ENDBRANCH   7  12
TORSDOF 2
ENDMDL
MODEL 10
REMARK VINA RESULT:      -6.9     22.787     24.734
REMARK  2 active torsions:
REMARK  status: ('A' for Active; 'I' for Inactive)
REMARK    1  A    between atoms: C8_12  and  O1_3 
REMARK    2  A    between atoms: C5_9  and  C6_10 
ROOT
HETATM    1  S1  UNK     1      18.458   5.119  31.313  1.00  0.00    -0.086 SA
HETATM    2  O2  UNK     1      18.164   2.483  34.114  1.00  0.00    -0.286 OA
HETATM    3  C1  UNK     1      18.501   2.501  31.763  1.00  0.00     0.032 A 
HETATM    4  C2  UNK     1      18.245   4.595  32.951  1.00  0.00     0.057 A 
HETATM    5  C3  UNK     1      18.608   3.446  30.745  1.00  0.00     0.020 A 
HETATM    6  C4  UNK     1      18.288   3.114  33.081  1.00  0.00     0.200 A 
HETATM    7  C6  UNK     1      18.064   5.403  33.997  1.00  0.00     0.037 C 
HETATM    8  C7  UNK     1      18.595   1.139  31.514  1.00  0.00     0.017 A 
HETATM    9  C9  UNK     1      18.811   3.037  29.435  1.00  0.00     0.020 A 
HETATM   10  C11 UNK     1      18.800   0.726  30.199  1.00  0.00     0.001 A 
HETATM   11  C12 UNK     1      18.908   1.668  29.165  1.00  0.00     0.001 A 
ENDROOT
BRANCH   7  12
HETATM   12  C5  UNK     1      18.009   6.876  33.951  1.00  0.00    -0.000 A 
HETATM   13  C10 UNK     1      19.168   7.585  34.233  1.00  0.00     0.033 A 
HETATM   14  C14 UNK     1      19.141   8.980  34.196  1.00  0.00     0.011 A 
HETATM   15 Br1  UNK     1      20.707   9.968  34.574  1.00  0.00    -0.051 Br
HETATM   16  C15 UNK     1      17.957   9.647  33.878  1.00  0.00     0.022 A 
HETATM   17  C13 UNK     1      16.800   8.919  33.598  1.00  0.00     0.039 A 
HETATM   18  C8  UNK     1      16.827   7.525  33.634  1.00  0.00     0.078 A 
BRANCH  18  19
HETATM   19  O1  UNK     1      15.682   6.839  33.357  1.00  0.00    -0.355 OA
HETATM   20  C16 UNK     1      15.050   7.113  32.108  1.00  0.00     0.210 C 
ENDBRANCH  18  19
ENDBRANCH   7  12
TORSDOF 2
ENDMDL
