MODEL 1
REMARK VINA RESULT:     -10.0      0.000      0.000
REMARK  5 active torsions:
REMARK  status: ('A' for Active; 'I' for Inactive)
REMARK    1  A    between atoms: C13_21  and  O1_3 
REMARK    2  A    between atoms: C21_29  and  O1_3 
REMARK       I    between atoms: C15_23  and  N1_8 
REMARK    3  A    between atoms: C6_14  and  N1_8 
REMARK    4  A    between atoms: C13_21  and  C3_11 
REMARK    5  A    between atoms: C15_23  and  C16_24 
ROOT
HETATM    1  S1  UNK     1      21.312  -4.795  37.881  1.00  0.00    -0.075 SA
HETATM    2  C1  UNK     1      20.905  -7.200  37.071  1.00  0.00     0.006 A 
HETATM    3  C2  UNK     1      20.927  -8.641  37.068  1.00  0.00    -0.017 A 
HETATM    4  C3  UNK     1      20.341  -6.348  36.079  1.00  0.00     0.085 A 
HETATM    5  C4  UNK     1      21.467  -6.485  38.107  1.00  0.00    -0.007 A 
HETATM    6  C5  UNK     1      19.894  -9.376  37.645  1.00  0.00    -0.051 A 
HETATM    7  C6  UNK     1      20.501  -5.040  36.407  1.00  0.00     0.094 A 
HETATM    8  C7  UNK     1      22.006  -9.294  36.475  1.00  0.00     0.019 A 
HETATM    9  C8  UNK     1      22.051 -10.688  36.459  1.00  0.00    -0.061 A 
HETATM   10  C9  UNK     1      19.939 -10.770  37.630  1.00  0.00     0.008 A 
HETATM   11  C10 UNK     1      22.150  -6.977  39.328  1.00  0.00     0.057 C 
HETATM   12  C11 UNK     1      21.018 -11.425  37.037  1.00  0.00     0.007 A 
HETATM   13  C12 UNK     1      18.722  -8.709  38.290  1.00  0.00     0.049 C 
HETATM   14  C14 UNK     1      23.205 -11.391  35.827  1.00  0.00     0.048 C 
ENDROOT
BRANCH   7  15
HETATM   15  N1  UNK     1      20.107  -3.880  35.733  1.00  0.00    -0.316 N 
HETATM   16  C15 UNK     1      19.394  -2.820  36.274  1.00  0.00     0.262 C 
HETATM   17  O4  UNK     1      18.974  -2.685  37.423  1.00  0.00    -0.267 OA
HETATM   18  H7  UNK     1      20.372  -3.856  34.752  1.00  0.00     0.169 HD
BRANCH  16  19
HETATM   19  C16 UNK     1      19.150  -1.763  35.286  1.00  0.00     0.108 A 
HETATM   20  C18 UNK     1      19.598  -1.998  34.046  1.00  0.00     0.037 A 
HETATM   21  C17 UNK     1      19.403  -1.010  32.997  1.00  0.00     0.000 A 
HETATM   22  C19 UNK     1      18.747   0.177  33.303  1.00  0.00     0.089 A 
HETATM   23  C22 UNK     1      19.855  -1.213  31.690  1.00  0.00     0.033 A 
HETATM   24  O2  UNK     1      18.278   0.419  34.609  1.00  0.00    -0.274 OA
HETATM   25  C23 UNK     1      18.530   1.165  32.345  1.00  0.00     0.039 A 
HETATM   26  C20 UNK     1      18.449  -0.507  35.634  1.00  0.00     0.304 A 
HETATM   27  O5  UNK     1      18.038  -0.289  36.768  1.00  0.00    -0.259 OA
HETATM   28  C25 UNK     1      18.982   0.954  31.044  1.00  0.00     0.022 A 
HETATM   29  C24 UNK     1      19.643  -0.232  30.717  1.00  0.00     0.011 A 
HETATM   30 Br1  UNK     1      20.254  -0.512  28.949  1.00  0.00    -0.051 Br
ENDBRANCH  16  19
ENDBRANCH   7  15
BRANCH   4  31
HETATM   31  C13 UNK     1      19.681  -6.784  34.873  1.00  0.00     0.297 C 
HETATM   32  O3  UNK     1      20.130  -6.636  33.721  1.00  0.00    -0.259 OA
BRANCH  31  33
HETATM   33  O1  UNK     1      18.482  -7.398  35.135  1.00  0.00    -0.318 OA
BRANCH  33  34
HETATM   34  C21 UNK     1      17.496  -6.640  35.845  1.00  0.00     0.174 C 
HETATM   35  C26 UNK     1      16.122  -7.014  35.332  1.00  0.00     0.034 C 
ENDBRANCH  33  34
ENDBRANCH  31  33
ENDBRANCH   4  31
TORSDOF 5
ENDMDL
MODEL 2
REMARK VINA RESULT:      -9.3      7.891     10.947
REMARK  5 active torsions:
REMARK  status: ('A' for Active; 'I' for Inactive)
REMARK    1  A    between atoms: C13_21  and  O1_3 
REMARK    2  A    between atoms: C21_29  and  O1_3 
REMARK       I    between atoms: C15_23  and  N1_8 
REMARK    3  A    between atoms: C6_14  and  N1_8 
REMARK    4  A    between atoms: C13_21  and  C3_11 
REMARK    5  A    between atoms: C15_23  and  C16_24 
ROOT
HETATM    1  S1  UNK     1      28.051  -5.860  38.474  1.00  0.00    -0.075 SA
HETATM    2  C1  UNK     1      30.238  -6.324  37.208  1.00  0.00     0.006 A 
HETATM    3  C2  UNK     1      31.622  -6.207  36.825  1.00  0.00    -0.017 A 
HETATM    4  C3  UNK     1      29.268  -7.214  36.662  1.00  0.00     0.085 A 
HETATM    5  C4  UNK     1      29.709  -5.531  38.204  1.00  0.00    -0.007 A 
HETATM    6  C5  UNK     1      32.607  -6.971  37.447  1.00  0.00    -0.051 A 
HETATM    7  C6  UNK     1      28.061  -7.053  37.264  1.00  0.00     0.094 A 
HETATM    8  C7  UNK     1      31.964  -5.310  35.814  1.00  0.00     0.019 A 
HETATM    9  C8  UNK     1      33.298  -5.178  35.424  1.00  0.00    -0.061 A 
HETATM   10  C9  UNK     1      33.940  -6.838  37.058  1.00  0.00     0.008 A 
HETATM   11  C10 UNK     1      30.367  -4.485  39.023  1.00  0.00     0.057 C 
HETATM   12  C11 UNK     1      34.285  -5.941  36.047  1.00  0.00     0.007 A 
HETATM   13  C12 UNK     1      32.276  -7.942  38.534  1.00  0.00     0.049 C 
HETATM   14  C14 UNK     1      33.668  -4.218  34.345  1.00  0.00     0.048 C 
ENDROOT
BRANCH   7  15
HETATM   15  N1  UNK     1      26.845  -7.705  37.046  1.00  0.00    -0.316 N 
HETATM   16  C15 UNK     1      26.398  -8.845  37.700  1.00  0.00     0.262 C 
HETATM   17  O4  UNK     1      26.961  -9.495  38.580  1.00  0.00    -0.267 OA
HETATM   18  H7  UNK     1      26.268  -7.286  36.321  1.00  0.00     0.169 HD
BRANCH  16  19
HETATM   19  C16 UNK     1      25.074  -9.264  37.226  1.00  0.00     0.108 A 
HETATM   20  C18 UNK     1      24.046  -8.475  37.566  1.00  0.00     0.037 A 
HETATM   21  C17 UNK     1      22.696  -8.808  37.142  1.00  0.00     0.000 A 
HETATM   22  C19 UNK     1      22.492  -9.955  36.382  1.00  0.00     0.089 A 
HETATM   23  C22 UNK     1      21.595  -8.014  37.475  1.00  0.00     0.033 A 
HETATM   24  O2  UNK     1      23.576 -10.780  36.027  1.00  0.00    -0.274 OA
HETATM   25  C23 UNK     1      21.223 -10.330  35.945  1.00  0.00     0.039 A 
HETATM   26  C20 UNK     1      24.880 -10.488  36.417  1.00  0.00     0.304 A 
HETATM   27  O5  UNK     1      25.818 -11.212  36.104  1.00  0.00    -0.259 OA
HETATM   28  C25 UNK     1      20.130  -9.533  36.280  1.00  0.00     0.022 A 
HETATM   29  C24 UNK     1      20.316  -8.378  37.043  1.00  0.00     0.011 A 
HETATM   30 Br1  UNK     1      18.829  -7.300  37.494  1.00  0.00    -0.051 Br
ENDBRANCH  16  19
ENDBRANCH   7  15
BRANCH   4  31
HETATM   31  C13 UNK     1      29.504  -8.169  35.608  1.00  0.00     0.297 C 
HETATM   32  O3  UNK     1      30.297  -9.127  35.678  1.00  0.00    -0.259 OA
BRANCH  31  33
HETATM   33  O1  UNK     1      28.744  -7.908  34.496  1.00  0.00    -0.318 OA
BRANCH  33  34
HETATM   34  C21 UNK     1      29.119  -6.787  33.690  1.00  0.00     0.174 C 
HETATM   35  C26 UNK     1      27.880  -6.206  33.043  1.00  0.00     0.034 C 
ENDBRANCH  33  34
ENDBRANCH  31  33
ENDBRANCH   4  31
TORSDOF 5
ENDMDL
MODEL 3
REMARK VINA RESULT:      -9.2     12.347     15.707
REMARK  5 active torsions:
REMARK  status: ('A' for Active; 'I' for Inactive)
REMARK    1  A    between atoms: C13_21  and  O1_3 
REMARK    2  A    between atoms: C21_29  and  O1_3 
REMARK       I    between atoms: C15_23  and  N1_8 
REMARK    3  A    between atoms: C6_14  and  N1_8 
REMARK    4  A    between atoms: C13_21  and  C3_11 
REMARK    5  A    between atoms: C15_23  and  C16_24 
ROOT
HETATM    1  S1  UNK     1      30.559  -7.313  32.757  1.00  0.00    -0.075 SA
HETATM    2  C1  UNK     1      30.306  -7.241  35.313  1.00  0.00     0.006 A 
HETATM    3  C2  UNK     1      29.704  -6.997  36.600  1.00  0.00    -0.017 A 
HETATM    4  C3  UNK     1      31.590  -7.803  35.059  1.00  0.00     0.085 A 
HETATM    5  C4  UNK     1      29.638  -6.929  34.149  1.00  0.00    -0.007 A 
HETATM    6  C5  UNK     1      28.923  -7.968  37.223  1.00  0.00    -0.051 A 
HETATM    7  C6  UNK     1      31.832  -7.888  33.725  1.00  0.00     0.094 A 
HETATM    8  C7  UNK     1      29.916  -5.766  37.217  1.00  0.00     0.019 A 
HETATM    9  C8  UNK     1      29.344  -5.504  38.463  1.00  0.00    -0.061 A 
HETATM   10  C9  UNK     1      28.351  -7.708  38.469  1.00  0.00     0.008 A 
HETATM   11  C10 UNK     1      28.293  -6.335  33.966  1.00  0.00     0.057 C 
HETATM   12  C11 UNK     1      28.562  -6.476  39.087  1.00  0.00     0.007 A 
HETATM   13  C12 UNK     1      28.676  -9.300  36.591  1.00  0.00     0.049 C 
HETATM   14  C14 UNK     1      29.566  -4.187  39.125  1.00  0.00     0.048 C 
ENDROOT
BRANCH   7  15
HETATM   15  N1  UNK     1      32.949  -8.369  33.035  1.00  0.00    -0.316 N 
HETATM   16  C15 UNK     1      34.115  -7.663  32.772  1.00  0.00     0.262 C 
HETATM   17  O4  UNK     1      34.398  -6.506  33.081  1.00  0.00    -0.267 OA
HETATM   18  H7  UNK     1      32.853  -9.322  32.695  1.00  0.00     0.169 HD
BRANCH  16  19
HETATM   19  C16 UNK     1      35.086  -8.470  32.024  1.00  0.00     0.108 A 
HETATM   20  C18 UNK     1      36.174  -8.862  32.699  1.00  0.00     0.037 A 
HETATM   21  C17 UNK     1      37.193  -9.665  32.044  1.00  0.00     0.000 A 
HETATM   22  C19 UNK     1      37.017 -10.018  30.710  1.00  0.00     0.089 A 
HETATM   23  C22 UNK     1      38.345 -10.094  32.709  1.00  0.00     0.033 A 
HETATM   24  O2  UNK     1      35.871  -9.605  30.005  1.00  0.00    -0.274 OA
HETATM   25  C23 UNK     1      37.957 -10.786  30.023  1.00  0.00     0.039 A 
HETATM   26  C20 UNK     1      34.878  -8.835  30.605  1.00  0.00     0.304 A 
HETATM   27  O5  UNK     1      33.882  -8.479  29.984  1.00  0.00    -0.259 OA
HETATM   28  C25 UNK     1      39.102 -11.210  30.694  1.00  0.00     0.022 A 
HETATM   29  C24 UNK     1      39.295 -10.866  32.033  1.00  0.00     0.011 A 
HETATM   30 Br1  UNK     1      40.851 -11.446  32.938  1.00  0.00    -0.051 Br
ENDBRANCH  16  19
ENDBRANCH   7  15
BRANCH   4  31
HETATM   31  C13 UNK     1      32.533  -8.233  36.062  1.00  0.00     0.297 C 
HETATM   32  O3  UNK     1      32.387  -9.226  36.798  1.00  0.00    -0.259 OA
BRANCH  31  33
HETATM   33  O1  UNK     1      33.633  -7.415  36.119  1.00  0.00    -0.318 OA
BRANCH  33  34
HETATM   34  C21 UNK     1      34.116  -7.049  37.416  1.00  0.00     0.174 C 
HETATM   35  C26 UNK     1      33.483  -5.737  37.827  1.00  0.00     0.034 C 
ENDBRANCH  33  34
ENDBRANCH  31  33
ENDBRANCH   4  31
TORSDOF 5
ENDMDL
MODEL 4
REMARK VINA RESULT:      -9.1      8.066     10.828
REMARK  5 active torsions:
REMARK  status: ('A' for Active; 'I' for Inactive)
REMARK    1  A    between atoms: C13_21  and  O1_3 
REMARK    2  A    between atoms: C21_29  and  O1_3 
REMARK       I    between atoms: C15_23  and  N1_8 
REMARK    3  A    between atoms: C6_14  and  N1_8 
REMARK    4  A    between atoms: C13_21  and  C3_11 
REMARK    5  A    between atoms: C15_23  and  C16_24 
ROOT
HETATM    1  S1  UNK     1      30.046  -5.037  37.197  1.00  0.00    -0.075 SA
HETATM    2  C1  UNK     1      31.013  -6.783  35.577  1.00  0.00     0.006 A 
HETATM    3  C2  UNK     1      31.968  -7.444  34.724  1.00  0.00    -0.017 A 
HETATM    4  C3  UNK     1      29.673  -7.188  35.841  1.00  0.00     0.085 A 
HETATM    5  C4  UNK     1      31.346  -5.628  36.251  1.00  0.00    -0.007 A 
HETATM    6  C5  UNK     1      32.823  -8.422  35.227  1.00  0.00    -0.051 A 
HETATM    7  C6  UNK     1      29.060  -6.328  36.695  1.00  0.00     0.094 A 
HETATM    8  C7  UNK     1      32.025  -7.087  33.378  1.00  0.00     0.019 A 
HETATM    9  C8  UNK     1      32.942  -7.712  32.532  1.00  0.00    -0.061 A 
HETATM   10  C9  UNK     1      33.739  -9.048  34.381  1.00  0.00     0.008 A 
HETATM   11  C10 UNK     1      32.624  -4.876  36.256  1.00  0.00     0.057 C 
HETATM   12  C11 UNK     1      33.798  -8.692  33.034  1.00  0.00     0.007 A 
HETATM   13  C12 UNK     1      32.789  -8.831  36.665  1.00  0.00     0.049 C 
HETATM   14  C14 UNK     1      33.008  -7.331  31.091  1.00  0.00     0.048 C 
ENDROOT
BRANCH   7  15
HETATM   15  N1  UNK     1      27.763  -6.338  37.217  1.00  0.00    -0.316 N 
HETATM   16  C15 UNK     1      27.256  -7.252  38.130  1.00  0.00     0.262 C 
HETATM   17  O4  UNK     1      27.822  -8.211  38.651  1.00  0.00    -0.267 OA
HETATM   18  H7  UNK     1      27.161  -5.601  36.859  1.00  0.00     0.169 HD
BRANCH  16  19
HETATM   19  C16 UNK     1      25.855  -6.969  38.466  1.00  0.00     0.108 A 
HETATM   20  C18 UNK     1      24.995  -7.985  38.322  1.00  0.00     0.037 A 
HETATM   21  C17 UNK     1      23.586  -7.802  38.630  1.00  0.00     0.000 A 
HETATM   22  C19 UNK     1      23.151  -6.558  39.075  1.00  0.00     0.089 A 
HETATM   23  C22 UNK     1      22.654  -8.834  38.493  1.00  0.00     0.033 A 
HETATM   24  O2  UNK     1      24.059  -5.493  39.226  1.00  0.00    -0.274 OA
HETATM   25  C23 UNK     1      21.814  -6.317  39.387  1.00  0.00     0.039 A 
HETATM   26  C20 UNK     1      25.414  -5.637  38.939  1.00  0.00     0.304 A 
HETATM   27  O5  UNK     1      26.199  -4.705  39.073  1.00  0.00    -0.259 OA
HETATM   28  C25 UNK     1      20.891  -7.351  39.248  1.00  0.00     0.022 A 
HETATM   29  C24 UNK     1      21.310  -8.606  38.803  1.00  0.00     0.011 A 
HETATM   30 Br1  UNK     1      20.052 -10.007  38.617  1.00  0.00    -0.051 Br
ENDBRANCH  16  19
ENDBRANCH   7  15
BRANCH   4  31
HETATM   31  C13 UNK     1      29.023  -8.352  35.290  1.00  0.00     0.297 C 
HETATM   32  O3  UNK     1      29.312  -9.529  35.572  1.00  0.00    -0.259 OA
BRANCH  31  33
HETATM   33  O1  UNK     1      28.029  -8.016  34.406  1.00  0.00    -0.318 OA
BRANCH  33  34
HETATM   34  C21 UNK     1      28.427  -7.598  33.096  1.00  0.00     0.174 C 
HETATM   35  C26 UNK     1      27.900  -6.202  32.840  1.00  0.00     0.034 C 
ENDBRANCH  33  34
ENDBRANCH  31  33
ENDBRANCH   4  31
TORSDOF 5
ENDMDL
MODEL 5
REMARK VINA RESULT:      -9.0     28.899     32.601
REMARK  5 active torsions:
REMARK  status: ('A' for Active; 'I' for Inactive)
REMARK    1  A    between atoms: C13_21  and  O1_3 
REMARK    2  A    between atoms: C21_29  and  O1_3 
REMARK       I    between atoms: C15_23  and  N1_8 
REMARK    3  A    between atoms: C6_14  and  N1_8 
REMARK    4  A    between atoms: C13_21  and  C3_11 
REMARK    5  A    between atoms: C15_23  and  C16_24 
ROOT
HETATM    1  S1  UNK     1      19.738  11.625  10.470  1.00  0.00    -0.075 SA
HETATM    2  C1  UNK     1      19.815  13.374   8.589  1.00  0.00     0.006 A 
HETATM    3  C2  UNK     1      20.215  14.553   7.863  1.00  0.00    -0.017 A 
HETATM    4  C3  UNK     1      18.849  12.407   8.190  1.00  0.00     0.085 A 
HETATM    5  C4  UNK     1      20.376  13.071   9.811  1.00  0.00    -0.007 A 
HETATM    6  C5  UNK     1      21.269  14.513   6.953  1.00  0.00    -0.051 A 
HETATM    7  C6  UNK     1      18.725  11.425   9.120  1.00  0.00     0.094 A 
HETATM    8  C7  UNK     1      19.526  15.744   8.085  1.00  0.00     0.019 A 
HETATM    9  C8  UNK     1      19.894  16.900   7.395  1.00  0.00    -0.061 A 
HETATM   10  C9  UNK     1      21.637  15.668   6.263  1.00  0.00     0.008 A 
HETATM   11  C10 UNK     1      21.409  13.805  10.580  1.00  0.00     0.057 C 
HETATM   12  C11 UNK     1      20.950  16.861   6.484  1.00  0.00     0.007 A 
HETATM   13  C12 UNK     1      22.029  13.253   6.689  1.00  0.00     0.049 C 
HETATM   14  C14 UNK     1      19.161  18.177   7.632  1.00  0.00     0.048 C 
ENDROOT
BRANCH   7  15
HETATM   15  N1  UNK     1      17.906  10.292   9.140  1.00  0.00    -0.316 N 
HETATM   16  C15 UNK     1      16.717  10.154   9.842  1.00  0.00     0.262 C 
HETATM   17  O4  UNK     1      16.155  10.973  10.569  1.00  0.00    -0.267 OA
HETATM   18  H7  UNK     1      18.257   9.512   8.591  1.00  0.00     0.169 HD
BRANCH  16  19
HETATM   19  C16 UNK     1      16.113   8.832   9.639  1.00  0.00     0.108 A 
HETATM   20  C18 UNK     1      14.904   8.816   9.064  1.00  0.00     0.037 A 
HETATM   21  C17 UNK     1      14.224   7.554   8.821  1.00  0.00     0.000 A 
HETATM   22  C19 UNK     1      14.850   6.369   9.196  1.00  0.00     0.089 A 
HETATM   23  C22 UNK     1      12.963   7.490   8.224  1.00  0.00     0.033 A 
HETATM   24  O2  UNK     1      16.122   6.392   9.800  1.00  0.00    -0.274 OA
HETATM   25  C23 UNK     1      14.253   5.127   8.992  1.00  0.00     0.039 A 
HETATM   26  C20 UNK     1      16.797   7.584  10.046  1.00  0.00     0.304 A 
HETATM   27  O5  UNK     1      17.904   7.595  10.573  1.00  0.00    -0.259 OA
HETATM   28  C25 UNK     1      12.995   5.072   8.396  1.00  0.00     0.022 A 
HETATM   29  C24 UNK     1      12.352   6.250   8.012  1.00  0.00     0.011 A 
HETATM   30 Br1  UNK     1      10.644   6.170   7.202  1.00  0.00    -0.051 Br
ENDBRANCH  16  19
ENDBRANCH   7  15
BRANCH   4  31
HETATM   31  C13 UNK     1      18.085  12.437   6.966  1.00  0.00     0.297 C 
HETATM   32  O3  UNK     1      18.568  12.345   5.823  1.00  0.00    -0.259 OA
BRANCH  31  33
HETATM   33  O1  UNK     1      16.741  12.577   7.202  1.00  0.00    -0.318 OA
BRANCH  33  34
HETATM   34  C21 UNK     1      16.281  13.857   7.648  1.00  0.00     0.174 C 
HETATM   35  C26 UNK     1      16.258  14.811   6.473  1.00  0.00     0.034 C 
ENDBRANCH  33  34
ENDBRANCH  31  33
ENDBRANCH   4  31
TORSDOF 5
ENDMDL
MODEL 6
REMARK VINA RESULT:      -8.9     28.376     30.772
REMARK  5 active torsions:
REMARK  status: ('A' for Active; 'I' for Inactive)
REMARK    1  A    between atoms: C13_21  and  O1_3 
REMARK    2  A    between atoms: C21_29  and  O1_3 
REMARK       I    between atoms: C15_23  and  N1_8 
REMARK    3  A    between atoms: C6_14  and  N1_8 
REMARK    4  A    between atoms: C13_21  and  C3_11 
REMARK    5  A    between atoms: C15_23  and  C16_24 
ROOT
HETATM    1  S1  UNK     1      17.115   7.616  10.275  1.00  0.00    -0.075 SA
HETATM    2  C1  UNK     1      14.790   8.213   9.357  1.00  0.00     0.006 A 
HETATM    3  C2  UNK     1      13.397   8.062   9.019  1.00  0.00    -0.017 A 
HETATM    4  C3  UNK     1      15.613   9.351   9.120  1.00  0.00     0.085 A 
HETATM    5  C4  UNK     1      15.481   7.196   9.979  1.00  0.00    -0.007 A 
HETATM    6  C5  UNK     1      12.397   8.431   9.916  1.00  0.00    -0.051 A 
HETATM    7  C6  UNK     1      16.877   9.144   9.570  1.00  0.00     0.094 A 
HETATM    8  C7  UNK     1      13.061   7.539   7.772  1.00  0.00     0.019 A 
HETATM    9  C8  UNK     1      11.720   7.383   7.420  1.00  0.00    -0.061 A 
HETATM   10  C9  UNK     1      11.055   8.276   9.566  1.00  0.00     0.008 A 
HETATM   11  C10 UNK     1      15.007   5.856  10.401  1.00  0.00     0.057 C 
HETATM   12  C11 UNK     1      10.718   7.751   8.318  1.00  0.00     0.007 A 
HETATM   13  C12 UNK     1      12.720   8.997  11.262  1.00  0.00     0.049 C 
HETATM   14  C14 UNK     1      11.357   6.821   6.088  1.00  0.00     0.048 C 
ENDROOT
BRANCH   7  15
HETATM   15  N1  UNK     1      17.998   9.980   9.544  1.00  0.00    -0.316 N 
HETATM   16  C15 UNK     1      18.159  11.155  10.265  1.00  0.00     0.262 C 
HETATM   17  O4  UNK     1      17.376  11.687  11.050  1.00  0.00    -0.267 OA
HETATM   18  H7  UNK     1      18.734   9.674   8.914  1.00  0.00     0.169 HD
BRANCH  16  19
HETATM   19  C16 UNK     1      19.459  11.784  10.001  1.00  0.00     0.108 A 
HETATM   20  C18 UNK     1      20.315  11.827  11.030  1.00  0.00     0.037 A 
HETATM   21  C17 UNK     1      21.628  12.430  10.867  1.00  0.00     0.000 A 
HETATM   22  C19 UNK     1      21.976  12.959   9.628  1.00  0.00     0.089 A 
HETATM   23  C22 UNK     1      22.551  12.497  11.913  1.00  0.00     0.033 A 
HETATM   24  O2  UNK     1      21.073  12.910   8.549  1.00  0.00    -0.274 OA
HETATM   25  C23 UNK     1      23.218  13.551   9.406  1.00  0.00     0.039 A 
HETATM   26  C20 UNK     1      19.809  12.339   8.674  1.00  0.00     0.304 A 
HETATM   27  O5  UNK     1      19.028  12.301   7.730  1.00  0.00    -0.259 OA
HETATM   28  C25 UNK     1      24.133  13.614  10.453  1.00  0.00     0.022 A 
HETATM   29  C24 UNK     1      23.801  13.088  11.704  1.00  0.00     0.011 A 
HETATM   30 Br1  UNK     1      25.049  13.176  13.123  1.00  0.00    -0.051 Br
ENDBRANCH  16  19
ENDBRANCH   7  15
BRANCH   4  31
HETATM   31  C13 UNK     1      15.190  10.576   8.487  1.00  0.00     0.297 C 
HETATM   32  O3  UNK     1      15.390  10.868   7.293  1.00  0.00    -0.259 OA
BRANCH  31  33
HETATM   33  O1  UNK     1      14.527  11.404   9.358  1.00  0.00    -0.318 OA
BRANCH  33  34
HETATM   34  C21 UNK     1      14.632  12.814   9.136  1.00  0.00     0.174 C 
HETATM   35  C26 UNK     1      13.452  13.506   9.784  1.00  0.00     0.034 C 
ENDBRANCH  33  34
ENDBRANCH  31  33
ENDBRANCH   4  31
TORSDOF 5
ENDMDL
MODEL 7
REMARK VINA RESULT:      -8.9      7.884     10.738
REMARK  5 active torsions:
REMARK  status: ('A' for Active; 'I' for Inactive)
REMARK    1  A    between atoms: C13_21  and  O1_3 
REMARK    2  A    between atoms: C21_29  and  O1_3 
REMARK       I    between atoms: C15_23  and  N1_8 
REMARK    3  A    between atoms: C6_14  and  N1_8 
REMARK    4  A    between atoms: C13_21  and  C3_11 
REMARK    5  A    between atoms: C15_23  and  C16_24 
ROOT
HETATM    1  S1  UNK     1      28.954  -9.524  38.366  1.00  0.00    -0.075 SA
HETATM    2  C1  UNK     1      30.631  -8.390  36.784  1.00  0.00     0.006 A 
HETATM    3  C2  UNK     1      31.863  -8.150  36.076  1.00  0.00    -0.017 A 
HETATM    4  C3  UNK     1      29.432  -7.624  36.704  1.00  0.00     0.085 A 
HETATM    5  C4  UNK     1      30.509  -9.453  37.652  1.00  0.00    -0.007 A 
HETATM    6  C5  UNK     1      32.097  -8.720  34.827  1.00  0.00    -0.051 A 
HETATM    7  C6  UNK     1      28.467  -8.139  37.509  1.00  0.00     0.094 A 
HETATM    8  C7  UNK     1      32.827  -7.332  36.665  1.00  0.00     0.019 A 
HETATM    9  C8  UNK     1      34.028  -7.085  36.000  1.00  0.00    -0.061 A 
HETATM   10  C9  UNK     1      33.298  -8.473  34.162  1.00  0.00     0.008 A 
HETATM   11  C10 UNK     1      31.506 -10.485  38.023  1.00  0.00     0.057 C 
HETATM   12  C11 UNK     1      34.263  -7.656  34.750  1.00  0.00     0.007 A 
HETATM   13  C12 UNK     1      31.086  -9.601  34.166  1.00  0.00     0.049 C 
HETATM   14  C14 UNK     1      35.063  -6.213  36.628  1.00  0.00     0.048 C 
ENDROOT
BRANCH   7  15
HETATM   15  N1  UNK     1      27.155  -7.715  37.739  1.00  0.00    -0.316 N 
HETATM   16  C15 UNK     1      26.353  -8.078  38.811  1.00  0.00     0.262 C 
HETATM   17  O4  UNK     1      26.621  -8.825  39.752  1.00  0.00    -0.267 OA
HETATM   18  H7  UNK     1      26.784  -7.096  37.023  1.00  0.00     0.169 HD
BRANCH  16  19
HETATM   19  C16 UNK     1      25.029  -7.448  38.743  1.00  0.00     0.108 A 
HETATM   20  C18 UNK     1      23.987  -8.275  38.594  1.00  0.00     0.037 A 
HETATM   21  C17 UNK     1      22.636  -7.745  38.516  1.00  0.00     0.000 A 
HETATM   22  C19 UNK     1      22.447  -6.369  38.599  1.00  0.00     0.089 A 
HETATM   23  C22 UNK     1      21.520  -8.571  38.359  1.00  0.00     0.033 A 
HETATM   24  O2  UNK     1      23.546  -5.504  38.756  1.00  0.00    -0.274 OA
HETATM   25  C23 UNK     1      21.178  -5.797  38.530  1.00  0.00     0.039 A 
HETATM   26  C20 UNK     1      24.852  -5.981  38.834  1.00  0.00     0.304 A 
HETATM   27  O5  UNK     1      25.803  -5.221  38.971  1.00  0.00    -0.259 OA
HETATM   28  C25 UNK     1      20.070  -6.627  38.374  1.00  0.00     0.022 A 
HETATM   29  C24 UNK     1      20.240  -8.011  38.290  1.00  0.00     0.011 A 
HETATM   30 Br1  UNK     1      18.733  -9.133  38.080  1.00  0.00    -0.051 Br
ENDBRANCH  16  19
ENDBRANCH   7  15
BRANCH   4  31
HETATM   31  C13 UNK     1      29.237  -6.452  35.887  1.00  0.00     0.297 C 
HETATM   32  O3  UNK     1      28.509  -6.400  34.878  1.00  0.00    -0.259 OA
BRANCH  31  33
HETATM   33  O1  UNK     1      29.951  -5.376  36.350  1.00  0.00    -0.318 OA
BRANCH  33  34
HETATM   34  C21 UNK     1      29.633  -4.889  37.658  1.00  0.00     0.174 C 
HETATM   35  C26 UNK     1      30.915  -4.710  38.444  1.00  0.00     0.034 C 
ENDBRANCH  33  34
ENDBRANCH  31  33
ENDBRANCH   4  31
TORSDOF 5
ENDMDL
MODEL 8
REMARK VINA RESULT:      -8.8     12.436     15.870
REMARK  5 active torsions:
REMARK  status: ('A' for Active; 'I' for Inactive)
REMARK    1  A    between atoms: C13_21  and  O1_3 
REMARK    2  A    between atoms: C21_29  and  O1_3 
REMARK       I    between atoms: C15_23  and  N1_8 
REMARK    3  A    between atoms: C6_14  and  N1_8 
REMARK    4  A    between atoms: C13_21  and  C3_11 
REMARK    5  A    between atoms: C15_23  and  C16_24 
ROOT
HETATM    1  S1  UNK     1      31.177  -7.537  33.509  1.00  0.00    -0.075 SA
HETATM    2  C1  UNK     1      30.610  -7.230  35.996  1.00  0.00     0.006 A 
HETATM    3  C2  UNK     1      29.849  -6.884  37.170  1.00  0.00    -0.017 A 
HETATM    4  C3  UNK     1      31.927  -7.769  35.955  1.00  0.00     0.085 A 
HETATM    5  C4  UNK     1      30.083  -7.054  34.734  1.00  0.00    -0.007 A 
HETATM    6  C5  UNK     1      29.019  -7.817  37.788  1.00  0.00    -0.051 A 
HETATM    7  C6  UNK     1      32.334  -7.974  34.675  1.00  0.00     0.094 A 
HETATM    8  C7  UNK     1      29.956  -5.593  37.683  1.00  0.00     0.019 A 
HETATM    9  C8  UNK     1      29.230  -5.233  38.819  1.00  0.00    -0.061 A 
HETATM   10  C9  UNK     1      28.293  -7.458  38.924  1.00  0.00     0.008 A 
HETATM   11  C10 UNK     1      28.758  -6.525  34.333  1.00  0.00     0.057 C 
HETATM   12  C11 UNK     1      28.398  -6.166  39.438  1.00  0.00     0.007 A 
HETATM   13  C12 UNK     1      28.881  -9.211  37.266  1.00  0.00     0.049 C 
HETATM   14  C14 UNK     1      29.340  -3.852  39.369  1.00  0.00     0.048 C 
ENDROOT
BRANCH   7  15
HETATM   15  N1  UNK     1      33.537  -8.480  34.175  1.00  0.00    -0.316 N 
HETATM   16  C15 UNK     1      34.474  -7.777  33.430  1.00  0.00     0.262 C 
HETATM   17  O4  UNK     1      34.442  -6.601  33.068  1.00  0.00    -0.267 OA
HETATM   18  H7  UNK     1      33.697  -9.462  34.382  1.00  0.00     0.169 HD
BRANCH  16  19
HETATM   19  C16 UNK     1      35.624  -8.614  33.067  1.00  0.00     0.108 A 
HETATM   20  C18 UNK     1      35.411  -9.530  32.114  1.00  0.00     0.037 A 
HETATM   21  C17 UNK     1      36.489 -10.407  31.687  1.00  0.00     0.000 A 
HETATM   22  C19 UNK     1      37.739 -10.277  32.283  1.00  0.00     0.089 A 
HETATM   23  C22 UNK     1      36.311 -11.377  30.697  1.00  0.00     0.033 A 
HETATM   24  O2  UNK     1      37.958  -9.311  33.284  1.00  0.00    -0.274 OA
HETATM   25  C23 UNK     1      38.813 -11.086  31.919  1.00  0.00     0.039 A 
HETATM   26  C20 UNK     1      36.945  -8.458  33.715  1.00  0.00     0.304 A 
HETATM   27  O5  UNK     1      37.144  -7.620  34.587  1.00  0.00    -0.259 OA
HETATM   28  C25 UNK     1      38.628 -12.051  30.931  1.00  0.00     0.022 A 
HETATM   29  C24 UNK     1      37.381 -12.196  30.321  1.00  0.00     0.011 A 
HETATM   30 Br1  UNK     1      37.136 -13.506  28.980  1.00  0.00    -0.051 Br
ENDBRANCH  16  19
ENDBRANCH   7  15
BRANCH   4  31
HETATM   31  C13 UNK     1      32.749  -8.069  37.102  1.00  0.00     0.297 C 
HETATM   32  O3  UNK     1      32.352  -8.644  38.132  1.00  0.00    -0.259 OA
BRANCH  31  33
HETATM   33  O1  UNK     1      34.043  -7.646  36.932  1.00  0.00    -0.318 OA
BRANCH  33  34
HETATM   34  C21 UNK     1      34.401  -6.379  37.493  1.00  0.00     0.174 C 
HETATM   35  C26 UNK     1      34.944  -5.488  36.396  1.00  0.00     0.034 C 
ENDBRANCH  33  34
ENDBRANCH  31  33
ENDBRANCH   4  31
TORSDOF 5
ENDMDL
MODEL 9
REMARK VINA RESULT:      -8.8     29.347     32.502
REMARK  5 active torsions:
REMARK  status: ('A' for Active; 'I' for Inactive)
REMARK    1  A    between atoms: C13_21  and  O1_3 
REMARK    2  A    between atoms: C21_29  and  O1_3 
REMARK       I    between atoms: C15_23  and  N1_8 
REMARK    3  A    between atoms: C6_14  and  N1_8 
REMARK    4  A    between atoms: C13_21  and  C3_11 
REMARK    5  A    between atoms: C15_23  and  C16_24 
ROOT
HETATM    1  S1  UNK     1      15.369  13.303   7.777  1.00  0.00    -0.075 SA
HETATM    2  C1  UNK     1      17.863  13.872   8.016  1.00  0.00     0.006 A 
HETATM    3  C2  UNK     1      19.066  14.666   8.045  1.00  0.00    -0.017 A 
HETATM    4  C3  UNK     1      17.755  12.469   8.238  1.00  0.00     0.085 A 
HETATM    5  C4  UNK     1      16.640  14.450   7.755  1.00  0.00    -0.007 A 
HETATM    6  C5  UNK     1      19.508  15.257   9.227  1.00  0.00    -0.051 A 
HETATM    7  C6  UNK     1      16.466  12.055   8.134  1.00  0.00     0.094 A 
HETATM    8  C7  UNK     1      19.787  14.834   6.864  1.00  0.00     0.019 A 
HETATM    9  C8  UNK     1      20.955  15.598   6.866  1.00  0.00    -0.061 A 
HETATM   10  C9  UNK     1      20.675  16.021   9.229  1.00  0.00     0.008 A 
HETATM   11  C10 UNK     1      16.310  15.868   7.473  1.00  0.00     0.057 C 
HETATM   12  C11 UNK     1      21.398  16.191   8.048  1.00  0.00     0.007 A 
HETATM   13  C12 UNK     1      18.760  15.097  10.511  1.00  0.00     0.049 C 
HETATM   14  C14 UNK     1      21.727  15.783   5.604  1.00  0.00     0.048 C 
ENDROOT
BRANCH   7  15
HETATM   15  N1  UNK     1      15.908  10.780   8.274  1.00  0.00    -0.316 N 
HETATM   16  C15 UNK     1      15.687  10.110   9.468  1.00  0.00     0.262 C 
HETATM   17  O4  UNK     1      15.927  10.485  10.615  1.00  0.00    -0.267 OA
HETATM   18  H7  UNK     1      15.672  10.328   7.394  1.00  0.00     0.169 HD
BRANCH  16  19
HETATM   19  C16 UNK     1      15.086   8.788   9.251  1.00  0.00     0.108 A 
HETATM   20  C18 UNK     1      13.989   8.757   8.483  1.00  0.00     0.037 A 
HETATM   21  C17 UNK     1      13.322   7.494   8.210  1.00  0.00     0.000 A 
HETATM   22  C19 UNK     1      13.842   6.326   8.758  1.00  0.00     0.089 A 
HETATM   23  C22 UNK     1      12.175   7.415   7.416  1.00  0.00     0.033 A 
HETATM   24  O2  UNK     1      14.996   6.365   9.563  1.00  0.00    -0.274 OA
HETATM   25  C23 UNK     1      13.250   5.084   8.535  1.00  0.00     0.039 A 
HETATM   26  C20 UNK     1      15.657   7.558   9.843  1.00  0.00     0.304 A 
HETATM   27  O5  UNK     1      16.661   7.583  10.546  1.00  0.00    -0.259 OA
HETATM   28  C25 UNK     1      12.107   5.013   7.742  1.00  0.00     0.022 A 
HETATM   29  C24 UNK     1      11.571   6.175   7.183  1.00  0.00     0.011 A 
HETATM   30 Br1  UNK     1      10.019   6.073   6.107  1.00  0.00    -0.051 Br
ENDBRANCH  16  19
ENDBRANCH   7  15
BRANCH   4  31
HETATM   31  C13 UNK     1      18.850  11.578   8.534  1.00  0.00     0.297 C 
HETATM   32  O3  UNK     1      19.406  10.833   7.707  1.00  0.00    -0.259 OA
BRANCH  31  33
HETATM   33  O1  UNK     1      19.224  11.643   9.853  1.00  0.00    -0.318 OA
BRANCH  33  34
HETATM   34  C21 UNK     1      20.610  11.866  10.133  1.00  0.00     0.174 C 
HETATM   35  C26 UNK     1      20.770  12.203  11.601  1.00  0.00     0.034 C 
ENDBRANCH  33  34
ENDBRANCH  31  33
ENDBRANCH   4  31
TORSDOF 5
ENDMDL
MODEL 10
REMARK VINA RESULT:      -8.8      9.080     12.019
REMARK  5 active torsions:
REMARK  status: ('A' for Active; 'I' for Inactive)
REMARK    1  A    between atoms: C13_21  and  O1_3 
REMARK    2  A    between atoms: C21_29  and  O1_3 
REMARK       I    between atoms: C15_23  and  N1_8 
REMARK    3  A    between atoms: C6_14  and  N1_8 
REMARK    4  A    between atoms: C13_21  and  C3_11 
REMARK    5  A    between atoms: C15_23  and  C16_24 
ROOT
HETATM    1  S1  UNK     1      29.991  -9.715  35.790  1.00  0.00    -0.075 SA
HETATM    2  C1  UNK     1      31.784  -8.186  34.765  1.00  0.00     0.006 A 
HETATM    3  C2  UNK     1      32.987  -7.799  34.071  1.00  0.00    -0.017 A 
HETATM    4  C3  UNK     1      30.807  -7.321  35.338  1.00  0.00     0.085 A 
HETATM    5  C4  UNK     1      31.464  -9.515  34.940  1.00  0.00    -0.007 A 
HETATM    6  C5  UNK     1      32.987  -7.598  32.693  1.00  0.00    -0.051 A 
HETATM    7  C6  UNK     1      29.802  -8.030  35.914  1.00  0.00     0.094 A 
HETATM    8  C7  UNK     1      34.159  -7.627  34.805  1.00  0.00     0.019 A 
HETATM    9  C8  UNK     1      35.336  -7.253  34.157  1.00  0.00    -0.061 A 
HETATM   10  C9  UNK     1      34.164  -7.224  32.044  1.00  0.00     0.008 A 
HETATM   11  C10 UNK     1      32.200 -10.725  34.503  1.00  0.00     0.057 C 
HETATM   12  C11 UNK     1      35.338  -7.052  32.777  1.00  0.00     0.007 A 
HETATM   13  C12 UNK     1      31.748  -7.773  31.874  1.00  0.00     0.049 C 
HETATM   14  C14 UNK     1      36.593  -7.071  34.938  1.00  0.00     0.048 C 
ENDROOT
BRANCH   7  15
HETATM   15  N1  UNK     1      28.654  -7.597  36.583  1.00  0.00    -0.316 N 
HETATM   16  C15 UNK     1      28.418  -7.686  37.948  1.00  0.00     0.262 C 
HETATM   17  O4  UNK     1      29.148  -8.150  38.823  1.00  0.00    -0.267 OA
HETATM   18  H7  UNK     1      27.940  -7.200  35.977  1.00  0.00     0.169 HD
BRANCH  16  19
HETATM   19  C16 UNK     1      27.109  -7.134  38.314  1.00  0.00     0.108 A 
HETATM   20  C18 UNK     1      26.089  -8.001  38.343  1.00  0.00     0.037 A 
HETATM   21  C17 UNK     1      24.753  -7.549  38.696  1.00  0.00     0.000 A 
HETATM   22  C19 UNK     1      24.555  -6.206  39.000  1.00  0.00     0.089 A 
HETATM   23  C22 UNK     1      23.659  -8.418  38.738  1.00  0.00     0.033 A 
HETATM   24  O2  UNK     1      25.631  -5.299  38.968  1.00  0.00    -0.274 OA
HETATM   25  C23 UNK     1      23.300  -5.708  39.344  1.00  0.00     0.039 A 
HETATM   26  C20 UNK     1      26.922  -5.701  38.635  1.00  0.00     0.304 A 
HETATM   27  O5  UNK     1      27.853  -4.905  38.609  1.00  0.00    -0.259 OA
HETATM   28  C25 UNK     1      22.215  -6.581  39.385  1.00  0.00     0.022 A 
HETATM   29  C24 UNK     1      22.394  -7.933  39.083  1.00  0.00     0.011 A 
HETATM   30 Br1  UNK     1      20.918  -9.113  39.140  1.00  0.00    -0.051 Br
ENDBRANCH  16  19
ENDBRANCH   7  15
BRANCH   4  31
HETATM   31  C13 UNK     1      30.850  -5.880  35.325  1.00  0.00     0.297 C 
HETATM   32  O3  UNK     1      31.237  -5.187  34.366  1.00  0.00    -0.259 OA
BRANCH  31  33
HETATM   33  O1  UNK     1      30.409  -5.341  36.507  1.00  0.00    -0.318 OA
BRANCH  33  34
HETATM   34  C21 UNK     1      31.381  -4.712  37.348  1.00  0.00     0.174 C 
HETATM   35  C26 UNK     1      31.854  -5.708  38.386  1.00  0.00     0.034 C 
ENDBRANCH  33  34
ENDBRANCH  31  33
ENDBRANCH   4  31
TORSDOF 5
ENDMDL
