MODEL 1
REMARK VINA RESULT:      -9.6      0.000      0.000
REMARK  6 active torsions:
REMARK  status: ('A' for Active; 'I' for Inactive)
REMARK    1  A    between atoms: C10_18  and  N1_6 
REMARK    2  A    between atoms: C19_27  and  N1_6 
REMARK       I    between atoms: C12_20  and  N2_7 
REMARK    3  A    between atoms: N2_7  and  N3_8 
REMARK    4  A    between atoms: C19_27  and  N3_8 
REMARK    5  A    between atoms: C1_9  and  C2_10 
REMARK    6  A    between atoms: C12_20  and  C3_11 
ROOT
HETATM    1  S2  UNK     1      18.151  -1.264  37.006  1.00  0.00    -0.039 SA
HETATM    2  C19 UNK     1      18.857  -2.587  36.255  1.00  0.00     0.191 C 
ENDROOT
BRANCH   2   3
HETATM    3  N1  UNK     1      19.777  -2.609  35.192  1.00  0.00    -0.332 N 
HETATM    4  H17 UNK     1      20.621  -3.134  35.409  1.00  0.00     0.168 HD
BRANCH   3   5
HETATM    5  C10 UNK     1      19.822  -2.006  33.934  1.00  0.00     0.037 A 
HETATM    6  C11 UNK     1      19.077  -0.859  33.683  1.00  0.00     0.067 A 
HETATM    7  C6  UNK     1      19.138  -0.272  32.418  1.00  0.00     0.092 A 
HETATM    8  C5  UNK     1      19.922  -0.795  31.390  1.00  0.00     0.004 A 
HETATM    9  O1  UNK     1      18.362   0.889  32.224  1.00  0.00    -0.275 OA
HETATM   10  C13 UNK     1      20.664  -1.952  31.663  1.00  0.00     0.017 A 
HETATM   11  C7  UNK     1      19.926  -0.112  30.090  1.00  0.00    -0.043 A 
HETATM   12  C15 UNK     1      20.614  -2.552  32.927  1.00  0.00     0.030 A 
HETATM   13  C16 UNK     1      19.179   0.991  29.934  1.00  0.00     0.090 A 
HETATM   14  C17 UNK     1      20.759  -0.649  28.963  1.00  0.00     0.049 C 
HETATM   15  C18 UNK     1      18.346   1.555  31.009  1.00  0.00     0.288 A 
HETATM   16  O3  UNK     1      17.675   2.566  30.830  1.00  0.00    -0.260 OA
ENDBRANCH   3   5
ENDBRANCH   2   3
BRANCH   2  17
HETATM   17  N3  UNK     1      18.480  -3.845  36.711  1.00  0.00    -0.273 N 
HETATM   18  H19 UNK     1      17.629  -3.985  37.245  1.00  0.00     0.189 HD
BRANCH  17  19
HETATM   19  N2  UNK     1      19.256  -4.960  36.481  1.00  0.00    -0.264 N 
HETATM   20  C12 UNK     1      18.639  -6.198  36.401  1.00  0.00     0.271 C 
HETATM   21  O2  UNK     1      17.425  -6.358  36.525  1.00  0.00    -0.266 OA
HETATM   22  H18 UNK     1      20.262  -4.828  36.497  1.00  0.00     0.190 HD
BRANCH  20  23
HETATM   23  C3  UNK     1      19.543  -7.334  36.175  1.00  0.00     0.047 A 
HETATM   24  C1  UNK     1      19.738  -8.401  37.072  1.00  0.00    -0.029 A 
HETATM   25  C4  UNK     1      20.647  -9.308  36.574  1.00  0.00    -0.014 A 
HETATM   26  C14 UNK     1      21.139 -10.563  37.185  1.00  0.00     0.057 C 
HETATM   27  S1  UNK     1      21.239  -8.845  35.035  1.00  0.00    -0.105 SA
HETATM   28  C8  UNK     1      20.278  -7.428  35.033  1.00  0.00     0.067 A 
BRANCH  24  29
HETATM   29  C2  UNK     1      19.063  -8.544  38.387  1.00  0.00     0.036 C 
HETATM   30  C9  UNK     1      19.840  -7.893  39.530  1.00  0.00     0.010 C 
ENDBRANCH  24  29
ENDBRANCH  20  23
ENDBRANCH  17  19
ENDBRANCH   2  17
TORSDOF 6
ENDMDL
MODEL 2
REMARK VINA RESULT:      -9.5      1.590      2.105
REMARK  6 active torsions:
REMARK  status: ('A' for Active; 'I' for Inactive)
REMARK    1  A    between atoms: C10_18  and  N1_6 
REMARK    2  A    between atoms: C19_27  and  N1_6 
REMARK       I    between atoms: C12_20  and  N2_7 
REMARK    3  A    between atoms: N2_7  and  N3_8 
REMARK    4  A    between atoms: C19_27  and  N3_8 
REMARK    5  A    between atoms: C1_9  and  C2_10 
REMARK    6  A    between atoms: C12_20  and  C3_11 
ROOT
HETATM    1  S2  UNK     1      18.118  -1.571  36.759  1.00  0.00    -0.039 SA
HETATM    2  C19 UNK     1      19.376  -2.589  36.320  1.00  0.00     0.191 C 
ENDROOT
BRANCH   2   3
HETATM    3  N1  UNK     1      19.830  -2.921  35.031  1.00  0.00    -0.332 N 
HETATM    4  H17 UNK     1      20.278  -3.834  34.992  1.00  0.00     0.168 HD
BRANCH   3   5
HETATM    5  C10 UNK     1      19.873  -2.244  33.812  1.00  0.00     0.037 A 
HETATM    6  C11 UNK     1      19.131  -1.082  33.633  1.00  0.00     0.067 A 
HETATM    7  C6  UNK     1      19.189  -0.419  32.406  1.00  0.00     0.092 A 
HETATM    8  C5  UNK     1      19.968  -0.882  31.345  1.00  0.00     0.004 A 
HETATM    9  O1  UNK     1      18.417   0.754  32.285  1.00  0.00    -0.275 OA
HETATM   10  C13 UNK     1      20.708  -2.055  31.545  1.00  0.00     0.017 A 
HETATM   11  C7  UNK     1      19.970  -0.121  30.088  1.00  0.00    -0.043 A 
HETATM   12  C15 UNK     1      20.660  -2.730  32.770  1.00  0.00     0.030 A 
HETATM   13  C16 UNK     1      19.225   0.990  30.001  1.00  0.00     0.090 A 
HETATM   14  C17 UNK     1      20.797  -0.593  28.928  1.00  0.00     0.049 C 
HETATM   15  C18 UNK     1      18.398   1.492  31.112  1.00  0.00     0.288 A 
HETATM   16  O3  UNK     1      17.729   2.513  30.996  1.00  0.00    -0.260 OA
ENDBRANCH   3   5
ENDBRANCH   2   3
BRANCH   2  17
HETATM   17  N3  UNK     1      20.064  -3.222  37.349  1.00  0.00    -0.273 N 
HETATM   18  H19 UNK     1      20.745  -2.728  37.915  1.00  0.00     0.189 HD
BRANCH  17  19
HETATM   19  N2  UNK     1      19.871  -4.555  37.635  1.00  0.00    -0.264 N 
HETATM   20  C12 UNK     1      20.977  -5.385  37.726  1.00  0.00     0.271 C 
HETATM   21  O2  UNK     1      22.132  -4.993  37.564  1.00  0.00    -0.266 OA
HETATM   22  H18 UNK     1      18.912  -4.886  37.650  1.00  0.00     0.190 HD
BRANCH  20  23
HETATM   23  C3  UNK     1      20.679  -6.795  38.013  1.00  0.00     0.047 A 
HETATM   24  C1  UNK     1      20.625  -7.821  37.051  1.00  0.00    -0.029 A 
HETATM   25  C4  UNK     1      20.323  -9.032  37.633  1.00  0.00    -0.014 A 
HETATM   26  C14 UNK     1      20.168 -10.358  36.995  1.00  0.00     0.057 C 
HETATM   27  S1  UNK     1      20.114  -8.895  39.327  1.00  0.00    -0.105 SA
HETATM   28  C8  UNK     1      20.428  -7.213  39.285  1.00  0.00     0.067 A 
BRANCH  24  29
HETATM   29  C2  UNK     1      20.859  -7.638  35.596  1.00  0.00     0.036 C 
HETATM   30  C9  UNK     1      19.670  -7.001  34.877  1.00  0.00     0.010 C 
ENDBRANCH  24  29
ENDBRANCH  20  23
ENDBRANCH  17  19
ENDBRANCH   2  17
TORSDOF 6
ENDMDL
MODEL 3
REMARK VINA RESULT:      -9.3      6.116      8.705
REMARK  6 active torsions:
REMARK  status: ('A' for Active; 'I' for Inactive)
REMARK    1  A    between atoms: C10_18  and  N1_6 
REMARK    2  A    between atoms: C19_27  and  N1_6 
REMARK       I    between atoms: C12_20  and  N2_7 
REMARK    3  A    between atoms: N2_7  and  N3_8 
REMARK    4  A    between atoms: C19_27  and  N3_8 
REMARK    5  A    between atoms: C1_9  and  C2_10 
REMARK    6  A    between atoms: C12_20  and  C3_11 
ROOT
HETATM    1  S2  UNK     1      17.924   1.662  28.684  1.00  0.00    -0.039 SA
HETATM    2  C19 UNK     1      18.813   2.446  29.869  1.00  0.00     0.191 C 
ENDROOT
BRANCH   2   3
HETATM    3  N1  UNK     1      19.185   3.801  29.939  1.00  0.00    -0.332 N 
HETATM    4  H17 UNK     1      19.707   4.112  29.122  1.00  0.00     0.168 HD
BRANCH   3   5
HETATM    5  C10 UNK     1      19.066   4.791  30.915  1.00  0.00     0.037 A 
HETATM    6  C11 UNK     1      17.819   5.100  31.447  1.00  0.00     0.067 A 
HETATM    7  C6  UNK     1      17.722   6.093  32.423  1.00  0.00     0.092 A 
HETATM    8  C5  UNK     1      18.836   6.793  32.888  1.00  0.00     0.004 A 
HETATM    9  O1  UNK     1      16.433   6.360  32.926  1.00  0.00    -0.275 OA
HETATM   10  C13 UNK     1      20.084   6.468  32.338  1.00  0.00     0.017 A 
HETATM   11  C7  UNK     1      18.642   7.823  33.917  1.00  0.00    -0.043 A 
HETATM   12  C15 UNK     1      20.197   5.474  31.359  1.00  0.00     0.030 A 
HETATM   13  C16 UNK     1      17.404   8.056  34.376  1.00  0.00     0.090 A 
HETATM   14  C17 UNK     1      19.820   8.593  34.437  1.00  0.00     0.049 C 
HETATM   15  C18 UNK     1      16.218   7.326  33.896  1.00  0.00     0.288 A 
HETATM   16  O3  UNK     1      15.101   7.567  34.340  1.00  0.00    -0.260 OA
ENDBRANCH   3   5
ENDBRANCH   2   3
BRANCH   2  17
HETATM   17  N3  UNK     1      19.277   1.671  30.926  1.00  0.00    -0.273 N 
HETATM   18  H19 UNK     1      20.171   1.193  30.882  1.00  0.00     0.189 HD
BRANCH  17  19
HETATM   19  N2  UNK     1      18.536   1.494  32.073  1.00  0.00    -0.264 N 
HETATM   20  C12 UNK     1      18.775   0.376  32.857  1.00  0.00     0.271 C 
HETATM   21  O2  UNK     1      19.621  -0.475  32.581  1.00  0.00    -0.266 OA
HETATM   22  H18 UNK     1      17.768   2.138  32.225  1.00  0.00     0.190 HD
BRANCH  20  23
HETATM   23  C3  UNK     1      17.927   0.255  34.049  1.00  0.00     0.047 A 
HETATM   24  C1  UNK     1      18.021   1.070  35.194  1.00  0.00    -0.029 A 
HETATM   25  C4  UNK     1      17.088   0.707  36.139  1.00  0.00    -0.014 A 
HETATM   26  C14 UNK     1      16.843   1.293  37.476  1.00  0.00     0.057 C 
HETATM   27  S1  UNK     1      16.124  -0.608  35.619  1.00  0.00    -0.105 SA
HETATM   28  C8  UNK     1      16.954  -0.694  34.124  1.00  0.00     0.067 A 
BRANCH  24  29
HETATM   29  C2  UNK     1      18.993   2.178  35.373  1.00  0.00     0.036 C 
HETATM   30  C9  UNK     1      18.521   3.491  34.750  1.00  0.00     0.010 C 
ENDBRANCH  24  29
ENDBRANCH  20  23
ENDBRANCH  17  19
ENDBRANCH   2  17
TORSDOF 6
ENDMDL
MODEL 4
REMARK VINA RESULT:      -9.3      1.905      2.625
REMARK  6 active torsions:
REMARK  status: ('A' for Active; 'I' for Inactive)
REMARK    1  A    between atoms: C10_18  and  N1_6 
REMARK    2  A    between atoms: C19_27  and  N1_6 
REMARK       I    between atoms: C12_20  and  N2_7 
REMARK    3  A    between atoms: N2_7  and  N3_8 
REMARK    4  A    between atoms: C19_27  and  N3_8 
REMARK    5  A    between atoms: C1_9  and  C2_10 
REMARK    6  A    between atoms: C12_20  and  C3_11 
ROOT
HETATM    1  S2  UNK     1      17.868  -0.332  37.503  1.00  0.00    -0.039 SA
HETATM    2  C19 UNK     1      18.483  -1.463  36.430  1.00  0.00     0.191 C 
ENDROOT
BRANCH   2   3
HETATM    3  N1  UNK     1      18.238  -1.594  35.052  1.00  0.00    -0.332 N 
HETATM    4  H17 UNK     1      17.895  -2.517  34.795  1.00  0.00     0.168 HD
BRANCH   3   5
HETATM    5  C10 UNK     1      18.433  -0.763  33.948  1.00  0.00     0.037 A 
HETATM    6  C11 UNK     1      18.985  -1.273  32.778  1.00  0.00     0.067 A 
HETATM    7  C6  UNK     1      19.171  -0.424  31.686  1.00  0.00     0.092 A 
HETATM    8  C5  UNK     1      18.821   0.926  31.722  1.00  0.00     0.004 A 
HETATM    9  O1  UNK     1      19.733  -1.000  30.528  1.00  0.00    -0.275 OA
HETATM   10  C13 UNK     1      18.267   1.422  32.911  1.00  0.00     0.017 A 
HETATM   11  C7  UNK     1      19.052   1.746  30.526  1.00  0.00    -0.043 A 
HETATM   12  C15 UNK     1      18.074   0.582  34.014  1.00  0.00     0.030 A 
HETATM   13  C16 UNK     1      19.588   1.172  29.440  1.00  0.00     0.090 A 
HETATM   14  C17 UNK     1      18.687   3.201  30.534  1.00  0.00     0.049 C 
HETATM   15  C18 UNK     1      19.963  -0.252  29.385  1.00  0.00     0.288 A 
HETATM   16  O3  UNK     1      20.452  -0.742  28.373  1.00  0.00    -0.260 OA
ENDBRANCH   3   5
ENDBRANCH   2   3
BRANCH   2  17
HETATM   17  N3  UNK     1      19.335  -2.430  36.952  1.00  0.00    -0.273 N 
HETATM   18  H19 UNK     1      20.245  -2.188  37.331  1.00  0.00     0.189 HD
BRANCH  17  19
HETATM   19  N2  UNK     1      18.996  -3.765  36.960  1.00  0.00    -0.264 N 
HETATM   20  C12 UNK     1      20.007  -4.710  37.027  1.00  0.00     0.271 C 
HETATM   21  O2  UNK     1      21.202  -4.420  37.080  1.00  0.00    -0.266 OA
HETATM   22  H18 UNK     1      18.020  -3.990  36.799  1.00  0.00     0.190 HD
BRANCH  20  23
HETATM   23  C3  UNK     1      19.558  -6.109  37.009  1.00  0.00     0.047 A 
HETATM   24  C1  UNK     1      19.719  -7.022  38.068  1.00  0.00    -0.029 A 
HETATM   25  C4  UNK     1      19.193  -8.254  37.746  1.00  0.00    -0.014 A 
HETATM   26  C14 UNK     1      19.150  -9.489  38.561  1.00  0.00     0.057 C 
HETATM   27  S1  UNK     1      18.519  -8.272  36.172  1.00  0.00    -0.105 SA
HETATM   28  C8  UNK     1      18.930  -6.630  35.919  1.00  0.00     0.067 A 
BRANCH  24  29
HETATM   29  C2  UNK     1      20.368  -6.714  39.367  1.00  0.00     0.036 C 
HETATM   30  C9  UNK     1      21.799  -7.244  39.459  1.00  0.00     0.010 C 
ENDBRANCH  24  29
ENDBRANCH  20  23
ENDBRANCH  17  19
ENDBRANCH   2  17
TORSDOF 6
ENDMDL
MODEL 5
REMARK VINA RESULT:      -9.1      2.047      2.908
REMARK  6 active torsions:
REMARK  status: ('A' for Active; 'I' for Inactive)
REMARK    1  A    between atoms: C10_18  and  N1_6 
REMARK    2  A    between atoms: C19_27  and  N1_6 
REMARK       I    between atoms: C12_20  and  N2_7 
REMARK    3  A    between atoms: N2_7  and  N3_8 
REMARK    4  A    between atoms: C19_27  and  N3_8 
REMARK    5  A    between atoms: C1_9  and  C2_10 
REMARK    6  A    between atoms: C12_20  and  C3_11 
ROOT
HETATM    1  S2  UNK     1      18.079  -1.233  37.563  1.00  0.00    -0.039 SA
HETATM    2  C19 UNK     1      19.037  -2.126  36.516  1.00  0.00     0.191 C 
ENDROOT
BRANCH   2   3
HETATM    3  N1  UNK     1      18.958  -2.223  35.116  1.00  0.00    -0.332 N 
HETATM    4  H17 UNK     1      18.972  -3.185  34.783  1.00  0.00     0.168 HD
BRANCH   3   5
HETATM    5  C10 UNK     1      18.941  -1.291  34.077  1.00  0.00     0.037 A 
HETATM    6  C11 UNK     1      19.443  -1.631  32.826  1.00  0.00     0.067 A 
HETATM    7  C6  UNK     1      19.416  -0.684  31.801  1.00  0.00     0.092 A 
HETATM    8  C5  UNK     1      18.901   0.599  31.985  1.00  0.00     0.004 A 
HETATM    9  O1  UNK     1      19.937  -1.088  30.555  1.00  0.00    -0.275 OA
HETATM   10  C13 UNK     1      18.400   0.923  33.254  1.00  0.00     0.017 A 
HETATM   11  C7  UNK     1      18.912   1.532  30.851  1.00  0.00    -0.043 A 
HETATM   12  C15 UNK     1      18.420  -0.017  34.291  1.00  0.00     0.030 A 
HETATM   13  C16 UNK     1      19.414   1.121  29.678  1.00  0.00     0.090 A 
HETATM   14  C17 UNK     1      18.365   2.920  31.017  1.00  0.00     0.049 C 
HETATM   15  C18 UNK     1      19.962  -0.230  29.467  1.00  0.00     0.288 A 
HETATM   16  O3  UNK     1      20.413  -0.570  28.380  1.00  0.00    -0.260 OA
ENDBRANCH   3   5
ENDBRANCH   2   3
BRANCH   2  17
HETATM   17  N3  UNK     1      20.038  -2.904  37.087  1.00  0.00    -0.273 N 
HETATM   18  H19 UNK     1      20.972  -2.539  37.242  1.00  0.00     0.189 HD
BRANCH  17  19
HETATM   19  N2  UNK     1      19.818  -4.215  37.448  1.00  0.00    -0.264 N 
HETATM   20  C12 UNK     1      20.910  -5.046  37.643  1.00  0.00     0.271 C 
HETATM   21  O2  UNK     1      22.075  -4.673  37.511  1.00  0.00    -0.266 OA
HETATM   22  H18 UNK     1      18.856  -4.537  37.439  1.00  0.00     0.190 HD
BRANCH  20  23
HETATM   23  C3  UNK     1      20.585  -6.432  38.005  1.00  0.00     0.047 A 
HETATM   24  C1  UNK     1      20.536  -7.512  37.102  1.00  0.00    -0.029 A 
HETATM   25  C4  UNK     1      20.203  -8.682  37.748  1.00  0.00    -0.014 A 
HETATM   26  C14 UNK     1      20.042 -10.041  37.184  1.00  0.00     0.057 C 
HETATM   27  S1  UNK     1      19.958  -8.444  39.425  1.00  0.00    -0.105 SA
HETATM   28  C8  UNK     1      20.299  -6.772  39.292  1.00  0.00     0.067 A 
BRANCH  24  29
HETATM   29  C2  UNK     1      20.805  -7.417  35.646  1.00  0.00     0.036 C 
HETATM   30  C9  UNK     1      19.587  -6.961  34.843  1.00  0.00     0.010 C 
ENDBRANCH  24  29
ENDBRANCH  20  23
ENDBRANCH  17  19
ENDBRANCH   2  17
TORSDOF 6
ENDMDL
MODEL 6
REMARK VINA RESULT:      -9.0      5.499     11.441
REMARK  6 active torsions:
REMARK  status: ('A' for Active; 'I' for Inactive)
REMARK    1  A    between atoms: C10_18  and  N1_6 
REMARK    2  A    between atoms: C19_27  and  N1_6 
REMARK       I    between atoms: C12_20  and  N2_7 
REMARK    3  A    between atoms: N2_7  and  N3_8 
REMARK    4  A    between atoms: C19_27  and  N3_8 
REMARK    5  A    between atoms: C1_9  and  C2_10 
REMARK    6  A    between atoms: C12_20  and  C3_11 
ROOT
HETATM    1  S2  UNK     1      19.098   1.193  29.630  1.00  0.00    -0.039 SA
HETATM    2  C19 UNK     1      18.705   2.338  30.790  1.00  0.00     0.191 C 
ENDROOT
BRANCH   2   3
HETATM    3  N1  UNK     1      17.966   2.173  31.975  1.00  0.00    -0.332 N 
HETATM    4  H17 UNK     1      17.199   2.837  32.060  1.00  0.00     0.168 HD
BRANCH   3   5
HETATM    5  C10 UNK     1      18.099   1.353  33.096  1.00  0.00     0.037 A 
HETATM    6  C11 UNK     1      17.886   1.870  34.369  1.00  0.00     0.067 A 
HETATM    7  C6  UNK     1      18.023   1.031  35.476  1.00  0.00     0.092 A 
HETATM    8  C5  UNK     1      18.367  -0.315  35.354  1.00  0.00     0.004 A 
HETATM    9  O1  UNK     1      17.793   1.612  36.740  1.00  0.00    -0.275 OA
HETATM   10  C13 UNK     1      18.579  -0.818  34.062  1.00  0.00     0.017 A 
HETATM   11  C7  UNK     1      18.490  -1.125  36.573  1.00  0.00    -0.043 A 
HETATM   12  C15 UNK     1      18.444   0.011  32.942  1.00  0.00     0.030 A 
HETATM   13  C16 UNK     1      18.266  -0.546  37.761  1.00  0.00     0.090 A 
HETATM   14  C17 UNK     1      18.859  -2.576  36.475  1.00  0.00     0.049 C 
HETATM   15  C18 UNK     1      17.901   0.873  37.907  1.00  0.00     0.288 A 
HETATM   16  O3  UNK     1      17.704   1.369  39.011  1.00  0.00    -0.260 OA
ENDBRANCH   3   5
ENDBRANCH   2   3
BRANCH   2  17
HETATM   17  N3  UNK     1      19.136   3.640  30.562  1.00  0.00    -0.273 N 
HETATM   18  H19 UNK     1      19.561   3.913  29.682  1.00  0.00     0.189 HD
BRANCH  17  19
HETATM   19  N2  UNK     1      19.028   4.617  31.526  1.00  0.00    -0.264 N 
HETATM   20  C12 UNK     1      18.892   5.937  31.128  1.00  0.00     0.271 C 
HETATM   21  O2  UNK     1      18.862   6.288  29.948  1.00  0.00    -0.266 OA
HETATM   22  H18 UNK     1      19.170   4.328  32.488  1.00  0.00     0.190 HD
BRANCH  20  23
HETATM   23  C3  UNK     1      18.804   6.915  32.220  1.00  0.00     0.047 A 
HETATM   24  C1  UNK     1      17.719   7.785  32.440  1.00  0.00    -0.029 A 
HETATM   25  C4  UNK     1      17.937   8.580  33.543  1.00  0.00    -0.014 A 
HETATM   26  C14 UNK     1      17.062   9.624  34.124  1.00  0.00     0.057 C 
HETATM   27  S1  UNK     1      19.445   8.253  34.284  1.00  0.00    -0.105 SA
HETATM   28  C8  UNK     1      19.811   7.045  33.127  1.00  0.00     0.067 A 
BRANCH  24  29
HETATM   29  C2  UNK     1      16.496   7.850  31.601  1.00  0.00     0.036 C 
HETATM   30  C9  UNK     1      15.379   6.937  32.105  1.00  0.00     0.010 C 
ENDBRANCH  24  29
ENDBRANCH  20  23
ENDBRANCH  17  19
ENDBRANCH   2  17
TORSDOF 6
ENDMDL
MODEL 7
REMARK VINA RESULT:      -8.9      6.900     12.568
REMARK  6 active torsions:
REMARK  status: ('A' for Active; 'I' for Inactive)
REMARK    1  A    between atoms: C10_18  and  N1_6 
REMARK    2  A    between atoms: C19_27  and  N1_6 
REMARK       I    between atoms: C12_20  and  N2_7 
REMARK    3  A    between atoms: N2_7  and  N3_8 
REMARK    4  A    between atoms: C19_27  and  N3_8 
REMARK    5  A    between atoms: C1_9  and  C2_10 
REMARK    6  A    between atoms: C12_20  and  C3_11 
ROOT
HETATM    1  S2  UNK     1      19.017   6.300  31.818  1.00  0.00    -0.039 SA
HETATM    2  C19 UNK     1      17.688   5.312  32.080  1.00  0.00     0.191 C 
ENDROOT
BRANCH   2   3
HETATM    3  N1  UNK     1      17.658   3.941  32.393  1.00  0.00    -0.332 N 
HETATM    4  H17 UNK     1      17.157   3.743  33.256  1.00  0.00     0.168 HD
BRANCH   3   5
HETATM    5  C10 UNK     1      18.230   2.803  31.824  1.00  0.00     0.037 A 
HETATM    6  C11 UNK     1      18.525   1.699  32.617  1.00  0.00     0.067 A 
HETATM    7  C6  UNK     1      19.095   0.570  32.027  1.00  0.00     0.092 A 
HETATM    8  C5  UNK     1      19.383   0.505  30.664  1.00  0.00     0.004 A 
HETATM    9  O1  UNK     1      19.370  -0.518  32.882  1.00  0.00    -0.275 OA
HETATM   10  C13 UNK     1      19.079   1.629  29.882  1.00  0.00     0.017 A 
HETATM   11  C7  UNK     1      19.983  -0.723  30.128  1.00  0.00    -0.043 A 
HETATM   12  C15 UNK     1      18.506   2.768  30.459  1.00  0.00     0.030 A 
HETATM   13  C16 UNK     1      20.234  -1.741  30.963  1.00  0.00     0.090 A 
HETATM   14  C17 UNK     1      20.305  -0.823  28.665  1.00  0.00     0.049 C 
HETATM   15  C18 UNK     1      19.936  -1.689  32.405  1.00  0.00     0.288 A 
HETATM   16  O3  UNK     1      20.179  -2.640  33.139  1.00  0.00    -0.260 OA
ENDBRANCH   3   5
ENDBRANCH   2   3
BRANCH   2  17
HETATM   17  N3  UNK     1      16.433   5.896  31.953  1.00  0.00    -0.273 N 
HETATM   18  H19 UNK     1      15.758   5.564  31.273  1.00  0.00     0.189 HD
BRANCH  17  19
HETATM   19  N2  UNK     1      16.054   6.970  32.729  1.00  0.00    -0.264 N 
HETATM   20  C12 UNK     1      15.925   8.213  32.131  1.00  0.00     0.271 C 
HETATM   21  O2  UNK     1      16.134   8.413  30.934  1.00  0.00    -0.266 OA
HETATM   22  H18 UNK     1      15.999   6.814  33.730  1.00  0.00     0.190 HD
BRANCH  20  23
HETATM   23  C3  UNK     1      15.538   9.305  33.034  1.00  0.00     0.047 A 
HETATM   24  C1  UNK     1      16.437  10.143  33.720  1.00  0.00    -0.029 A 
HETATM   25  C4  UNK     1      15.765  11.068  34.488  1.00  0.00    -0.014 A 
HETATM   26  C14 UNK     1      16.317  12.129  35.360  1.00  0.00     0.057 C 
HETATM   27  S1  UNK     1      14.066  10.898  34.358  1.00  0.00    -0.105 SA
HETATM   28  C8  UNK     1      14.227   9.585  33.273  1.00  0.00     0.067 A 
BRANCH  24  29
HETATM   29  C2  UNK     1      17.917  10.054  33.637  1.00  0.00     0.036 C 
HETATM   30  C9  UNK     1      18.493   8.922  34.487  1.00  0.00     0.010 C 
ENDBRANCH  24  29
ENDBRANCH  20  23
ENDBRANCH  17  19
ENDBRANCH   2  17
TORSDOF 6
ENDMDL
MODEL 8
REMARK VINA RESULT:      -8.7      7.209     12.721
REMARK  6 active torsions:
REMARK  status: ('A' for Active; 'I' for Inactive)
REMARK    1  A    between atoms: C10_18  and  N1_6 
REMARK    2  A    between atoms: C19_27  and  N1_6 
REMARK       I    between atoms: C12_20  and  N2_7 
REMARK    3  A    between atoms: N2_7  and  N3_8 
REMARK    4  A    between atoms: C19_27  and  N3_8 
REMARK    5  A    between atoms: C1_9  and  C2_10 
REMARK    6  A    between atoms: C12_20  and  C3_11 
ROOT
HETATM    1  S2  UNK     1      19.456   6.124  31.922  1.00  0.00    -0.039 SA
HETATM    2  C19 UNK     1      17.981   5.410  32.277  1.00  0.00     0.191 C 
ENDROOT
BRANCH   2   3
HETATM    3  N1  UNK     1      17.534   4.113  31.968  1.00  0.00    -0.332 N 
HETATM    4  H17 UNK     1      16.548   3.973  32.178  1.00  0.00     0.168 HD
BRANCH   3   5
HETATM    5  C10 UNK     1      18.160   2.954  31.510  1.00  0.00     0.037 A 
HETATM    6  C11 UNK     1      18.383   1.891  32.379  1.00  0.00     0.067 A 
HETATM    7  C6  UNK     1      19.010   0.740  31.900  1.00  0.00     0.092 A 
HETATM    8  C5  UNK     1      19.425   0.613  30.574  1.00  0.00     0.004 A 
HETATM    9  O1  UNK     1      19.207  -0.304  32.827  1.00  0.00    -0.275 OA
HETATM   10  C13 UNK     1      19.192   1.696  29.714  1.00  0.00     0.017 A 
HETATM   11  C7  UNK     1      20.078  -0.634  30.155  1.00  0.00    -0.043 A 
HETATM   12  C15 UNK     1      18.564   2.857  30.180  1.00  0.00     0.030 A 
HETATM   13  C16 UNK     1      20.252  -1.609  31.059  1.00  0.00     0.090 A 
HETATM   14  C17 UNK     1      20.536  -0.800  28.736  1.00  0.00     0.049 C 
HETATM   15  C18 UNK     1      19.820  -1.492  32.462  1.00  0.00     0.288 A 
HETATM   16  O3  UNK     1      19.996  -2.405  33.260  1.00  0.00    -0.260 OA
ENDBRANCH   3   5
ENDBRANCH   2   3
BRANCH   2  17
HETATM   17  N3  UNK     1      17.046   6.193  32.946  1.00  0.00    -0.273 N 
HETATM   18  H19 UNK     1      16.240   5.782  33.404  1.00  0.00     0.189 HD
BRANCH  17  19
HETATM   19  N2  UNK     1      17.157   7.565  32.999  1.00  0.00    -0.264 N 
HETATM   20  C12 UNK     1      17.148   8.188  34.236  1.00  0.00     0.271 C 
HETATM   21  O2  UNK     1      17.046   7.578  35.300  1.00  0.00    -0.266 OA
HETATM   22  H18 UNK     1      17.123   8.061  32.114  1.00  0.00     0.190 HD
BRANCH  20  23
HETATM   23  C3  UNK     1      17.249   9.653  34.199  1.00  0.00     0.047 A 
HETATM   24  C1  UNK     1      16.169  10.541  34.368  1.00  0.00    -0.029 A 
HETATM   25  C4  UNK     1      16.587  11.851  34.281  1.00  0.00    -0.014 A 
HETATM   26  C14 UNK     1      15.787  13.091  34.397  1.00  0.00     0.057 C 
HETATM   27  S1  UNK     1      18.271  11.971  33.998  1.00  0.00    -0.105 SA
HETATM   28  C8  UNK     1      18.446  10.268  33.992  1.00  0.00     0.067 A 
BRANCH  24  29
HETATM   29  C2  UNK     1      14.762  10.135  34.608  1.00  0.00     0.036 C 
HETATM   30  C9  UNK     1      13.960   9.973  33.317  1.00  0.00     0.010 C 
ENDBRANCH  24  29
ENDBRANCH  20  23
ENDBRANCH  17  19
ENDBRANCH   2  17
TORSDOF 6
ENDMDL
MODEL 9
REMARK VINA RESULT:      -8.7      2.403      3.359
REMARK  6 active torsions:
REMARK  status: ('A' for Active; 'I' for Inactive)
REMARK    1  A    between atoms: C10_18  and  N1_6 
REMARK    2  A    between atoms: C19_27  and  N1_6 
REMARK       I    between atoms: C12_20  and  N2_7 
REMARK    3  A    between atoms: N2_7  and  N3_8 
REMARK    4  A    between atoms: C19_27  and  N3_8 
REMARK    5  A    between atoms: C1_9  and  C2_10 
REMARK    6  A    between atoms: C12_20  and  C3_11 
ROOT
HETATM    1  S2  UNK     1      20.335  -2.439  34.376  1.00  0.00    -0.039 SA
HETATM    2  C19 UNK     1      19.330  -1.926  35.616  1.00  0.00     0.191 C 
ENDROOT
BRANCH   2   3
HETATM    3  N1  UNK     1      18.433  -0.843  35.632  1.00  0.00    -0.332 N 
HETATM    4  H17 UNK     1      17.604  -1.023  36.195  1.00  0.00     0.168 HD
BRANCH   3   5
HETATM    5  C10 UNK     1      18.392   0.393  34.985  1.00  0.00     0.037 A 
HETATM    6  C11 UNK     1      18.369   0.453  33.596  1.00  0.00     0.067 A 
HETATM    7  C6  UNK     1      18.327   1.700  32.970  1.00  0.00     0.092 A 
HETATM    8  C5  UNK     1      18.306   2.896  33.689  1.00  0.00     0.004 A 
HETATM    9  O1  UNK     1      18.304   1.697  31.561  1.00  0.00    -0.275 OA
HETATM   10  C13 UNK     1      18.330   2.813  35.088  1.00  0.00     0.017 A 
HETATM   11  C7  UNK     1      18.261   4.163  32.948  1.00  0.00    -0.043 A 
HETATM   12  C15 UNK     1      18.372   1.570  35.730  1.00  0.00     0.030 A 
HETATM   13  C16 UNK     1      18.240   4.130  31.607  1.00  0.00     0.090 A 
HETATM   14  C17 UNK     1      18.237   5.465  33.692  1.00  0.00     0.049 C 
HETATM   15  C18 UNK     1      18.262   2.877  30.834  1.00  0.00     0.288 A 
HETATM   16  O3  UNK     1      18.243   2.886  29.608  1.00  0.00    -0.260 OA
ENDBRANCH   3   5
ENDBRANCH   2   3
BRANCH   2  17
HETATM   17  N3  UNK     1      19.390  -2.636  36.810  1.00  0.00    -0.273 N 
HETATM   18  H19 UNK     1      19.684  -2.197  37.676  1.00  0.00     0.189 HD
BRANCH  17  19
HETATM   19  N2  UNK     1      19.074  -3.975  36.872  1.00  0.00    -0.264 N 
HETATM   20  C12 UNK     1      20.091  -4.892  37.082  1.00  0.00     0.271 C 
HETATM   21  O2  UNK     1      21.272  -4.573  37.218  1.00  0.00    -0.266 OA
HETATM   22  H18 UNK     1      18.119  -4.231  36.643  1.00  0.00     0.190 HD
BRANCH  20  23
HETATM   23  C3  UNK     1      19.669  -6.299  37.113  1.00  0.00     0.047 A 
HETATM   24  C1  UNK     1      19.846  -7.171  38.204  1.00  0.00    -0.029 A 
HETATM   25  C4  UNK     1      19.345  -8.423  37.924  1.00  0.00    -0.014 A 
HETATM   26  C14 UNK     1      19.323  -9.629  38.782  1.00  0.00     0.057 C 
HETATM   27  S1  UNK     1      18.675  -8.510  36.351  1.00  0.00    -0.105 SA
HETATM   28  C8  UNK     1      19.054  -6.870  36.041  1.00  0.00     0.067 A 
BRANCH  24  29
HETATM   29  C2  UNK     1      20.485  -6.805  39.493  1.00  0.00     0.036 C 
HETATM   30  C9  UNK     1      21.959  -7.206  39.561  1.00  0.00     0.010 C 
ENDBRANCH  24  29
ENDBRANCH  20  23
ENDBRANCH  17  19
ENDBRANCH   2  17
TORSDOF 6
ENDMDL
MODEL 10
REMARK VINA RESULT:      -8.7      5.246     11.411
REMARK  6 active torsions:
REMARK  status: ('A' for Active; 'I' for Inactive)
REMARK    1  A    between atoms: C10_18  and  N1_6 
REMARK    2  A    between atoms: C19_27  and  N1_6 
REMARK       I    between atoms: C12_20  and  N2_7 
REMARK    3  A    between atoms: N2_7  and  N3_8 
REMARK    4  A    between atoms: C19_27  and  N3_8 
REMARK    5  A    between atoms: C1_9  and  C2_10 
REMARK    6  A    between atoms: C12_20  and  C3_11 
ROOT
HETATM    1  S2  UNK     1      19.160   1.136  29.883  1.00  0.00    -0.039 SA
HETATM    2  C19 UNK     1      18.631   2.279  30.990  1.00  0.00     0.191 C 
ENDROOT
BRANCH   2   3
HETATM    3  N1  UNK     1      17.904   2.086  32.177  1.00  0.00    -0.332 N 
HETATM    4  H17 UNK     1      17.114   2.720  32.267  1.00  0.00     0.168 HD
BRANCH   3   5
HETATM    5  C10 UNK     1      18.072   1.268  33.296  1.00  0.00     0.037 A 
HETATM    6  C11 UNK     1      18.783   0.078  33.191  1.00  0.00     0.067 A 
HETATM    7  C6  UNK     1      18.940  -0.724  34.322  1.00  0.00     0.092 A 
HETATM    8  C5  UNK     1      18.406  -0.375  35.563  1.00  0.00     0.004 A 
HETATM    9  O1  UNK     1      19.671  -1.917  34.154  1.00  0.00    -0.275 OA
HETATM   10  C13 UNK     1      17.692   0.829  35.649  1.00  0.00     0.017 A 
HETATM   11  C7  UNK     1      18.620  -1.278  36.701  1.00  0.00    -0.043 A 
HETATM   12  C15 UNK     1      17.527   1.644  34.523  1.00  0.00     0.030 A 
HETATM   13  C16 UNK     1      19.319  -2.406  36.512  1.00  0.00     0.090 A 
HETATM   14  C17 UNK     1      18.059  -0.931  38.049  1.00  0.00     0.049 C 
HETATM   15  C18 UNK     1      19.889  -2.789  35.208  1.00  0.00     0.288 A 
HETATM   16  O3  UNK     1      20.523  -3.829  35.073  1.00  0.00    -0.260 OA
ENDBRANCH   3   5
ENDBRANCH   2   3
BRANCH   2  17
HETATM   17  N3  UNK     1      18.917   3.610  30.706  1.00  0.00    -0.273 N 
HETATM   18  H19 UNK     1      19.287   3.894  29.805  1.00  0.00     0.189 HD
BRANCH  17  19
HETATM   19  N2  UNK     1      18.735   4.605  31.642  1.00  0.00    -0.264 N 
HETATM   20  C12 UNK     1      19.233   5.870  31.376  1.00  0.00     0.271 C 
HETATM   21  O2  UNK     1      19.834   6.157  30.341  1.00  0.00    -0.266 OA
HETATM   22  H18 UNK     1      18.343   4.326  32.535  1.00  0.00     0.190 HD
BRANCH  20  23
HETATM   23  C3  UNK     1      19.013   6.864  32.436  1.00  0.00     0.047 A 
HETATM   24  C1  UNK     1      17.887   7.703  32.535  1.00  0.00    -0.029 A 
HETATM   25  C4  UNK     1      17.976   8.523  33.638  1.00  0.00    -0.014 A 
HETATM   26  C14 UNK     1      17.019   9.548  34.114  1.00  0.00     0.057 C 
HETATM   27  S1  UNK     1      19.417   8.257  34.523  1.00  0.00    -0.105 SA
HETATM   28  C8  UNK     1      19.926   7.041  33.431  1.00  0.00     0.067 A 
BRANCH  24  29
HETATM   29  C2  UNK     1      16.747   7.714  31.585  1.00  0.00     0.036 C 
HETATM   30  C9  UNK     1      15.542   6.920  32.090  1.00  0.00     0.010 C 
ENDBRANCH  24  29
ENDBRANCH  20  23
ENDBRANCH  17  19
ENDBRANCH   2  17
TORSDOF 6
ENDMDL
