MODEL 1
REMARK VINA RESULT:      -9.9      0.000      0.000
REMARK  6 active torsions:
REMARK  status: ('A' for Active; 'I' for Inactive)
REMARK    1  A    between atoms: C11_19  and  O1_2 
REMARK    2  A    between atoms: C3_11  and  O1_2 
REMARK       I    between atoms: C16_24  and  N1_7 
REMARK    3  A    between atoms: N1_7  and  N2_8 
REMARK       I    between atoms: C20_28  and  N2_8 
REMARK    4  A    between atoms: C1_9  and  C2_10 
REMARK    5  A    between atoms: C11_19  and  C16_24 
REMARK    6  A    between atoms: C14_22  and  C20_28 
ROOT
HETATM    1  O3  UNK     1      21.480  -2.312  35.713  1.00  0.00    -0.269 OA
HETATM    2  N1  UNK     1      19.160  -2.218  35.632  1.00  0.00    -0.265 N 
HETATM    3  C16 UNK     1      20.375  -2.710  36.072  1.00  0.00     0.260 C 
HETATM    4  H19 UNK     1      18.263  -2.582  35.937  1.00  0.00     0.190 HD
ENDROOT
BRANCH   2   5
HETATM    5  N2  UNK     1      19.147  -1.197  34.715  1.00  0.00    -0.263 N 
HETATM    6  C20 UNK     1      18.190  -0.210  34.823  1.00  0.00     0.276 C 
HETATM    7  O5  UNK     1      17.313  -0.137  35.682  1.00  0.00    -0.266 OA
HETATM    8  H21 UNK     1      19.836  -1.248  33.971  1.00  0.00     0.190 HD
BRANCH   6   9
HETATM    9  C14 UNK     1      18.308   0.809  33.773  1.00  0.00     0.110 A 
HETATM   10  C15 UNK     1      18.179   2.081  34.167  1.00  0.00     0.037 A 
HETATM   11  C12 UNK     1      18.280   3.162  33.199  1.00  0.00     0.000 A 
HETATM   12  C13 UNK     1      18.512   2.849  31.863  1.00  0.00     0.089 A 
HETATM   13  C17 UNK     1      18.152   4.504  33.564  1.00  0.00     0.033 A 
HETATM   14  O2  UNK     1      18.647   1.508  31.455  1.00  0.00    -0.274 OA
HETATM   15  C18 UNK     1      18.618   3.837  30.885  1.00  0.00     0.039 A 
HETATM   16  C19 UNK     1      18.554   0.453  32.358  1.00  0.00     0.304 A 
HETATM   17  O4  UNK     1      18.673  -0.713  31.994  1.00  0.00    -0.259 OA
HETATM   18  C22 UNK     1      18.490   5.173  31.259  1.00  0.00     0.022 A 
HETATM   19  C21 UNK     1      18.256   5.506  32.595  1.00  0.00     0.011 A 
HETATM   20 Br1  UNK     1      18.084   7.322  33.095  1.00  0.00    -0.051 Br
ENDBRANCH   6   9
ENDBRANCH   2   5
BRANCH   3  21
HETATM   21  C11 UNK     1      20.192  -3.827  37.076  1.00  0.00     0.280 C 
BRANCH  21  22
HETATM   22  O1  UNK     1      20.907  -4.977  36.679  1.00  0.00    -0.341 OA
BRANCH  22  23
HETATM   23  C3  UNK     1      20.215  -6.165  36.644  1.00  0.00     0.076 A 
HETATM   24  C2  UNK     1      20.724  -7.291  37.277  1.00  0.00    -0.021 A 
HETATM   25  C6  UNK     1      20.010  -8.489  37.231  1.00  0.00     0.011 A 
HETATM   26  C9  UNK     1      18.793  -8.549  36.551  1.00  0.00     0.007 A 
HETATM   27  C8  UNK     1      18.290  -7.412  35.918  1.00  0.00    -0.059 A 
HETATM   28  C10 UNK     1      16.989  -7.478  35.192  1.00  0.00     0.048 C 
HETATM   29  C7  UNK     1      19.004  -6.215  35.965  1.00  0.00     0.044 A 
BRANCH  24  30
HETATM   30  C1  UNK     1      22.025  -7.245  38.008  1.00  0.00     0.013 C 
HETATM   31  C4  UNK     1      21.839  -7.164  39.534  1.00  0.00     0.015 C 
HETATM   32  C5  UNK     1      22.940  -8.432  37.654  1.00  0.00     0.015 C 
ENDBRANCH  24  30
ENDBRANCH  22  23
ENDBRANCH  21  22
ENDBRANCH   3  21
TORSDOF 6
ENDMDL
MODEL 2
REMARK VINA RESULT:      -9.7      0.968      2.508
REMARK  6 active torsions:
REMARK  status: ('A' for Active; 'I' for Inactive)
REMARK    1  A    between atoms: C11_19  and  O1_2 
REMARK    2  A    between atoms: C3_11  and  O1_2 
REMARK       I    between atoms: C16_24  and  N1_7 
REMARK    3  A    between atoms: N1_7  and  N2_8 
REMARK       I    between atoms: C20_28  and  N2_8 
REMARK    4  A    between atoms: C1_9  and  C2_10 
REMARK    5  A    between atoms: C11_19  and  C16_24 
REMARK    6  A    between atoms: C14_22  and  C20_28 
ROOT
HETATM    1  O3  UNK     1      20.359  -3.399  34.809  1.00  0.00    -0.269 OA
HETATM    2  N1  UNK     1      19.682  -1.800  36.352  1.00  0.00    -0.265 N 
HETATM    3  C16 UNK     1      20.126  -3.050  35.963  1.00  0.00     0.260 C 
HETATM    4  H19 UNK     1      19.482  -1.550  37.315  1.00  0.00     0.190 HD
ENDROOT
BRANCH   2   5
HETATM    5  N2  UNK     1      19.471  -0.840  35.395  1.00  0.00    -0.263 N 
HETATM    6  C20 UNK     1      18.592   0.189  35.658  1.00  0.00     0.276 C 
HETATM    7  O5  UNK     1      17.949   0.350  36.693  1.00  0.00    -0.266 OA
HETATM    8  H21 UNK     1      19.959  -0.965  34.513  1.00  0.00     0.190 HD
BRANCH   6   9
HETATM    9  C14 UNK     1      18.476   1.134  34.540  1.00  0.00     0.110 A 
HETATM   10  C15 UNK     1      18.473   2.432  34.862  1.00  0.00     0.037 A 
HETATM   11  C12 UNK     1      18.362   3.445  33.824  1.00  0.00     0.000 A 
HETATM   12  C13 UNK     1      18.261   3.039  32.496  1.00  0.00     0.089 A 
HETATM   13  C17 UNK     1      18.354   4.811  34.113  1.00  0.00     0.033 A 
HETATM   14  O2  UNK     1      18.265   1.670  32.164  1.00  0.00    -0.274 OA
HETATM   15  C18 UNK     1      18.151   3.958  31.454  1.00  0.00     0.039 A 
HETATM   16  C19 UNK     1      18.369   0.679  33.136  1.00  0.00     0.304 A 
HETATM   17  O4  UNK     1      18.373  -0.511  32.838  1.00  0.00    -0.259 OA
HETATM   18  C22 UNK     1      18.144   5.319  31.752  1.00  0.00     0.022 A 
HETATM   19  C21 UNK     1      18.244   5.745  33.078  1.00  0.00     0.011 A 
HETATM   20 Br1  UNK     1      18.235   7.594  33.475  1.00  0.00    -0.051 Br
ENDBRANCH   6   9
ENDBRANCH   2   5
BRANCH   3  21
HETATM   21  C11 UNK     1      20.301  -3.972  37.150  1.00  0.00     0.280 C 
BRANCH  21  22
HETATM   22  O1  UNK     1      21.330  -4.908  36.906  1.00  0.00    -0.341 OA
BRANCH  22  23
HETATM   23  C3  UNK     1      21.151  -6.179  37.402  1.00  0.00     0.076 A 
HETATM   24  C2  UNK     1      20.286  -7.062  36.769  1.00  0.00    -0.021 A 
HETATM   25  C6  UNK     1      20.115  -8.346  37.285  1.00  0.00     0.011 A 
HETATM   26  C9  UNK     1      20.812  -8.737  38.430  1.00  0.00     0.007 A 
HETATM   27  C8  UNK     1      21.679  -7.842  39.057  1.00  0.00    -0.059 A 
HETATM   28  C10 UNK     1      22.424  -8.261  40.280  1.00  0.00     0.048 C 
HETATM   29  C7  UNK     1      21.850  -6.558  38.541  1.00  0.00     0.044 A 
BRANCH  24  30
HETATM   30  C1  UNK     1      19.531  -6.661  35.545  1.00  0.00     0.013 C 
HETATM   31  C4  UNK     1      20.301  -6.980  34.251  1.00  0.00     0.015 C 
HETATM   32  C5  UNK     1      18.127  -7.290  35.488  1.00  0.00     0.015 C 
ENDBRANCH  24  30
ENDBRANCH  22  23
ENDBRANCH  21  22
ENDBRANCH   3  21
TORSDOF 6
ENDMDL
MODEL 3
REMARK VINA RESULT:      -9.6      8.246     11.344
REMARK  6 active torsions:
REMARK  status: ('A' for Active; 'I' for Inactive)
REMARK    1  A    between atoms: C11_19  and  O1_2 
REMARK    2  A    between atoms: C3_11  and  O1_2 
REMARK       I    between atoms: C16_24  and  N1_7 
REMARK    3  A    between atoms: N1_7  and  N2_8 
REMARK       I    between atoms: C20_28  and  N2_8 
REMARK    4  A    between atoms: C1_9  and  C2_10 
REMARK    5  A    between atoms: C11_19  and  C16_24 
REMARK    6  A    between atoms: C14_22  and  C20_28 
ROOT
HETATM    1  O3  UNK     1      22.883  -6.596  39.836  1.00  0.00    -0.269 OA
HETATM    2  N1  UNK     1      24.204  -8.353  39.087  1.00  0.00    -0.265 N 
HETATM    3  C16 UNK     1      23.049  -7.788  39.594  1.00  0.00     0.260 C 
HETATM    4  H19 UNK     1      24.314  -9.347  38.915  1.00  0.00     0.190 HD
ENDROOT
BRANCH   2   5
HETATM    5  N2  UNK     1      25.279  -7.544  38.818  1.00  0.00    -0.263 N 
HETATM    6  C20 UNK     1      26.537  -7.943  39.219  1.00  0.00     0.276 C 
HETATM    7  O5  UNK     1      26.816  -8.982  39.814  1.00  0.00    -0.266 OA
HETATM    8  H21 UNK     1      25.078  -6.660  38.361  1.00  0.00     0.190 HD
BRANCH   6   9
HETATM    9  C14 UNK     1      27.579  -6.974  38.859  1.00  0.00     0.110 A 
HETATM   10  C15 UNK     1      28.813  -7.466  38.696  1.00  0.00     0.037 A 
HETATM   11  C12 UNK     1      29.913  -6.585  38.339  1.00  0.00     0.000 A 
HETATM   12  C13 UNK     1      29.659  -5.227  38.170  1.00  0.00     0.089 A 
HETATM   13  C17 UNK     1      31.216  -7.054  38.159  1.00  0.00     0.033 A 
HETATM   14  O2  UNK     1      28.358  -4.715  38.342  1.00  0.00    -0.274 OA
HETATM   15  C18 UNK     1      30.668  -4.328  37.829  1.00  0.00     0.039 A 
HETATM   16  C19 UNK     1      27.286  -5.534  38.685  1.00  0.00     0.304 A 
HETATM   17  O4  UNK     1      26.156  -5.080  38.833  1.00  0.00    -0.259 OA
HETATM   18  C22 UNK     1      31.965  -4.805  37.651  1.00  0.00     0.022 A 
HETATM   19  C21 UNK     1      32.239  -6.165  37.817  1.00  0.00     0.011 A 
HETATM   20 Br1  UNK     1      34.001  -6.806  37.573  1.00  0.00    -0.051 Br
ENDBRANCH   6   9
ENDBRANCH   2   5
BRANCH   3  21
HETATM   21  C11 UNK     1      21.976  -8.829  39.826  1.00  0.00     0.280 C 
BRANCH  21  22
HETATM   22  O1  UNK     1      20.835  -8.553  39.041  1.00  0.00    -0.341 OA
BRANCH  22  23
HETATM   23  C3  UNK     1      20.977  -8.635  37.676  1.00  0.00     0.076 A 
HETATM   24  C2  UNK     1      20.538  -7.599  36.862  1.00  0.00    -0.021 A 
HETATM   25  C6  UNK     1      20.689  -7.698  35.479  1.00  0.00     0.011 A 
HETATM   26  C9  UNK     1      21.279  -8.834  34.922  1.00  0.00     0.007 A 
HETATM   27  C8  UNK     1      21.716  -9.869  35.748  1.00  0.00    -0.059 A 
HETATM   28  C10 UNK     1      22.346 -11.082  35.152  1.00  0.00     0.048 C 
HETATM   29  C7  UNK     1      21.565  -9.769  37.131  1.00  0.00     0.044 A 
BRANCH  24  30
HETATM   30  C1  UNK     1      19.905  -6.377  37.441  1.00  0.00     0.013 C 
HETATM   31  C4  UNK     1      20.825  -5.146  37.364  1.00  0.00     0.015 C 
HETATM   32  C5  UNK     1      18.546  -6.056  36.792  1.00  0.00     0.015 C 
ENDBRANCH  24  30
ENDBRANCH  22  23
ENDBRANCH  21  22
ENDBRANCH   3  21
TORSDOF 6
ENDMDL
MODEL 4
REMARK VINA RESULT:      -9.5      3.680     10.685
REMARK  6 active torsions:
REMARK  status: ('A' for Active; 'I' for Inactive)
REMARK    1  A    between atoms: C11_19  and  O1_2 
REMARK    2  A    between atoms: C3_11  and  O1_2 
REMARK       I    between atoms: C16_24  and  N1_7 
REMARK    3  A    between atoms: N1_7  and  N2_8 
REMARK       I    between atoms: C20_28  and  N2_8 
REMARK    4  A    between atoms: C1_9  and  C2_10 
REMARK    5  A    between atoms: C11_19  and  C16_24 
REMARK    6  A    between atoms: C14_22  and  C20_28 
ROOT
HETATM    1  O3  UNK     1      17.964  -0.615  32.940  1.00  0.00    -0.269 OA
HETATM    2  N1  UNK     1      19.098  -0.580  34.967  1.00  0.00    -0.265 N 
HETATM    3  C16 UNK     1      18.389  -0.015  33.924  1.00  0.00     0.260 C 
HETATM    4  H19 UNK     1      19.450  -0.051  35.759  1.00  0.00     0.190 HD
ENDROOT
BRANCH   2   5
HETATM    5  N2  UNK     1      19.369  -1.925  34.938  1.00  0.00    -0.263 N 
HETATM    6  C20 UNK     1      19.667  -2.576  36.117  1.00  0.00     0.276 C 
HETATM    7  O5  UNK     1      19.719  -2.068  37.236  1.00  0.00    -0.266 OA
HETATM    8  H21 UNK     1      19.371  -2.367  34.024  1.00  0.00     0.190 HD
BRANCH   6   9
HETATM    9  C14 UNK     1      19.932  -4.006  35.922  1.00  0.00     0.110 A 
HETATM   10  C15 UNK     1      19.727  -4.795  36.983  1.00  0.00     0.037 A 
HETATM   11  C12 UNK     1      19.963  -6.227  36.889  1.00  0.00     0.000 A 
HETATM   12  C13 UNK     1      20.401  -6.758  35.679  1.00  0.00     0.089 A 
HETATM   13  C17 UNK     1      19.763  -7.089  37.970  1.00  0.00     0.033 A 
HETATM   14  O2  UNK     1      20.613  -5.923  34.566  1.00  0.00    -0.274 OA
HETATM   15  C18 UNK     1      20.645  -8.122  35.522  1.00  0.00     0.039 A 
HETATM   16  C19 UNK     1      20.397  -4.549  34.627  1.00  0.00     0.304 A 
HETATM   17  O4  UNK     1      20.585  -3.828  33.652  1.00  0.00    -0.259 OA
HETATM   18  C22 UNK     1      20.444  -8.973  36.606  1.00  0.00     0.022 A 
HETATM   19  C21 UNK     1      20.004  -8.458  37.828  1.00  0.00     0.011 A 
HETATM   20 Br1  UNK     1      19.732  -9.620  39.294  1.00  0.00    -0.051 Br
ENDBRANCH   6   9
ENDBRANCH   2   5
BRANCH   3  21
HETATM   21  C11 UNK     1      18.186   1.470  34.129  1.00  0.00     0.280 C 
BRANCH  21  22
HETATM   22  O1  UNK     1      17.509   2.038  33.028  1.00  0.00    -0.341 OA
BRANCH  22  23
HETATM   23  C3  UNK     1      18.089   3.133  32.432  1.00  0.00     0.076 A 
HETATM   24  C2  UNK     1      18.496   3.076  31.105  1.00  0.00    -0.021 A 
HETATM   25  C6  UNK     1      19.084   4.196  30.517  1.00  0.00     0.011 A 
HETATM   26  C9  UNK     1      19.260   5.363  31.261  1.00  0.00     0.007 A 
HETATM   27  C8  UNK     1      18.848   5.410  32.593  1.00  0.00    -0.059 A 
HETATM   28  C10 UNK     1      19.036   6.659  33.387  1.00  0.00     0.048 C 
HETATM   29  C7  UNK     1      18.260   4.291  33.181  1.00  0.00     0.044 A 
BRANCH  24  30
HETATM   30  C1  UNK     1      18.316   1.835  30.295  1.00  0.00     0.013 C 
HETATM   31  C4  UNK     1      17.951   2.139  28.830  1.00  0.00     0.015 C 
HETATM   32  C5  UNK     1      19.550   0.916  30.347  1.00  0.00     0.015 C 
ENDBRANCH  24  30
ENDBRANCH  22  23
ENDBRANCH  21  22
ENDBRANCH   3  21
TORSDOF 6
ENDMDL
MODEL 5
REMARK VINA RESULT:      -9.4      5.176      8.247
REMARK  6 active torsions:
REMARK  status: ('A' for Active; 'I' for Inactive)
REMARK    1  A    between atoms: C11_19  and  O1_2 
REMARK    2  A    between atoms: C3_11  and  O1_2 
REMARK       I    between atoms: C16_24  and  N1_7 
REMARK    3  A    between atoms: N1_7  and  N2_8 
REMARK       I    between atoms: C20_28  and  N2_8 
REMARK    4  A    between atoms: C1_9  and  C2_10 
REMARK    5  A    between atoms: C11_19  and  C16_24 
REMARK    6  A    between atoms: C14_22  and  C20_28 
ROOT
HETATM    1  O3  UNK     1      19.110   2.798  35.546  1.00  0.00    -0.269 OA
HETATM    2  N1  UNK     1      18.089   3.419  33.555  1.00  0.00    -0.265 N 
HETATM    3  C16 UNK     1      18.527   2.515  34.503  1.00  0.00     0.260 C 
HETATM    4  H19 UNK     1      17.624   3.149  32.693  1.00  0.00     0.190 HD
ENDROOT
BRANCH   2   5
HETATM    5  N2  UNK     1      18.304   4.759  33.761  1.00  0.00    -0.263 N 
HETATM    6  C20 UNK     1      17.632   5.675  32.980  1.00  0.00     0.276 C 
HETATM    7  O5  UNK     1      16.830   5.418  32.083  1.00  0.00    -0.266 OA
HETATM    8  H21 UNK     1      18.990   5.003  34.469  1.00  0.00     0.190 HD
BRANCH   6   9
HETATM    9  C14 UNK     1      17.968   7.063  33.321  1.00  0.00     0.110 A 
HETATM   10  C15 UNK     1      16.940   7.916  33.404  1.00  0.00     0.037 A 
HETATM   11  C12 UNK     1      17.171   9.312  33.736  1.00  0.00     0.000 A 
HETATM   12  C13 UNK     1      18.475   9.742  33.966  1.00  0.00     0.089 A 
HETATM   13  C17 UNK     1      16.130  10.238  33.834  1.00  0.00     0.033 A 
HETATM   14  O2  UNK     1      19.552   8.839  33.877  1.00  0.00    -0.274 OA
HETATM   15  C18 UNK     1      18.765  11.067  34.287  1.00  0.00     0.039 A 
HETATM   16  C19 UNK     1      19.362   7.497  33.560  1.00  0.00     0.304 A 
HETATM   17  O4  UNK     1      20.306   6.718  33.485  1.00  0.00    -0.259 OA
HETATM   18  C22 UNK     1      17.720  11.983  34.383  1.00  0.00     0.022 A 
HETATM   19  C21 UNK     1      16.405  11.570  34.156  1.00  0.00     0.011 A 
HETATM   20 Br1  UNK     1      14.991  12.819  34.288  1.00  0.00    -0.051 Br
ENDBRANCH   6   9
ENDBRANCH   2   5
BRANCH   3  21
HETATM   21  C11 UNK     1      18.202   1.091  34.107  1.00  0.00     0.280 C 
BRANCH  21  22
HETATM   22  O1  UNK     1      17.875   1.017  32.735  1.00  0.00    -0.341 OA
BRANCH  22  23
HETATM   23  C3  UNK     1      18.766   0.369  31.913  1.00  0.00     0.076 A 
HETATM   24  C2  UNK     1      19.011   0.845  30.631  1.00  0.00    -0.021 A 
HETATM   25  C6  UNK     1      19.916   0.174  29.809  1.00  0.00     0.011 A 
HETATM   26  C9  UNK     1      20.570  -0.967  30.276  1.00  0.00     0.007 A 
HETATM   27  C8  UNK     1      20.317  -1.437  31.565  1.00  0.00    -0.059 A 
HETATM   28  C10 UNK     1      21.016  -2.657  32.063  1.00  0.00     0.048 C 
HETATM   29  C7  UNK     1      19.411  -0.767  32.387  1.00  0.00     0.044 A 
BRANCH  24  30
HETATM   30  C1  UNK     1      18.321   2.063  30.115  1.00  0.00     0.013 C 
HETATM   31  C4  UNK     1      19.172   3.335  30.282  1.00  0.00     0.015 C 
HETATM   32  C5  UNK     1      17.886   1.914  28.645  1.00  0.00     0.015 C 
ENDBRANCH  24  30
ENDBRANCH  22  23
ENDBRANCH  21  22
ENDBRANCH   3  21
TORSDOF 6
ENDMDL
MODEL 6
REMARK VINA RESULT:      -9.2      7.765     11.257
REMARK  6 active torsions:
REMARK  status: ('A' for Active; 'I' for Inactive)
REMARK    1  A    between atoms: C11_19  and  O1_2 
REMARK    2  A    between atoms: C3_11  and  O1_2 
REMARK       I    between atoms: C16_24  and  N1_7 
REMARK    3  A    between atoms: N1_7  and  N2_8 
REMARK       I    between atoms: C20_28  and  N2_8 
REMARK    4  A    between atoms: C1_9  and  C2_10 
REMARK    5  A    between atoms: C11_19  and  C16_24 
REMARK    6  A    between atoms: C14_22  and  C20_28 
ROOT
HETATM    1  O3  UNK     1      22.877  -6.732  40.013  1.00  0.00    -0.269 OA
HETATM    2  N1  UNK     1      24.003  -8.337  38.767  1.00  0.00    -0.265 N 
HETATM    3  C16 UNK     1      22.935  -7.843  39.491  1.00  0.00     0.260 C 
HETATM    4  H19 UNK     1      24.025  -9.268  38.363  1.00  0.00     0.190 HD
ENDROOT
BRANCH   2   5
HETATM    5  N2  UNK     1      25.113  -7.549  38.595  1.00  0.00    -0.263 N 
HETATM    6  C20 UNK     1      26.330  -7.990  39.070  1.00  0.00     0.276 C 
HETATM    7  O5  UNK     1      26.543  -9.051  39.654  1.00  0.00    -0.266 OA
HETATM    8  H21 UNK     1      24.965  -6.649  38.149  1.00  0.00     0.190 HD
BRANCH   6   9
HETATM    9  C14 UNK     1      27.418  -7.039  38.809  1.00  0.00     0.110 A 
HETATM   10  C15 UNK     1      28.637  -7.566  38.645  1.00  0.00     0.037 A 
HETATM   11  C12 UNK     1      29.778  -6.704  38.383  1.00  0.00     0.000 A 
HETATM   12  C13 UNK     1      29.579  -5.329  38.304  1.00  0.00     0.089 A 
HETATM   13  C17 UNK     1      31.069  -7.209  38.205  1.00  0.00     0.033 A 
HETATM   14  O2  UNK     1      28.294  -4.781  38.476  1.00  0.00    -0.274 OA
HETATM   15  C18 UNK     1      30.631  -4.448  38.055  1.00  0.00     0.039 A 
HETATM   16  C19 UNK     1      27.183  -5.580  38.730  1.00  0.00     0.304 A 
HETATM   17  O4  UNK     1      26.066  -5.095  38.879  1.00  0.00    -0.259 OA
HETATM   18  C22 UNK     1      31.914  -4.961  37.880  1.00  0.00     0.022 A 
HETATM   19  C21 UNK     1      32.133  -6.339  37.955  1.00  0.00     0.011 A 
HETATM   20 Br1  UNK     1      33.877  -7.028  37.716  1.00  0.00    -0.051 Br
ENDBRANCH   6   9
ENDBRANCH   2   5
BRANCH   3  21
HETATM   21  C11 UNK     1      21.806  -8.847  39.574  1.00  0.00     0.280 C 
BRANCH  21  22
HETATM   22  O1  UNK     1      20.585  -8.260  39.176  1.00  0.00    -0.341 OA
BRANCH  22  23
HETATM   23  C3  UNK     1      20.494  -7.823  37.876  1.00  0.00     0.076 A 
HETATM   24  C2  UNK     1      20.641  -8.718  36.824  1.00  0.00    -0.021 A 
HETATM   25  C6  UNK     1      20.547  -8.258  35.511  1.00  0.00     0.011 A 
HETATM   26  C9  UNK     1      20.307  -6.906  35.261  1.00  0.00     0.007 A 
HETATM   27  C8  UNK     1      20.161  -6.015  36.324  1.00  0.00    -0.059 A 
HETATM   28  C10 UNK     1      19.903  -4.571  36.056  1.00  0.00     0.048 C 
HETATM   29  C7  UNK     1      20.254  -6.476  37.637  1.00  0.00     0.044 A 
BRANCH  24  30
HETATM   30  C1  UNK     1      20.900 -10.167  37.073  1.00  0.00     0.013 C 
HETATM   31  C4  UNK     1      19.601 -10.970  37.269  1.00  0.00     0.015 C 
HETATM   32  C5  UNK     1      21.750 -10.811  35.963  1.00  0.00     0.015 C 
ENDBRANCH  24  30
ENDBRANCH  22  23
ENDBRANCH  21  22
ENDBRANCH   3  21
TORSDOF 6
ENDMDL
MODEL 7
REMARK VINA RESULT:      -9.2      6.177      9.258
REMARK  6 active torsions:
REMARK  status: ('A' for Active; 'I' for Inactive)
REMARK    1  A    between atoms: C11_19  and  O1_2 
REMARK    2  A    between atoms: C3_11  and  O1_2 
REMARK       I    between atoms: C16_24  and  N1_7 
REMARK    3  A    between atoms: N1_7  and  N2_8 
REMARK       I    between atoms: C20_28  and  N2_8 
REMARK    4  A    between atoms: C1_9  and  C2_10 
REMARK    5  A    between atoms: C11_19  and  C16_24 
REMARK    6  A    between atoms: C14_22  and  C20_28 
ROOT
HETATM    1  O3  UNK     1      18.786   5.120  33.416  1.00  0.00    -0.269 OA
HETATM    2  N1  UNK     1      16.960   5.482  32.027  1.00  0.00    -0.265 N 
HETATM    3  C16 UNK     1      18.135   4.863  32.406  1.00  0.00     0.260 C 
HETATM    4  H19 UNK     1      16.455   5.256  31.175  1.00  0.00     0.190 HD
ENDROOT
BRANCH   2   5
HETATM    5  N2  UNK     1      16.442   6.475  32.820  1.00  0.00    -0.263 N 
HETATM    6  C20 UNK     1      16.267   7.735  32.290  1.00  0.00     0.276 C 
HETATM    7  O5  UNK     1      16.532   8.086  31.142  1.00  0.00    -0.266 OA
HETATM    8  H21 UNK     1      16.248   6.227  33.786  1.00  0.00     0.190 HD
BRANCH   6   9
HETATM    9  C14 UNK     1      15.706   8.684  33.260  1.00  0.00     0.110 A 
HETATM   10  C15 UNK     1      14.707   9.458  32.820  1.00  0.00     0.037 A 
HETATM   11  C12 UNK     1      14.086  10.429  33.707  1.00  0.00     0.000 A 
HETATM   12  C13 UNK     1      14.547  10.535  35.016  1.00  0.00     0.089 A 
HETATM   13  C17 UNK     1      13.041  11.257  33.291  1.00  0.00     0.033 A 
HETATM   14  O2  UNK     1      15.599   9.718  35.473  1.00  0.00    -0.274 OA
HETATM   15  C18 UNK     1      13.996  11.446  35.916  1.00  0.00     0.039 A 
HETATM   16  C19 UNK     1      16.213   8.780  34.647  1.00  0.00     0.304 A 
HETATM   17  O4  UNK     1      17.128   8.072  35.054  1.00  0.00    -0.259 OA
HETATM   18  C22 UNK     1      12.955  12.268  35.493  1.00  0.00     0.022 A 
HETATM   19  C21 UNK     1      12.478  12.175  34.183  1.00  0.00     0.011 A 
HETATM   20 Br1  UNK     1      11.064  13.294  33.615  1.00  0.00    -0.051 Br
ENDBRANCH   6   9
ENDBRANCH   2   5
BRANCH   3  21
HETATM   21  C11 UNK     1      18.549   3.798  31.414  1.00  0.00     0.280 C 
BRANCH  21  22
HETATM   22  O1  UNK     1      17.810   2.613  31.616  1.00  0.00    -0.341 OA
BRANCH  22  23
HETATM   23  C3  UNK     1      18.504   1.426  31.575  1.00  0.00     0.076 A 
HETATM   24  C2  UNK     1      18.515   0.583  32.679  1.00  0.00    -0.021 A 
HETATM   25  C6  UNK     1      19.225  -0.616  32.622  1.00  0.00     0.011 A 
HETATM   26  C9  UNK     1      19.918  -0.962  31.461  1.00  0.00     0.007 A 
HETATM   27  C8  UNK     1      19.901  -0.108  30.358  1.00  0.00    -0.059 A 
HETATM   28  C10 UNK     1      20.642  -0.478  29.118  1.00  0.00     0.048 C 
HETATM   29  C7  UNK     1      19.191   1.091  30.415  1.00  0.00     0.044 A 
BRANCH  24  30
HETATM   30  C1  UNK     1      17.779   0.937  33.929  1.00  0.00     0.013 C 
HETATM   31  C4  UNK     1      17.274  -0.305  34.684  1.00  0.00     0.015 C 
HETATM   32  C5  UNK     1      18.617   1.819  34.873  1.00  0.00     0.015 C 
ENDBRANCH  24  30
ENDBRANCH  22  23
ENDBRANCH  21  22
ENDBRANCH   3  21
TORSDOF 6
ENDMDL
MODEL 8
REMARK VINA RESULT:      -9.1      1.812      2.432
REMARK  6 active torsions:
REMARK  status: ('A' for Active; 'I' for Inactive)
REMARK    1  A    between atoms: C11_19  and  O1_2 
REMARK    2  A    between atoms: C3_11  and  O1_2 
REMARK       I    between atoms: C16_24  and  N1_7 
REMARK    3  A    between atoms: N1_7  and  N2_8 
REMARK       I    between atoms: C20_28  and  N2_8 
REMARK    4  A    between atoms: C1_9  and  C2_10 
REMARK    5  A    between atoms: C11_19  and  C16_24 
REMARK    6  A    between atoms: C14_22  and  C20_28 
ROOT
HETATM    1  O3  UNK     1      20.127  -1.700  36.565  1.00  0.00    -0.269 OA
HETATM    2  N1  UNK     1      19.925  -3.327  34.919  1.00  0.00    -0.265 N 
HETATM    3  C16 UNK     1      20.128  -2.876  36.210  1.00  0.00     0.260 C 
HETATM    4  H19 UNK     1      19.949  -4.307  34.656  1.00  0.00     0.190 HD
ENDROOT
BRANCH   2   5
HETATM    5  N2  UNK     1      19.699  -2.413  33.921  1.00  0.00    -0.263 N 
HETATM    6  C20 UNK     1      20.427  -2.499  32.754  1.00  0.00     0.276 C 
HETATM    7  O5  UNK     1      21.291  -3.335  32.495  1.00  0.00    -0.266 OA
HETATM    8  H21 UNK     1      19.018  -1.685  34.119  1.00  0.00     0.190 HD
BRANCH   6   9
HETATM    9  C14 UNK     1      20.071  -1.454  31.786  1.00  0.00     0.110 A 
HETATM   10  C15 UNK     1      19.611  -0.306  32.298  1.00  0.00     0.037 A 
HETATM   11  C12 UNK     1      19.231   0.789  31.420  1.00  0.00     0.000 A 
HETATM   12  C13 UNK     1      19.356   0.621  30.044  1.00  0.00     0.089 A 
HETATM   13  C17 UNK     1      18.746   2.004  31.909  1.00  0.00     0.033 A 
HETATM   14  O2  UNK     1      19.841  -0.589  29.511  1.00  0.00    -0.274 OA
HETATM   15  C18 UNK     1      19.009   1.630  29.147  1.00  0.00     0.039 A 
HETATM   16  C19 UNK     1      20.211  -1.654  30.327  1.00  0.00     0.304 A 
HETATM   17  O4  UNK     1      20.633  -2.705  29.855  1.00  0.00    -0.259 OA
HETATM   18  C22 UNK     1      18.527   2.839  29.644  1.00  0.00     0.022 A 
HETATM   19  C21 UNK     1      18.395   3.025  31.023  1.00  0.00     0.011 A 
HETATM   20 Br1  UNK     1      17.739   4.668  31.690  1.00  0.00    -0.051 Br
ENDBRANCH   6   9
ENDBRANCH   2   5
BRANCH   3  21
HETATM   21  C11 UNK     1      20.359  -4.023  37.170  1.00  0.00     0.280 C 
BRANCH  21  22
HETATM   22  O1  UNK     1      20.912  -5.133  36.496  1.00  0.00    -0.341 OA
BRANCH  22  23
HETATM   23  C3  UNK     1      20.201  -6.310  36.539  1.00  0.00     0.076 A 
HETATM   24  C2  UNK     1      20.689  -7.398  37.251  1.00  0.00    -0.021 A 
HETATM   25  C6  UNK     1      19.957  -8.584  37.283  1.00  0.00     0.011 A 
HETATM   26  C9  UNK     1      18.742  -8.672  36.602  1.00  0.00     0.007 A 
HETATM   27  C8  UNK     1      18.261  -7.574  35.889  1.00  0.00    -0.059 A 
HETATM   28  C10 UNK     1      16.962  -7.669  35.161  1.00  0.00     0.048 C 
HETATM   29  C7  UNK     1      18.993  -6.388  35.857  1.00  0.00     0.044 A 
BRANCH  24  30
HETATM   30  C1  UNK     1      21.987  -7.321  37.985  1.00  0.00     0.013 C 
HETATM   31  C4  UNK     1      21.797  -7.279  39.512  1.00  0.00     0.015 C 
HETATM   32  C5  UNK     1      22.943  -8.468  37.609  1.00  0.00     0.015 C 
ENDBRANCH  24  30
ENDBRANCH  22  23
ENDBRANCH  21  22
ENDBRANCH   3  21
TORSDOF 6
ENDMDL
MODEL 9
REMARK VINA RESULT:      -9.1      3.556     10.717
REMARK  6 active torsions:
REMARK  status: ('A' for Active; 'I' for Inactive)
REMARK    1  A    between atoms: C11_19  and  O1_2 
REMARK    2  A    between atoms: C3_11  and  O1_2 
REMARK       I    between atoms: C16_24  and  N1_7 
REMARK    3  A    between atoms: N1_7  and  N2_8 
REMARK       I    between atoms: C20_28  and  N2_8 
REMARK    4  A    between atoms: C1_9  and  C2_10 
REMARK    5  A    between atoms: C11_19  and  C16_24 
REMARK    6  A    between atoms: C14_22  and  C20_28 
ROOT
HETATM    1  O3  UNK     1      17.224  -0.024  34.079  1.00  0.00    -0.269 OA
HETATM    2  N1  UNK     1      18.992   0.315  35.546  1.00  0.00    -0.265 N 
HETATM    3  C16 UNK     1      18.086   0.696  34.575  1.00  0.00     0.260 C 
HETATM    4  H19 UNK     1      19.705   0.932  35.923  1.00  0.00     0.190 HD
ENDROOT
BRANCH   2   5
HETATM    5  N2  UNK     1      18.957  -0.971  36.024  1.00  0.00    -0.263 N 
HETATM    6  C20 UNK     1      20.125  -1.701  36.074  1.00  0.00     0.276 C 
HETATM    7  O5  UNK     1      21.240  -1.316  35.726  1.00  0.00    -0.266 OA
HETATM    8  H21 UNK     1      18.044  -1.332  36.284  1.00  0.00     0.190 HD
BRANCH   6   9
HETATM    9  C14 UNK     1      19.925  -3.054  36.607  1.00  0.00     0.110 A 
HETATM   10  C15 UNK     1      21.012  -3.666  37.092  1.00  0.00     0.037 A 
HETATM   11  C12 UNK     1      20.913  -5.008  37.642  1.00  0.00     0.000 A 
HETATM   12  C13 UNK     1      19.674  -5.641  37.655  1.00  0.00     0.089 A 
HETATM   13  C17 UNK     1      22.021  -5.686  38.158  1.00  0.00     0.033 A 
HETATM   14  O2  UNK     1      18.534  -4.992  37.144  1.00  0.00    -0.274 OA
HETATM   15  C18 UNK     1      19.512  -6.927  38.167  1.00  0.00     0.039 A 
HETATM   16  C19 UNK     1      18.597  -3.707  36.611  1.00  0.00     0.304 A 
HETATM   17  O4  UNK     1      17.599  -3.149  36.168  1.00  0.00    -0.259 OA
HETATM   18  C22 UNK     1      20.621  -7.595  38.680  1.00  0.00     0.022 A 
HETATM   19  C21 UNK     1      21.874  -6.976  38.675  1.00  0.00     0.011 A 
HETATM   20 Br1  UNK     1      23.376  -7.887  39.374  1.00  0.00    -0.051 Br
ENDBRANCH   6   9
ENDBRANCH   2   5
BRANCH   3  21
HETATM   21  C11 UNK     1      18.275   2.143  34.175  1.00  0.00     0.280 C 
BRANCH  21  22
HETATM   22  O1  UNK     1      17.668   2.398  32.926  1.00  0.00    -0.341 OA
BRANCH  22  23
HETATM   23  C3  UNK     1      18.173   3.441  32.185  1.00  0.00     0.076 A 
HETATM   24  C2  UNK     1      18.489   3.260  30.845  1.00  0.00    -0.021 A 
HETATM   25  C6  UNK     1      19.002   4.327  30.108  1.00  0.00     0.011 A 
HETATM   26  C9  UNK     1      19.194   5.568  30.718  1.00  0.00     0.007 A 
HETATM   27  C8  UNK     1      18.874   5.739  32.065  1.00  0.00    -0.059 A 
HETATM   28  C10 UNK     1      19.080   7.065  32.716  1.00  0.00     0.048 C 
HETATM   29  C7  UNK     1      18.361   4.672  32.801  1.00  0.00     0.044 A 
BRANCH  24  30
HETATM   30  C1  UNK     1      18.291   1.940  30.176  1.00  0.00     0.013 C 
HETATM   31  C4  UNK     1      17.977   2.083  28.675  1.00  0.00     0.015 C 
HETATM   32  C5  UNK     1      19.491   0.996  30.372  1.00  0.00     0.015 C 
ENDBRANCH  24  30
ENDBRANCH  22  23
ENDBRANCH  21  22
ENDBRANCH   3  21
TORSDOF 6
ENDMDL
MODEL 10
REMARK VINA RESULT:      -9.0      1.554      2.103
REMARK  6 active torsions:
REMARK  status: ('A' for Active; 'I' for Inactive)
REMARK    1  A    between atoms: C11_19  and  O1_2 
REMARK    2  A    between atoms: C3_11  and  O1_2 
REMARK       I    between atoms: C16_24  and  N1_7 
REMARK    3  A    between atoms: N1_7  and  N2_8 
REMARK       I    between atoms: C20_28  and  N2_8 
REMARK    4  A    between atoms: C1_9  and  C2_10 
REMARK    5  A    between atoms: C11_19  and  C16_24 
REMARK    6  A    between atoms: C14_22  and  C20_28 
ROOT
HETATM    1  O3  UNK     1      20.408  -4.767  34.175  1.00  0.00    -0.269 OA
HETATM    2  N1  UNK     1      19.499  -3.350  35.776  1.00  0.00    -0.265 N 
HETATM    3  C16 UNK     1      20.017  -4.547  35.318  1.00  0.00     0.260 C 
HETATM    4  H19 UNK     1      19.167  -3.207  36.724  1.00  0.00     0.190 HD
ENDROOT
BRANCH   2   5
HETATM    5  N2  UNK     1      19.398  -2.293  34.907  1.00  0.00    -0.263 N 
HETATM    6  C20 UNK     1      18.417  -1.345  35.114  1.00  0.00     0.276 C 
HETATM    7  O5  UNK     1      17.590  -1.340  36.024  1.00  0.00    -0.266 OA
HETATM    8  H21 UNK     1      20.042  -2.288  34.123  1.00  0.00     0.190 HD
BRANCH   6   9
HETATM    9  C14 UNK     1      18.439  -0.280  34.104  1.00  0.00     0.110 A 
HETATM   10  C15 UNK     1      18.284   0.969  34.560  1.00  0.00     0.037 A 
HETATM   11  C12 UNK     1      18.290   2.092  33.636  1.00  0.00     0.000 A 
HETATM   12  C13 UNK     1      18.462   1.845  32.277  1.00  0.00     0.089 A 
HETATM   13  C17 UNK     1      18.132   3.412  34.066  1.00  0.00     0.033 A 
HETATM   14  O2  UNK     1      18.624   0.528  31.804  1.00  0.00    -0.274 OA
HETATM   15  C18 UNK     1      18.477   2.876  31.340  1.00  0.00     0.039 A 
HETATM   16  C19 UNK     1      18.621  -0.567  32.664  1.00  0.00     0.304 A 
HETATM   17  O4  UNK     1      18.764  -1.710  32.244  1.00  0.00    -0.259 OA
HETATM   18  C22 UNK     1      18.318   4.189  31.777  1.00  0.00     0.022 A 
HETATM   19  C21 UNK     1      18.146   4.457  33.138  1.00  0.00     0.011 A 
HETATM   20 Br1  UNK     1      17.931   6.241  33.725  1.00  0.00    -0.051 Br
ENDBRANCH   6   9
ENDBRANCH   2   5
BRANCH   3  21
HETATM   21  C11 UNK     1      20.052  -5.593  36.412  1.00  0.00     0.280 C 
BRANCH  21  22
HETATM   22  O1  UNK     1      21.331  -6.183  36.497  1.00  0.00    -0.341 OA
BRANCH  22  23
HETATM   23  C3  UNK     1      21.383  -7.534  36.750  1.00  0.00     0.076 A 
HETATM   24  C2  UNK     1      21.366  -8.003  38.057  1.00  0.00    -0.021 A 
HETATM   25  C6  UNK     1      21.420  -9.376  38.296  1.00  0.00     0.011 A 
HETATM   26  C9  UNK     1      21.491 -10.268  37.226  1.00  0.00     0.007 A 
HETATM   27  C8  UNK     1      21.507  -9.787  35.917  1.00  0.00    -0.059 A 
HETATM   28  C10 UNK     1      21.583 -10.741  34.773  1.00  0.00     0.048 C 
HETATM   29  C7  UNK     1      21.453  -8.414  35.678  1.00  0.00     0.044 A 
BRANCH  24  30
HETATM   30  C1  UNK     1      21.292  -7.063  39.214  1.00  0.00     0.013 C 
HETATM   31  C4  UNK     1      19.887  -7.017  39.844  1.00  0.00     0.015 C 
HETATM   32  C5  UNK     1      22.340  -7.379  40.296  1.00  0.00     0.015 C 
ENDBRANCH  24  30
ENDBRANCH  22  23
ENDBRANCH  21  22
ENDBRANCH   3  21
TORSDOF 6
ENDMDL
