MODEL 1
REMARK VINA RESULT:      -7.9      0.000      0.000
REMARK  8 active torsions:
REMARK  status: ('A' for Active; 'I' for Inactive)
REMARK    1  A    between atoms: C6_10  and  N1_4 
REMARK       I    between atoms: C9_13  and  N1_4 
REMARK    2  A    between atoms: C1_5  and  C2_6 
REMARK    3  A    between atoms: C1_5  and  C3_7 
REMARK    4  A    between atoms: C2_6  and  C4_8 
REMARK    5  A    between atoms: C3_7  and  C5_9 
REMARK    6  A    between atoms: C4_8  and  C6_10 
REMARK    7  A    between atoms: C5_9  and  C7_11 
REMARK    8  A    between atoms: C10_14  and  C9_13 
ROOT
HETATM    1  O2  UNK     1      18.022   3.112  28.660  1.00  0.00    -0.267 OA
HETATM    2  N1  UNK     1      19.248   4.186  30.328  1.00  0.00    -0.357 N 
HETATM    3  C9  UNK     1      18.691   3.092  29.687  1.00  0.00     0.257 C 
HETATM    4  H15 UNK     1      19.768   4.060  31.191  1.00  0.00     0.162 HD
ENDROOT
BRANCH   3   5
HETATM    5  C10 UNK     1      18.980   1.818  30.371  1.00  0.00     0.108 A 
HETATM    6  C14 UNK     1      18.607   1.582  31.783  1.00  0.00     0.304 A 
HETATM    7  O1  UNK     1      18.933   0.339  32.317  1.00  0.00    -0.274 OA
HETATM    8  O3  UNK     1      18.037   2.436  32.455  1.00  0.00    -0.259 OA
HETATM    9  C13 UNK     1      19.586  -0.650  31.555  1.00  0.00     0.089 A 
HETATM   10  C11 UNK     1      19.928  -0.408  30.229  1.00  0.00    -0.001 A 
HETATM   11  C16 UNK     1      19.870  -1.864  32.176  1.00  0.00     0.038 A 
HETATM   12  C12 UNK     1      19.600   0.883  29.641  1.00  0.00     0.037 A 
HETATM   13  C15 UNK     1      20.574  -1.412  29.505  1.00  0.00     0.014 A 
HETATM   14  C17 UNK     1      20.867  -2.636  30.115  1.00  0.00     0.001 A 
HETATM   15  C18 UNK     1      20.515  -2.861  31.448  1.00  0.00     0.003 A 
ENDBRANCH   3   5
BRANCH   2  16
HETATM   16  C6  UNK     1      19.104   5.532  29.847  1.00  0.00     0.123 C 
BRANCH  16  17
HETATM   17  C4  UNK     1      18.576   6.482  30.919  1.00  0.00     0.020 C 
BRANCH  17  18
HETATM   18  C2  UNK     1      18.935   6.026  32.337  1.00  0.00     0.002 C 
BRANCH  18  19
HETATM   19  C1  UNK     1      20.020   6.882  32.997  1.00  0.00     0.000 C 
BRANCH  19  20
HETATM   20  C3  UNK     1      19.567   7.743  34.180  1.00  0.00     0.000 C 
BRANCH  20  21
HETATM   21  C5  UNK     1      18.156   8.313  34.016  1.00  0.00    -0.000 C 
BRANCH  21  22
HETATM   22  C7  UNK     1      17.181   7.674  35.005  1.00  0.00    -0.005 C 
HETATM   23  C8  UNK     1      15.824   7.426  34.368  1.00  0.00     0.005 C 
ENDBRANCH  21  22
ENDBRANCH  20  21
ENDBRANCH  19  20
ENDBRANCH  18  19
ENDBRANCH  17  18
ENDBRANCH  16  17
ENDBRANCH   2  16
TORSDOF 8
ENDMDL
MODEL 2
REMARK VINA RESULT:      -7.7      1.180      2.157
REMARK  8 active torsions:
REMARK  status: ('A' for Active; 'I' for Inactive)
REMARK    1  A    between atoms: C6_10  and  N1_4 
REMARK       I    between atoms: C9_13  and  N1_4 
REMARK    2  A    between atoms: C1_5  and  C2_6 
REMARK    3  A    between atoms: C1_5  and  C3_7 
REMARK    4  A    between atoms: C2_6  and  C4_8 
REMARK    5  A    between atoms: C3_7  and  C5_9 
REMARK    6  A    between atoms: C4_8  and  C6_10 
REMARK    7  A    between atoms: C5_9  and  C7_11 
REMARK    8  A    between atoms: C10_14  and  C9_13 
ROOT
HETATM    1  O2  UNK     1      17.451   3.606  31.749  1.00  0.00    -0.267 OA
HETATM    2  N1  UNK     1      19.255   4.529  30.594  1.00  0.00    -0.357 N 
HETATM    3  C9  UNK     1      18.422   3.503  31.008  1.00  0.00     0.257 C 
HETATM    4  H15 UNK     1      20.049   4.330  29.994  1.00  0.00     0.162 HD
ENDROOT
BRANCH   3   5
HETATM    5  C10 UNK     1      18.809   2.192  30.457  1.00  0.00     0.108 A 
HETATM    6  C14 UNK     1      18.634   1.857  29.026  1.00  0.00     0.304 A 
HETATM    7  O1  UNK     1      19.037   0.587  28.625  1.00  0.00    -0.274 OA
HETATM    8  O3  UNK     1      18.157   2.657  28.227  1.00  0.00    -0.259 OA
HETATM    9  C13 UNK     1      19.587  -0.339  29.534  1.00  0.00     0.089 A 
HETATM   10  C11 UNK     1      19.744  -0.005  30.875  1.00  0.00    -0.001 A 
HETATM   11  C16 UNK     1      19.963  -1.586  29.039  1.00  0.00     0.038 A 
HETATM   12  C12 UNK     1      19.331   1.316  31.325  1.00  0.00     0.037 A 
HETATM   13  C15 UNK     1      20.293  -0.950  31.745  1.00  0.00     0.014 A 
HETATM   14  C17 UNK     1      20.674  -2.206  31.263  1.00  0.00     0.001 A 
HETATM   15  C18 UNK     1      20.509  -2.523  29.913  1.00  0.00     0.003 A 
ENDBRANCH   3   5
BRANCH   2  16
HETATM   16  C6  UNK     1      19.074   5.896  30.999  1.00  0.00     0.123 C 
BRANCH  16  17
HETATM   17  C4  UNK     1      20.030   6.305  32.115  1.00  0.00     0.020 C 
BRANCH  17  18
HETATM   18  C2  UNK     1      19.370   6.269  33.497  1.00  0.00     0.002 C 
BRANCH  18  19
HETATM   19  C1  UNK     1      19.206   7.653  34.132  1.00  0.00     0.000 C 
BRANCH  19  20
HETATM   20  C3  UNK     1      17.836   7.950  34.749  1.00  0.00     0.000 C 
BRANCH  20  21
HETATM   21  C5  UNK     1      16.796   6.859  34.480  1.00  0.00    -0.000 C 
BRANCH  21  22
HETATM   22  C7  UNK     1      15.850   7.264  33.349  1.00  0.00    -0.005 C 
HETATM   23  C8  UNK     1      14.490   7.682  33.883  1.00  0.00     0.005 C 
ENDBRANCH  21  22
ENDBRANCH  20  21
ENDBRANCH  19  20
ENDBRANCH  18  19
ENDBRANCH  17  18
ENDBRANCH  16  17
ENDBRANCH   2  16
TORSDOF 8
ENDMDL
MODEL 3
REMARK VINA RESULT:      -7.5      6.869     12.009
REMARK  8 active torsions:
REMARK  status: ('A' for Active; 'I' for Inactive)
REMARK    1  A    between atoms: C6_10  and  N1_4 
REMARK       I    between atoms: C9_13  and  N1_4 
REMARK    2  A    between atoms: C1_5  and  C2_6 
REMARK    3  A    between atoms: C1_5  and  C3_7 
REMARK    4  A    between atoms: C2_6  and  C4_8 
REMARK    5  A    between atoms: C3_7  and  C5_9 
REMARK    6  A    between atoms: C4_8  and  C6_10 
REMARK    7  A    between atoms: C5_9  and  C7_11 
REMARK    8  A    between atoms: C10_14  and  C9_13 
ROOT
HETATM    1  O2  UNK     1      21.007  -4.372  37.479  1.00  0.00    -0.267 OA
HETATM    2  N1  UNK     1      19.439  -5.223  35.978  1.00  0.00    -0.357 N 
HETATM    3  C9  UNK     1      20.120  -4.220  36.647  1.00  0.00     0.257 C 
HETATM    4  H15 UNK     1      18.700  -4.987  35.322  1.00  0.00     0.162 HD
ENDROOT
BRANCH   3   5
HETATM    5  C10 UNK     1      19.674  -2.868  36.262  1.00  0.00     0.108 A 
HETATM    6  C14 UNK     1      19.995  -2.281  34.943  1.00  0.00     0.304 A 
HETATM    7  O1  UNK     1      19.519  -0.997  34.697  1.00  0.00    -0.274 OA
HETATM    8  O3  UNK     1      20.648  -2.892  34.103  1.00  0.00    -0.259 OA
HETATM    9  C13 UNK     1      18.767  -0.286  35.654  1.00  0.00     0.089 A 
HETATM   10  C11 UNK     1      18.477  -0.856  36.888  1.00  0.00    -0.001 A 
HETATM   11  C16 UNK     1      18.333   0.994  35.315  1.00  0.00     0.038 A 
HETATM   12  C12 UNK     1      18.961  -2.198  37.176  1.00  0.00     0.037 A 
HETATM   13  C15 UNK     1      17.729  -0.121  37.811  1.00  0.00     0.014 A 
HETATM   14  C17 UNK     1      17.287   1.165  37.487  1.00  0.00     0.001 A 
HETATM   15  C18 UNK     1      17.589   1.721  36.241  1.00  0.00     0.003 A 
ENDBRANCH   3   5
BRANCH   2  16
HETATM   16  C6  UNK     1      19.700  -6.621  36.184  1.00  0.00     0.123 C 
BRANCH  16  17
HETATM   17  C4  UNK     1      18.842  -7.218  37.296  1.00  0.00     0.020 C 
BRANCH  17  18
HETATM   18  C2  UNK     1      19.611  -7.375  38.612  1.00  0.00     0.002 C 
BRANCH  18  19
HETATM   19  C1  UNK     1      19.907  -8.833  38.975  1.00  0.00     0.000 C 
BRANCH  19  20
HETATM   20  C3  UNK     1      19.018  -9.885  38.305  1.00  0.00     0.000 C 
BRANCH  20  21
HETATM   21  C5  UNK     1      19.783 -10.827  37.373  1.00  0.00    -0.000 C 
BRANCH  21  22
HETATM   22  C7  UNK     1      21.203 -10.321  37.118  1.00  0.00    -0.005 C 
HETATM   23  C8  UNK     1      21.456 -10.094  35.636  1.00  0.00     0.005 C 
ENDBRANCH  21  22
ENDBRANCH  20  21
ENDBRANCH  19  20
ENDBRANCH  18  19
ENDBRANCH  17  18
ENDBRANCH  16  17
ENDBRANCH   2  16
TORSDOF 8
ENDMDL
MODEL 4
REMARK VINA RESULT:      -7.4      1.395      2.123
REMARK  8 active torsions:
REMARK  status: ('A' for Active; 'I' for Inactive)
REMARK    1  A    between atoms: C6_10  and  N1_4 
REMARK       I    between atoms: C9_13  and  N1_4 
REMARK    2  A    between atoms: C1_5  and  C2_6 
REMARK    3  A    between atoms: C1_5  and  C3_7 
REMARK    4  A    between atoms: C2_6  and  C4_8 
REMARK    5  A    between atoms: C3_7  and  C5_9 
REMARK    6  A    between atoms: C4_8  and  C6_10 
REMARK    7  A    between atoms: C5_9  and  C7_11 
REMARK    8  A    between atoms: C10_14  and  C9_13 
ROOT
HETATM    1  O2  UNK     1      18.720   4.618  30.216  1.00  0.00    -0.267 OA
HETATM    2  N1  UNK     1      17.622   4.497  32.271  1.00  0.00    -0.357 N 
HETATM    3  C9  UNK     1      18.350   3.994  31.205  1.00  0.00     0.257 C 
HETATM    4  H15 UNK     1      17.347   3.885  33.033  1.00  0.00     0.162 HD
ENDROOT
BRANCH   3   5
HETATM    5  C10 UNK     1      18.672   2.564  31.353  1.00  0.00     0.108 A 
HETATM    6  C14 UNK     1      18.414   1.826  32.610  1.00  0.00     0.304 A 
HETATM    7  O1  UNK     1      18.761   0.478  32.627  1.00  0.00    -0.274 OA
HETATM    8  O3  UNK     1      17.918   2.371  33.591  1.00  0.00    -0.259 OA
HETATM    9  C13 UNK     1      19.330  -0.157  31.506  1.00  0.00     0.089 A 
HETATM   10  C11 UNK     1      19.565   0.554  30.334  1.00  0.00    -0.001 A 
HETATM   11  C16 UNK     1      19.643  -1.510  31.619  1.00  0.00     0.038 A 
HETATM   12  C12 UNK     1      19.213   1.965  30.284  1.00  0.00     0.037 A 
HETATM   13  C15 UNK     1      20.130  -0.111  29.244  1.00  0.00     0.014 A 
HETATM   14  C17 UNK     1      20.451  -1.468  29.342  1.00  0.00     0.001 A 
HETATM   15  C18 UNK     1      20.208  -2.166  30.527  1.00  0.00     0.003 A 
ENDBRANCH   3   5
BRANCH   2  16
HETATM   16  C6  UNK     1      17.195   5.866  32.352  1.00  0.00     0.123 C 
BRANCH  16  17
HETATM   17  C4  UNK     1      18.346   6.820  32.656  1.00  0.00     0.020 C 
BRANCH  17  18
HETATM   18  C2  UNK     1      18.342   7.300  34.112  1.00  0.00     0.002 C 
BRANCH  18  19
HETATM   19  C1  UNK     1      16.950   7.298  34.752  1.00  0.00     0.000 C 
BRANCH  19  20
HETATM   20  C3  UNK     1      16.254   8.658  34.847  1.00  0.00     0.000 C 
BRANCH  20  21
HETATM   21  C5  UNK     1      15.086   8.816  33.870  1.00  0.00    -0.000 C 
BRANCH  21  22
HETATM   22  C7  UNK     1      14.256   7.535  33.788  1.00  0.00    -0.005 C 
HETATM   23  C8  UNK     1      13.780   7.270  32.369  1.00  0.00     0.005 C 
ENDBRANCH  21  22
ENDBRANCH  20  21
ENDBRANCH  19  20
ENDBRANCH  18  19
ENDBRANCH  17  18
ENDBRANCH  16  17
ENDBRANCH   2  16
TORSDOF 8
ENDMDL
MODEL 5
REMARK VINA RESULT:      -7.4      6.497      9.732
REMARK  8 active torsions:
REMARK  status: ('A' for Active; 'I' for Inactive)
REMARK    1  A    between atoms: C6_10  and  N1_4 
REMARK       I    between atoms: C9_13  and  N1_4 
REMARK    2  A    between atoms: C1_5  and  C2_6 
REMARK    3  A    between atoms: C1_5  and  C3_7 
REMARK    4  A    between atoms: C2_6  and  C4_8 
REMARK    5  A    between atoms: C3_7  and  C5_9 
REMARK    6  A    between atoms: C4_8  and  C6_10 
REMARK    7  A    between atoms: C5_9  and  C7_11 
REMARK    8  A    between atoms: C10_14  and  C9_13 
ROOT
HETATM    1  O2  UNK     1      19.966  -2.519  37.432  1.00  0.00    -0.267 OA
HETATM    2  N1  UNK     1      20.026  -3.487  35.311  1.00  0.00    -0.357 N 
HETATM    3  C9  UNK     1      20.013  -3.498  36.696  1.00  0.00     0.257 C 
HETATM    4  H15 UNK     1      20.090  -4.360  34.796  1.00  0.00     0.162 HD
ENDROOT
BRANCH   3   5
HETATM    5  C10 UNK     1      20.062  -4.859  37.260  1.00  0.00     0.108 A 
HETATM    6  C14 UNK     1      18.971  -5.837  37.050  1.00  0.00     0.304 A 
HETATM    7  O1  UNK     1      19.132  -7.090  37.633  1.00  0.00    -0.274 OA
HETATM    8  O3  UNK     1      17.972  -5.561  36.393  1.00  0.00    -0.259 OA
HETATM    9  C13 UNK     1      20.276  -7.417  38.388  1.00  0.00     0.089 A 
HETATM   10  C11 UNK     1      21.290  -6.484  38.574  1.00  0.00    -0.001 A 
HETATM   11  C16 UNK     1      20.348  -8.698  38.932  1.00  0.00     0.038 A 
HETATM   12  C12 UNK     1      21.151  -5.164  37.976  1.00  0.00     0.037 A 
HETATM   13  C15 UNK     1      22.409  -6.845  39.328  1.00  0.00     0.014 A 
HETATM   14  C17 UNK     1      22.495  -8.126  39.881  1.00  0.00     0.001 A 
HETATM   15  C18 UNK     1      21.467  -9.050  39.683  1.00  0.00     0.003 A 
ENDBRANCH   3   5
BRANCH   2  16
HETATM   16  C6  UNK     1      19.983  -2.279  34.536  1.00  0.00     0.123 C 
BRANCH  16  17
HETATM   17  C4  UNK     1      20.480  -2.482  33.108  1.00  0.00     0.020 C 
BRANCH  17  18
HETATM   18  C2  UNK     1      19.635  -1.725  32.078  1.00  0.00     0.002 C 
BRANCH  18  19
HETATM   19  C1  UNK     1      20.470  -1.016  31.007  1.00  0.00     0.000 C 
BRANCH  19  20
HETATM   20  C3  UNK     1      20.410  -1.620  29.601  1.00  0.00     0.000 C 
BRANCH  20  21
HETATM   21  C5  UNK     1      19.838  -0.665  28.551  1.00  0.00    -0.000 C 
BRANCH  21  22
HETATM   22  C7  UNK     1      19.585   0.722  29.142  1.00  0.00    -0.005 C 
HETATM   23  C8  UNK     1      18.244   1.282  28.694  1.00  0.00     0.005 C 
ENDBRANCH  21  22
ENDBRANCH  20  21
ENDBRANCH  19  20
ENDBRANCH  18  19
ENDBRANCH  17  18
ENDBRANCH  16  17
ENDBRANCH   2  16
TORSDOF 8
ENDMDL
MODEL 6
REMARK VINA RESULT:      -7.2      7.123      9.639
REMARK  8 active torsions:
REMARK  status: ('A' for Active; 'I' for Inactive)
REMARK    1  A    between atoms: C6_10  and  N1_4 
REMARK       I    between atoms: C9_13  and  N1_4 
REMARK    2  A    between atoms: C1_5  and  C2_6 
REMARK    3  A    between atoms: C1_5  and  C3_7 
REMARK    4  A    between atoms: C2_6  and  C4_8 
REMARK    5  A    between atoms: C3_7  and  C5_9 
REMARK    6  A    between atoms: C4_8  and  C6_10 
REMARK    7  A    between atoms: C5_9  and  C7_11 
REMARK    8  A    between atoms: C10_14  and  C9_13 
ROOT
HETATM    1  O2  UNK     1      20.911  -3.720  37.687  1.00  0.00    -0.267 OA
HETATM    2  N1  UNK     1      18.871  -3.712  36.558  1.00  0.00    -0.357 N 
HETATM    3  C9  UNK     1      19.993  -4.299  37.118  1.00  0.00     0.257 C 
HETATM    4  H15 UNK     1      18.177  -4.285  36.087  1.00  0.00     0.162 HD
ENDROOT
BRANCH   3   5
HETATM    5  C10 UNK     1      20.005  -5.766  36.975  1.00  0.00     0.108 A 
HETATM    6  C14 UNK     1      20.168  -6.427  35.661  1.00  0.00     0.304 A 
HETATM    7  O1  UNK     1      20.163  -7.818  35.655  1.00  0.00    -0.274 OA
HETATM    8  O3  UNK     1      20.303  -5.784  34.625  1.00  0.00    -0.259 OA
HETATM    9  C13 UNK     1      20.010  -8.567  36.839  1.00  0.00     0.089 A 
HETATM   10  C11 UNK     1      19.858  -7.927  38.064  1.00  0.00    -0.001 A 
HETATM   11  C16 UNK     1      20.019  -9.956  36.732  1.00  0.00     0.038 A 
HETATM   12  C12 UNK     1      19.859  -6.472  38.104  1.00  0.00     0.037 A 
HETATM   13  C15 UNK     1      19.709  -8.703  39.216  1.00  0.00     0.014 A 
HETATM   14  C17 UNK     1      19.715 -10.098  39.125  1.00  0.00     0.001 A 
HETATM   15  C18 UNK     1      19.869 -10.723  37.886  1.00  0.00     0.003 A 
ENDBRANCH   3   5
BRANCH   2  16
HETATM   16  C6  UNK     1      18.636  -2.295  36.576  1.00  0.00     0.123 C 
BRANCH  16  17
HETATM   17  C4  UNK     1      19.336  -1.572  35.429  1.00  0.00     0.020 C 
BRANCH  17  18
HETATM   18  C2  UNK     1      18.351  -1.009  34.399  1.00  0.00     0.002 C 
BRANCH  18  19
HETATM   19  C1  UNK     1      16.917  -0.896  34.926  1.00  0.00     0.000 C 
BRANCH  19  20
HETATM   20  C3  UNK     1      16.463   0.507  35.338  1.00  0.00     0.000 C 
BRANCH  20  21
HETATM   21  C5  UNK     1      16.230   0.656  36.843  1.00  0.00    -0.000 C 
BRANCH  21  22
HETATM   22  C7  UNK     1      17.459   1.243  37.538  1.00  0.00    -0.005 C 
HETATM   23  C8  UNK     1      18.389   1.922  36.546  1.00  0.00     0.005 C 
ENDBRANCH  21  22
ENDBRANCH  20  21
ENDBRANCH  19  20
ENDBRANCH  18  19
ENDBRANCH  17  18
ENDBRANCH  16  17
ENDBRANCH   2  16
TORSDOF 8
ENDMDL
MODEL 7
REMARK VINA RESULT:      -7.2      7.009      9.430
REMARK  8 active torsions:
REMARK  status: ('A' for Active; 'I' for Inactive)
REMARK    1  A    between atoms: C6_10  and  N1_4 
REMARK       I    between atoms: C9_13  and  N1_4 
REMARK    2  A    between atoms: C1_5  and  C2_6 
REMARK    3  A    between atoms: C1_5  and  C3_7 
REMARK    4  A    between atoms: C2_6  and  C4_8 
REMARK    5  A    between atoms: C3_7  and  C5_9 
REMARK    6  A    between atoms: C4_8  and  C6_10 
REMARK    7  A    between atoms: C5_9  and  C7_11 
REMARK    8  A    between atoms: C10_14  and  C9_13 
ROOT
HETATM    1  O2  UNK     1      20.309  -4.268  34.977  1.00  0.00    -0.267 OA
HETATM    2  N1  UNK     1      19.272  -3.790  37.010  1.00  0.00    -0.357 N 
HETATM    3  C9  UNK     1      19.778  -4.621  36.024  1.00  0.00     0.257 C 
HETATM    4  H15 UNK     1      18.829  -4.188  37.833  1.00  0.00     0.162 HD
ENDROOT
BRANCH   3   5
HETATM    5  C10 UNK     1      19.623  -6.052  36.343  1.00  0.00     0.108 A 
HETATM    6  C14 UNK     1      18.323  -6.631  36.749  1.00  0.00     0.304 A 
HETATM    7  O1  UNK     1      18.304  -7.994  37.024  1.00  0.00    -0.274 OA
HETATM    8  O3  UNK     1      17.309  -5.946  36.838  1.00  0.00    -0.259 OA
HETATM    9  C13 UNK     1      19.462  -8.790  36.923  1.00  0.00     0.089 A 
HETATM   10  C11 UNK     1      20.675  -8.226  36.540  1.00  0.00    -0.001 A 
HETATM   11  C16 UNK     1      19.344 -10.146  37.218  1.00  0.00     0.038 A 
HETATM   12  C12 UNK     1      20.727  -6.802  36.245  1.00  0.00     0.037 A 
HETATM   13  C15 UNK     1      21.801  -9.047  36.452  1.00  0.00     0.014 A 
HETATM   14  C17 UNK     1      21.698 -10.410  36.746  1.00  0.00     0.001 A 
HETATM   15  C18 UNK     1      20.472 -10.958  37.128  1.00  0.00     0.003 A 
ENDBRANCH   3   5
BRANCH   2  16
HETATM   16  C6  UNK     1      19.312  -2.357  36.924  1.00  0.00     0.123 C 
BRANCH  16  17
HETATM   17  C4  UNK     1      18.436  -1.684  37.977  1.00  0.00     0.020 C 
BRANCH  17  18
HETATM   18  C2  UNK     1      17.438  -0.694  37.366  1.00  0.00     0.002 C 
BRANCH  18  19
HETATM   19  C1  UNK     1      17.607   0.739  37.883  1.00  0.00     0.000 C 
BRANCH  19  20
HETATM   20  C3  UNK     1      17.794   1.819  36.813  1.00  0.00     0.000 C 
BRANCH  20  21
HETATM   21  C5  UNK     1      18.825   1.447  35.745  1.00  0.00    -0.000 C 
BRANCH  21  22
HETATM   22  C7  UNK     1      18.172   1.308  34.369  1.00  0.00    -0.005 C 
HETATM   23  C8  UNK     1      18.293  -0.110  33.836  1.00  0.00     0.005 C 
ENDBRANCH  21  22
ENDBRANCH  20  21
ENDBRANCH  19  20
ENDBRANCH  18  19
ENDBRANCH  17  18
ENDBRANCH  16  17
ENDBRANCH   2  16
TORSDOF 8
ENDMDL
MODEL 8
REMARK VINA RESULT:      -7.1      2.785      4.377
REMARK  8 active torsions:
REMARK  status: ('A' for Active; 'I' for Inactive)
REMARK    1  A    between atoms: C6_10  and  N1_4 
REMARK       I    between atoms: C9_13  and  N1_4 
REMARK    2  A    between atoms: C1_5  and  C2_6 
REMARK    3  A    between atoms: C1_5  and  C3_7 
REMARK    4  A    between atoms: C2_6  and  C4_8 
REMARK    5  A    between atoms: C3_7  and  C5_9 
REMARK    6  A    between atoms: C4_8  and  C6_10 
REMARK    7  A    between atoms: C5_9  and  C7_11 
REMARK    8  A    between atoms: C10_14  and  C9_13 
ROOT
HETATM    1  O2  UNK     1      20.399  -0.125  31.231  1.00  0.00    -0.267 OA
HETATM    2  N1  UNK     1      18.381   0.955  30.784  1.00  0.00    -0.357 N 
HETATM    3  C9  UNK     1      19.311   0.314  31.586  1.00  0.00     0.257 C 
HETATM    4  H15 UNK     1      17.495   1.260  31.176  1.00  0.00     0.162 HD
ENDROOT
BRANCH   3   5
HETATM    5  C10 UNK     1      18.872   0.189  32.988  1.00  0.00     0.108 A 
HETATM    6  C14 UNK     1      18.040   1.221  33.645  1.00  0.00     0.304 A 
HETATM    7  O1  UNK     1      17.689   0.991  34.972  1.00  0.00    -0.274 OA
HETATM    8  O3  UNK     1      17.674   2.232  33.054  1.00  0.00    -0.259 OA
HETATM    9  C13 UNK     1      18.103  -0.167  35.660  1.00  0.00     0.089 A 
HETATM   10  C11 UNK     1      18.885  -1.125  35.024  1.00  0.00    -0.001 A 
HETATM   11  C16 UNK     1      17.701  -0.310  36.986  1.00  0.00     0.038 A 
HETATM   12  C12 UNK     1      19.268  -0.913  33.636  1.00  0.00     0.037 A 
HETATM   13  C15 UNK     1      19.275  -2.260  35.738  1.00  0.00     0.014 A 
HETATM   14  C17 UNK     1      18.881  -2.418  37.071  1.00  0.00     0.001 A 
HETATM   15  C18 UNK     1      18.095  -1.445  37.693  1.00  0.00     0.003 A 
ENDBRANCH   3   5
BRANCH   2  16
HETATM   16  C6  UNK     1      18.587   1.195  29.383  1.00  0.00     0.123 C 
BRANCH  16  17
HETATM   17  C4  UNK     1      18.464   2.671  29.019  1.00  0.00     0.020 C 
BRANCH  17  18
HETATM   18  C2  UNK     1      18.736   3.595  30.210  1.00  0.00     0.002 C 
BRANCH  18  19
HETATM   19  C1  UNK     1      19.078   5.032  29.802  1.00  0.00     0.000 C 
BRANCH  19  20
HETATM   20  C3  UNK     1      20.013   5.793  30.747  1.00  0.00     0.000 C 
BRANCH  20  21
HETATM   21  C5  UNK     1      19.383   6.108  32.106  1.00  0.00    -0.000 C 
BRANCH  21  22
HETATM   22  C7  UNK     1      20.395   6.765  33.046  1.00  0.00    -0.005 C 
HETATM   23  C8  UNK     1      19.727   7.780  33.959  1.00  0.00     0.005 C 
ENDBRANCH  21  22
ENDBRANCH  20  21
ENDBRANCH  19  20
ENDBRANCH  18  19
ENDBRANCH  17  18
ENDBRANCH  16  17
ENDBRANCH   2  16
TORSDOF 8
ENDMDL
MODEL 9
REMARK VINA RESULT:      -7.1      1.772      7.800
REMARK  8 active torsions:
REMARK  status: ('A' for Active; 'I' for Inactive)
REMARK    1  A    between atoms: C6_10  and  N1_4 
REMARK       I    between atoms: C9_13  and  N1_4 
REMARK    2  A    between atoms: C1_5  and  C2_6 
REMARK    3  A    between atoms: C1_5  and  C3_7 
REMARK    4  A    between atoms: C2_6  and  C4_8 
REMARK    5  A    between atoms: C3_7  and  C5_9 
REMARK    6  A    between atoms: C4_8  and  C6_10 
REMARK    7  A    between atoms: C5_9  and  C7_11 
REMARK    8  A    between atoms: C10_14  and  C9_13 
ROOT
HETATM    1  O2  UNK     1      18.567   4.228  28.953  1.00  0.00    -0.267 OA
HETATM    2  N1  UNK     1      18.929   2.655  30.637  1.00  0.00    -0.357 N 
HETATM    3  C9  UNK     1      18.784   3.933  30.123  1.00  0.00     0.257 C 
HETATM    4  H15 UNK     1      19.131   2.523  31.624  1.00  0.00     0.162 HD
ENDROOT
BRANCH   3   5
HETATM    5  C10 UNK     1      18.917   4.983  31.150  1.00  0.00     0.108 A 
HETATM    6  C14 UNK     1      20.139   5.808  31.278  1.00  0.00     0.304 A 
HETATM    7  O1  UNK     1      20.144   6.767  32.286  1.00  0.00    -0.274 OA
HETATM    8  O3  UNK     1      21.103   5.657  30.534  1.00  0.00    -0.259 OA
HETATM    9  C13 UNK     1      19.043   6.949  33.145  1.00  0.00     0.089 A 
HETATM   10  C11 UNK     1      17.903   6.164  33.008  1.00  0.00    -0.001 A 
HETATM   11  C16 UNK     1      19.141   7.936  34.124  1.00  0.00     0.038 A 
HETATM   12  C12 UNK     1      17.867   5.151  31.963  1.00  0.00     0.037 A 
HETATM   13  C15 UNK     1      16.831   6.373  33.879  1.00  0.00     0.014 A 
HETATM   14  C17 UNK     1      16.915   7.359  34.867  1.00  0.00     0.001 A 
HETATM   15  C18 UNK     1      18.068   8.138  34.988  1.00  0.00     0.003 A 
ENDBRANCH   3   5
BRANCH   2  16
HETATM   16  C6  UNK     1      18.838   1.471  29.829  1.00  0.00     0.123 C 
BRANCH  16  17
HETATM   17  C4  UNK     1      20.117   0.640  29.865  1.00  0.00     0.020 C 
BRANCH  17  18
HETATM   18  C2  UNK     1      20.082  -0.534  28.881  1.00  0.00     0.002 C 
BRANCH  18  19
HETATM   19  C1  UNK     1      20.717  -1.814  29.435  1.00  0.00     0.000 C 
BRANCH  19  20
HETATM   20  C3  UNK     1      20.056  -2.403  30.685  1.00  0.00     0.000 C 
BRANCH  20  21
HETATM   21  C5  UNK     1      20.826  -2.114  31.976  1.00  0.00    -0.000 C 
BRANCH  21  22
HETATM   22  C7  UNK     1      19.884  -2.038  33.178  1.00  0.00    -0.005 C 
HETATM   23  C8  UNK     1      18.748  -1.058  32.933  1.00  0.00     0.005 C 
ENDBRANCH  21  22
ENDBRANCH  20  21
ENDBRANCH  19  20
ENDBRANCH  18  19
ENDBRANCH  17  18
ENDBRANCH  16  17
ENDBRANCH   2  16
TORSDOF 8
ENDMDL
MODEL 10
REMARK VINA RESULT:      -7.1      2.607      3.719
REMARK  8 active torsions:
REMARK  status: ('A' for Active; 'I' for Inactive)
REMARK    1  A    between atoms: C6_10  and  N1_4 
REMARK       I    between atoms: C9_13  and  N1_4 
REMARK    2  A    between atoms: C1_5  and  C2_6 
REMARK    3  A    between atoms: C1_5  and  C3_7 
REMARK    4  A    between atoms: C2_6  and  C4_8 
REMARK    5  A    between atoms: C3_7  and  C5_9 
REMARK    6  A    between atoms: C4_8  and  C6_10 
REMARK    7  A    between atoms: C5_9  and  C7_11 
REMARK    8  A    between atoms: C10_14  and  C9_13 
ROOT
HETATM    1  O2  UNK     1      17.141   2.756  30.623  1.00  0.00    -0.267 OA
HETATM    2  N1  UNK     1      19.246   3.605  31.156  1.00  0.00    -0.357 N 
HETATM    3  C9  UNK     1      18.154   2.768  31.313  1.00  0.00     0.257 C 
HETATM    4  H15 UNK     1      20.028   3.547  31.801  1.00  0.00     0.162 HD
ENDROOT
BRANCH   3   5
HETATM    5  C10 UNK     1      18.305   1.831  32.441  1.00  0.00     0.108 A 
HETATM    6  C14 UNK     1      18.787   0.445  32.252  1.00  0.00     0.304 A 
HETATM    7  O1  UNK     1      18.888  -0.344  33.394  1.00  0.00    -0.274 OA
HETATM    8  O3  UNK     1      19.086   0.008  31.145  1.00  0.00    -0.259 OA
HETATM    9  C13 UNK     1      18.549   0.149  34.670  1.00  0.00     0.089 A 
HETATM   10  C11 UNK     1      18.098   1.455  34.826  1.00  0.00    -0.001 A 
HETATM   11  C16 UNK     1      18.684  -0.716  35.754  1.00  0.00     0.038 A 
HETATM   12  C12 UNK     1      17.981   2.305  33.651  1.00  0.00     0.037 A 
HETATM   13  C15 UNK     1      17.771   1.907  36.107  1.00  0.00     0.014 A 
HETATM   14  C17 UNK     1      17.900   1.050  37.205  1.00  0.00     0.001 A 
HETATM   15  C18 UNK     1      18.356  -0.258  37.028  1.00  0.00     0.003 A 
ENDBRANCH   3   5
BRANCH   2  16
HETATM   16  C6  UNK     1      19.329   4.600  30.123  1.00  0.00     0.123 C 
BRANCH  16  17
HETATM   17  C4  UNK     1      19.355   6.020  30.681  1.00  0.00     0.020 C 
BRANCH  17  18
HETATM   18  C2  UNK     1      20.237   6.147  31.927  1.00  0.00     0.002 C 
BRANCH  18  19
HETATM   19  C1  UNK     1      19.521   6.789  33.119  1.00  0.00     0.000 C 
BRANCH  19  20
HETATM   20  C3  UNK     1      18.402   5.959  33.755  1.00  0.00     0.000 C 
BRANCH  20  21
HETATM   21  C5  UNK     1      17.017   6.597  33.620  1.00  0.00    -0.000 C 
BRANCH  21  22
HETATM   22  C7  UNK     1      17.097   7.952  32.915  1.00  0.00    -0.005 C 
HETATM   23  C8  UNK     1      16.266   7.967  31.642  1.00  0.00     0.005 C 
ENDBRANCH  21  22
ENDBRANCH  20  21
ENDBRANCH  19  20
ENDBRANCH  18  19
ENDBRANCH  17  18
ENDBRANCH  16  17
ENDBRANCH   2  16
TORSDOF 8
ENDMDL
