MODEL 1
REMARK VINA RESULT:      -7.7      0.000      0.000
REMARK  4 active torsions:
REMARK  status: ('A' for Active; 'I' for Inactive)
REMARK    1  A    between atoms: C3_6  and  O1_1 
REMARK    2  A    between atoms: C6_9  and  O2_2 
REMARK    3  A    between atoms: C1_4  and  C4_7 
REMARK    4  A    between atoms: C8_11  and  C9_12 
ROOT
HETATM    1  N1  UNK     1      17.928   2.081  28.158  1.00  0.00    -0.191 NA
HETATM    2  C4  UNK     1      18.576   3.399  30.290  1.00  0.00     0.055 C 
HETATM    3  C9  UNK     1      18.980   4.690  30.176  1.00  0.00     0.034 C 
HETATM    4  C15 UNK     1      18.218   2.673  29.112  1.00  0.00     0.100 C 
ENDROOT
BRANCH   2   5
HETATM    5  C1  UNK     1      18.497   2.704  31.588  1.00  0.00    -0.013 A 
HETATM    6  C2  UNK     1      18.839   1.364  31.661  1.00  0.00     0.052 A 
HETATM    7  C3  UNK     1      18.763   0.707  32.889  1.00  0.00     0.102 A 
HETATM    8  C6  UNK     1      18.346   1.399  34.026  1.00  0.00     0.101 A 
HETATM    9  C7  UNK     1      18.005   2.749  33.935  1.00  0.00     0.040 A 
HETATM   10  C5  UNK     1      18.080   3.406  32.707  1.00  0.00     0.016 A 
BRANCH   7  11
HETATM   11  O1  UNK     1      19.100  -0.611  32.966  1.00  0.00    -0.353 OA
HETATM   12  C16 UNK     1      19.470  -1.258  31.749  1.00  0.00     0.210 C 
ENDBRANCH   7  11
BRANCH   8  13
HETATM   13  O2  UNK     1      18.269   0.769  35.232  1.00  0.00    -0.353 OA
HETATM   14  C17 UNK     1      18.367   1.586  36.396  1.00  0.00     0.210 C 
ENDBRANCH   8  13
ENDBRANCH   2   5
BRANCH   3  15
HETATM   15  C8  UNK     1      19.358   5.586  31.258  1.00  0.00    -0.035 A 
HETATM   16  C10 UNK     1      18.398   6.404  31.855  1.00  0.00     0.011 A 
HETATM   17  C12 UNK     1      18.762   7.263  32.892  1.00  0.00     0.001 A 
HETATM   18  C14 UNK     1      20.085   7.303  33.334  1.00  0.00     0.000 A 
HETATM   19  C13 UNK     1      21.044   6.485  32.738  1.00  0.00     0.001 A 
HETATM   20  C11 UNK     1      20.681   5.627  31.700  1.00  0.00     0.011 A 
ENDBRANCH   3  15
TORSDOF 4
ENDMDL
MODEL 2
REMARK VINA RESULT:      -7.4     22.166     25.068
REMARK  4 active torsions:
REMARK  status: ('A' for Active; 'I' for Inactive)
REMARK    1  A    between atoms: C3_6  and  O1_1 
REMARK    2  A    between atoms: C6_9  and  O2_2 
REMARK    3  A    between atoms: C1_4  and  C4_7 
REMARK    4  A    between atoms: C8_11  and  C9_12 
ROOT
HETATM    1  N1  UNK     1      15.668   4.307   9.821  1.00  0.00    -0.191 NA
HETATM    2  C4  UNK     1      13.638   5.628   8.904  1.00  0.00     0.055 C 
HETATM    3  C9  UNK     1      12.687   4.974   8.190  1.00  0.00     0.034 C 
HETATM    4  C15 UNK     1      14.758   4.898   9.410  1.00  0.00     0.100 C 
ENDROOT
BRANCH   2   5
HETATM    5  C1  UNK     1      13.570   7.076   9.177  1.00  0.00    -0.013 A 
HETATM    6  C2  UNK     1      12.799   7.531  10.233  1.00  0.00     0.052 A 
HETATM    7  C3  UNK     1      12.734   8.900  10.491  1.00  0.00     0.102 A 
HETATM    8  C6  UNK     1      13.440   9.794   9.687  1.00  0.00     0.101 A 
HETATM    9  C7  UNK     1      14.212   9.320   8.626  1.00  0.00     0.040 A 
HETATM   10  C5  UNK     1      14.277   7.951   8.369  1.00  0.00     0.016 A 
BRANCH   7  11
HETATM   11  O1  UNK     1      11.978   9.352  11.530  1.00  0.00    -0.353 OA
HETATM   12  C16 UNK     1      12.664   9.677  12.738  1.00  0.00     0.210 C 
ENDBRANCH   7  11
BRANCH   8  13
HETATM   13  O2  UNK     1      13.387  11.135   9.928  1.00  0.00    -0.353 OA
HETATM   14  C17 UNK     1      14.623  11.846   9.909  1.00  0.00     0.210 C 
ENDBRANCH   8  13
ENDBRANCH   2   5
BRANCH   3  15
HETATM   15  C8  UNK     1      11.475   5.544   7.621  1.00  0.00    -0.035 A 
HETATM   16  C10 UNK     1      11.481   6.029   6.313  1.00  0.00     0.011 A 
HETATM   17  C12 UNK     1      10.319   6.575   5.767  1.00  0.00     0.001 A 
HETATM   18  C14 UNK     1       9.152   6.635   6.528  1.00  0.00     0.000 A 
HETATM   19  C13 UNK     1       9.146   6.149   7.835  1.00  0.00     0.001 A 
HETATM   20  C11 UNK     1      10.308   5.604   8.382  1.00  0.00     0.011 A 
ENDBRANCH   3  15
TORSDOF 4
ENDMDL
MODEL 3
REMARK VINA RESULT:      -7.4     23.480     25.329
REMARK  4 active torsions:
REMARK  status: ('A' for Active; 'I' for Inactive)
REMARK    1  A    between atoms: C3_6  and  O1_1 
REMARK    2  A    between atoms: C6_9  and  O2_2 
REMARK    3  A    between atoms: C1_4  and  C4_7 
REMARK    4  A    between atoms: C8_11  and  C9_12 
ROOT
HETATM    1  N1  UNK     1      15.758   4.389   9.755  1.00  0.00    -0.191 NA
HETATM    2  C4  UNK     1      13.706   5.694   8.865  1.00  0.00     0.055 C 
HETATM    3  C9  UNK     1      12.786   5.048   8.105  1.00  0.00     0.034 C 
HETATM    4  C15 UNK     1      14.838   4.972   9.356  1.00  0.00     0.100 C 
ENDROOT
BRANCH   2   5
HETATM    5  C1  UNK     1      13.592   7.125   9.205  1.00  0.00    -0.013 A 
HETATM    6  C2  UNK     1      14.338   8.051   8.497  1.00  0.00     0.052 A 
HETATM    7  C3  UNK     1      14.230   9.403   8.818  1.00  0.00     0.102 A 
HETATM    8  C6  UNK     1      13.378   9.810   9.845  1.00  0.00     0.101 A 
HETATM    9  C7  UNK     1      12.633   8.863  10.549  1.00  0.00     0.040 A 
HETATM   10  C5  UNK     1      12.741   7.510  10.227  1.00  0.00     0.016 A 
BRANCH   7  11
HETATM   11  O1  UNK     1      14.961  10.318   8.123  1.00  0.00    -0.353 OA
HETATM   12  C16 UNK     1      16.278  10.593   8.599  1.00  0.00     0.210 C 
ENDBRANCH   7  11
BRANCH   8  13
HETATM   13  O2  UNK     1      13.261  11.129  10.169  1.00  0.00    -0.353 OA
HETATM   14  C17 UNK     1      11.995  11.566  10.656  1.00  0.00     0.210 C 
ENDBRANCH   8  13
ENDBRANCH   2   5
BRANCH   3  15
HETATM   15  C8  UNK     1      11.568   5.609   7.541  1.00  0.00    -0.035 A 
HETATM   16  C10 UNK     1      11.578   6.142   6.252  1.00  0.00     0.011 A 
HETATM   17  C12 UNK     1      10.410   6.680   5.712  1.00  0.00     0.001 A 
HETATM   18  C14 UNK     1       9.232   6.685   6.460  1.00  0.00     0.000 A 
HETATM   19  C13 UNK     1       9.223   6.151   7.748  1.00  0.00     0.001 A 
HETATM   20  C11 UNK     1      10.391   5.614   8.289  1.00  0.00     0.011 A 
ENDBRANCH   3  15
TORSDOF 4
ENDMDL
MODEL 4
REMARK VINA RESULT:      -7.2     15.116     16.951
REMARK  4 active torsions:
REMARK  status: ('A' for Active; 'I' for Inactive)
REMARK    1  A    between atoms: C3_6  and  O1_1 
REMARK    2  A    between atoms: C6_9  and  O2_2 
REMARK    3  A    between atoms: C1_4  and  C4_7 
REMARK    4  A    between atoms: C8_11  and  C9_12 
ROOT
HETATM    1  N1  UNK     1      29.548  -3.452  39.820  1.00  0.00    -0.191 NA
HETATM    2  C4  UNK     1      29.124  -5.826  38.875  1.00  0.00     0.055 C 
HETATM    3  C9  UNK     1      27.977  -6.475  39.198  1.00  0.00     0.034 C 
HETATM    4  C15 UNK     1      29.356  -4.515  39.397  1.00  0.00     0.100 C 
ENDROOT
BRANCH   2   5
HETATM    5  C1  UNK     1      30.156  -6.423  38.006  1.00  0.00    -0.013 A 
HETATM    6  C2  UNK     1      30.164  -6.118  36.656  1.00  0.00     0.052 A 
HETATM    7  C3  UNK     1      31.139  -6.683  35.835  1.00  0.00     0.102 A 
HETATM    8  C6  UNK     1      32.092  -7.546  36.377  1.00  0.00     0.101 A 
HETATM    9  C7  UNK     1      32.069  -7.843  37.740  1.00  0.00     0.040 A 
HETATM   10  C5  UNK     1      31.094  -7.278  38.561  1.00  0.00     0.016 A 
BRANCH   7  11
HETATM   11  O1  UNK     1      31.152  -6.385  34.506  1.00  0.00    -0.353 OA
HETATM   12  C16 UNK     1      31.637  -5.096  34.135  1.00  0.00     0.210 C 
ENDBRANCH   7  11
BRANCH   8  13
HETATM   13  O2  UNK     1      33.051  -8.104  35.586  1.00  0.00    -0.353 OA
HETATM   14  C17 UNK     1      34.294  -7.413  35.490  1.00  0.00     0.210 C 
ENDBRANCH   8  13
ENDBRANCH   2   5
BRANCH   3  15
HETATM   15  C8  UNK     1      27.562  -7.794  38.746  1.00  0.00    -0.035 A 
HETATM   16  C10 UNK     1      27.065  -7.964  37.454  1.00  0.00     0.011 A 
HETATM   17  C12 UNK     1      26.668  -9.229  37.021  1.00  0.00     0.001 A 
HETATM   18  C14 UNK     1      26.768 -10.324  37.880  1.00  0.00     0.000 A 
HETATM   19  C13 UNK     1      27.264 -10.153  39.172  1.00  0.00     0.001 A 
HETATM   20  C11 UNK     1      27.661  -8.889  39.606  1.00  0.00     0.011 A 
ENDBRANCH   3  15
TORSDOF 4
ENDMDL
MODEL 5
REMARK VINA RESULT:      -7.1     22.681     24.402
REMARK  4 active torsions:
REMARK  status: ('A' for Active; 'I' for Inactive)
REMARK    1  A    between atoms: C3_6  and  O1_1 
REMARK    2  A    between atoms: C6_9  and  O2_2 
REMARK    3  A    between atoms: C1_4  and  C4_7 
REMARK    4  A    between atoms: C8_11  and  C9_12 
ROOT
HETATM    1  N1  UNK     1      15.976   3.649   9.873  1.00  0.00    -0.191 NA
HETATM    2  C4  UNK     1      14.686   5.888   9.700  1.00  0.00     0.055 C 
HETATM    3  C9  UNK     1      15.215   7.005  10.261  1.00  0.00     0.034 C 
HETATM    4  C15 UNK     1      15.399   4.653   9.796  1.00  0.00     0.100 C 
ENDROOT
BRANCH   2   5
HETATM    5  C1  UNK     1      13.391   5.891   8.994  1.00  0.00    -0.013 A 
HETATM    6  C2  UNK     1      12.227   5.682   9.714  1.00  0.00     0.052 A 
HETATM    7  C3  UNK     1      11.003   5.685   9.046  1.00  0.00     0.102 A 
HETATM    8  C6  UNK     1      10.960   5.895   7.668  1.00  0.00     0.101 A 
HETATM    9  C7  UNK     1      12.143   6.104   6.957  1.00  0.00     0.040 A 
HETATM   10  C5  UNK     1      13.367   6.101   7.625  1.00  0.00     0.016 A 
BRANCH   7  11
HETATM   11  O1  UNK     1       9.854   5.481   9.750  1.00  0.00    -0.353 OA
HETATM   12  C16 UNK     1       9.563   4.140  10.141  1.00  0.00     0.210 C 
ENDBRANCH   7  11
BRANCH   8  13
HETATM   13  O2  UNK     1       9.770   5.902   7.003  1.00  0.00    -0.353 OA
HETATM   14  C17 UNK     1       9.761   6.476   5.698  1.00  0.00     0.210 C 
ENDBRANCH   8  13
ENDBRANCH   2   5
BRANCH   3  15
HETATM   15  C8  UNK     1      14.647   8.344  10.244  1.00  0.00    -0.035 A 
HETATM   16  C10 UNK     1      13.758   8.738  11.245  1.00  0.00     0.011 A 
HETATM   17  C12 UNK     1      13.215  10.022  11.228  1.00  0.00     0.001 A 
HETATM   18  C14 UNK     1      13.560  10.913  10.212  1.00  0.00     0.000 A 
HETATM   19  C13 UNK     1      14.449  10.519   9.212  1.00  0.00     0.001 A 
HETATM   20  C11 UNK     1      14.993   9.235   9.228  1.00  0.00     0.011 A 
ENDBRANCH   3  15
TORSDOF 4
ENDMDL
MODEL 6
REMARK VINA RESULT:      -7.0     15.130     16.825
REMARK  4 active torsions:
REMARK  status: ('A' for Active; 'I' for Inactive)
REMARK    1  A    between atoms: C3_6  and  O1_1 
REMARK    2  A    between atoms: C6_9  and  O2_2 
REMARK    3  A    between atoms: C1_4  and  C4_7 
REMARK    4  A    between atoms: C8_11  and  C9_12 
ROOT
HETATM    1  N1  UNK     1      29.311  -3.650  39.943  1.00  0.00    -0.191 NA
HETATM    2  C4  UNK     1      30.693  -5.019  38.233  1.00  0.00     0.055 C 
HETATM    3  C9  UNK     1      31.963  -4.637  37.948  1.00  0.00     0.034 C 
HETATM    4  C15 UNK     1      29.931  -4.263  39.177  1.00  0.00     0.100 C 
ENDROOT
BRANCH   2   5
HETATM    5  C1  UNK     1      30.054  -6.187  37.598  1.00  0.00    -0.013 A 
HETATM    6  C2  UNK     1      29.990  -7.384  38.292  1.00  0.00     0.052 A 
HETATM    7  C3  UNK     1      29.387  -8.488  37.691  1.00  0.00     0.102 A 
HETATM    8  C6  UNK     1      28.857  -8.380  36.406  1.00  0.00     0.101 A 
HETATM    9  C7  UNK     1      28.930  -7.167  35.721  1.00  0.00     0.040 A 
HETATM   10  C5  UNK     1      29.533  -6.062  36.321  1.00  0.00     0.016 A 
BRANCH   7  11
HETATM   11  O1  UNK     1      29.320  -9.667  38.370  1.00  0.00    -0.353 OA
HETATM   12  C16 UNK     1      28.268  -9.809  39.323  1.00  0.00     0.210 C 
ENDBRANCH   7  11
BRANCH   8  13
HETATM   13  O2  UNK     1      28.263  -9.452  35.808  1.00  0.00    -0.353 OA
HETATM   14  C17 UNK     1      28.727  -9.806  34.507  1.00  0.00     0.210 C 
ENDBRANCH   8  13
ENDBRANCH   2   5
BRANCH   3  15
HETATM   15  C8  UNK     1      32.889  -5.292  37.037  1.00  0.00    -0.035 A 
HETATM   16  C10 UNK     1      33.635  -6.389  37.470  1.00  0.00     0.011 A 
HETATM   17  C12 UNK     1      34.523  -7.017  36.597  1.00  0.00     0.001 A 
HETATM   18  C14 UNK     1      34.664  -6.549  35.290  1.00  0.00     0.000 A 
HETATM   19  C13 UNK     1      33.918  -5.454  34.857  1.00  0.00     0.001 A 
HETATM   20  C11 UNK     1      33.031  -4.825  35.730  1.00  0.00     0.011 A 
ENDBRANCH   3  15
TORSDOF 4
ENDMDL
MODEL 7
REMARK VINA RESULT:      -6.9      3.163      5.123
REMARK  4 active torsions:
REMARK  status: ('A' for Active; 'I' for Inactive)
REMARK    1  A    between atoms: C3_6  and  O1_1 
REMARK    2  A    between atoms: C6_9  and  O2_2 
REMARK    3  A    between atoms: C1_4  and  C4_7 
REMARK    4  A    between atoms: C8_11  and  C9_12 
ROOT
HETATM    1  N1  UNK     1      13.379   7.322  32.487  1.00  0.00    -0.191 NA
HETATM    2  C4  UNK     1      15.917   7.688  32.848  1.00  0.00     0.055 C 
HETATM    3  C9  UNK     1      16.337   8.728  33.613  1.00  0.00     0.034 C 
HETATM    4  C15 UNK     1      14.516   7.487  32.650  1.00  0.00     0.100 C 
ENDROOT
BRANCH   2   5
HETATM    5  C1  UNK     1      16.854   6.752  32.199  1.00  0.00    -0.013 A 
HETATM    6  C2  UNK     1      17.050   5.498  32.751  1.00  0.00     0.052 A 
HETATM    7  C3  UNK     1      17.937   4.614  32.137  1.00  0.00     0.102 A 
HETATM    8  C6  UNK     1      18.615   4.997  30.981  1.00  0.00     0.101 A 
HETATM    9  C7  UNK     1      18.407   6.265  30.437  1.00  0.00     0.040 A 
HETATM   10  C5  UNK     1      17.520   7.149  31.051  1.00  0.00     0.016 A 
BRANCH   7  11
HETATM   11  O1  UNK     1      18.131   3.378  32.676  1.00  0.00    -0.353 OA
HETATM   12  C16 UNK     1      18.267   3.303  34.094  1.00  0.00     0.210 C 
ENDBRANCH   7  11
BRANCH   8  13
HETATM   13  O2  UNK     1      19.483   4.142  30.370  1.00  0.00    -0.353 OA
HETATM   14  C17 UNK     1      18.916   3.088  29.594  1.00  0.00     0.210 C 
ENDBRANCH   8  13
ENDBRANCH   2   5
BRANCH   3  15
HETATM   15  C8  UNK     1      17.712   9.073  33.942  1.00  0.00    -0.035 A 
HETATM   16  C10 UNK     1      18.157  10.386  33.789  1.00  0.00     0.011 A 
HETATM   17  C12 UNK     1      19.475  10.716  34.104  1.00  0.00     0.001 A 
HETATM   18  C14 UNK     1      20.347   9.733  34.573  1.00  0.00     0.000 A 
HETATM   19  C13 UNK     1      19.902   8.421  34.726  1.00  0.00     0.001 A 
HETATM   20  C11 UNK     1      18.584   8.090  34.411  1.00  0.00     0.011 A 
ENDBRANCH   3  15
TORSDOF 4
ENDMDL
MODEL 8
REMARK VINA RESULT:      -6.9     14.309     16.519
REMARK  4 active torsions:
REMARK  status: ('A' for Active; 'I' for Inactive)
REMARK    1  A    between atoms: C3_6  and  O1_1 
REMARK    2  A    between atoms: C6_9  and  O2_2 
REMARK    3  A    between atoms: C1_4  and  C4_7 
REMARK    4  A    between atoms: C8_11  and  C9_12 
ROOT
HETATM    1  N1  UNK     1      29.354  -3.665  39.954  1.00  0.00    -0.191 NA
HETATM    2  C4  UNK     1      30.704  -5.054  38.235  1.00  0.00     0.055 C 
HETATM    3  C9  UNK     1      31.977  -4.688  37.937  1.00  0.00     0.034 C 
HETATM    4  C15 UNK     1      29.960  -4.287  39.184  1.00  0.00     0.100 C 
ENDROOT
BRANCH   2   5
HETATM    5  C1  UNK     1      30.046  -6.217  37.610  1.00  0.00    -0.013 A 
HETATM    6  C2  UNK     1      29.350  -6.045  36.425  1.00  0.00     0.052 A 
HETATM    7  C3  UNK     1      28.727  -7.144  35.835  1.00  0.00     0.102 A 
HETATM    8  C6  UNK     1      28.809  -8.399  36.438  1.00  0.00     0.101 A 
HETATM    9  C7  UNK     1      29.514  -8.555  37.632  1.00  0.00     0.040 A 
HETATM   10  C5  UNK     1      30.137  -7.455  38.222  1.00  0.00     0.016 A 
BRANCH   7  11
HETATM   11  O1  UNK     1      28.042  -6.980  34.669  1.00  0.00    -0.353 OA
HETATM   12  C16 UNK     1      28.737  -6.356  33.591  1.00  0.00     0.210 C 
ENDBRANCH   7  11
BRANCH   8  13
HETATM   13  O2  UNK     1      28.207  -9.482  35.871  1.00  0.00    -0.353 OA
HETATM   14  C17 UNK     1      26.932  -9.858  36.388  1.00  0.00     0.210 C 
ENDBRANCH   8  13
ENDBRANCH   2   5
BRANCH   3  15
HETATM   15  C8  UNK     1      32.887  -5.356  37.020  1.00  0.00    -0.035 A 
HETATM   16  C10 UNK     1      33.719  -6.376  37.483  1.00  0.00     0.011 A 
HETATM   17  C12 UNK     1      34.591  -7.017  36.604  1.00  0.00     0.001 A 
HETATM   18  C14 UNK     1      34.631  -6.639  35.261  1.00  0.00     0.000 A 
HETATM   19  C13 UNK     1      33.799  -5.620  34.799  1.00  0.00     0.001 A 
HETATM   20  C11 UNK     1      32.927  -4.978  35.678  1.00  0.00     0.011 A 
ENDBRANCH   3  15
TORSDOF 4
ENDMDL
MODEL 9
REMARK VINA RESULT:      -6.9      2.671      5.607
REMARK  4 active torsions:
REMARK  status: ('A' for Active; 'I' for Inactive)
REMARK    1  A    between atoms: C3_6  and  O1_1 
REMARK    2  A    between atoms: C6_9  and  O2_2 
REMARK    3  A    between atoms: C1_4  and  C4_7 
REMARK    4  A    between atoms: C8_11  and  C9_12 
ROOT
HETATM    1  N1  UNK     1      20.089  -2.026  31.199  1.00  0.00    -0.191 NA
HETATM    2  C4  UNK     1      18.821  -0.512  32.874  1.00  0.00     0.055 C 
HETATM    3  C9  UNK     1      18.365  -1.044  34.037  1.00  0.00     0.034 C 
HETATM    4  C15 UNK     1      19.521  -1.349  31.951  1.00  0.00     0.100 C 
ENDROOT
BRANCH   2   5
HETATM    5  C1  UNK     1      18.617   0.904  32.515  1.00  0.00    -0.013 A 
HETATM    6  C2  UNK     1      18.662   1.277  31.183  1.00  0.00     0.052 A 
HETATM    7  C3  UNK     1      18.469   2.616  30.843  1.00  0.00     0.102 A 
HETATM    8  C6  UNK     1      18.235   3.562  31.842  1.00  0.00     0.101 A 
HETATM    9  C7  UNK     1      18.194   3.168  33.180  1.00  0.00     0.040 A 
HETATM   10  C5  UNK     1      18.386   1.829  33.519  1.00  0.00     0.016 A 
BRANCH   7  11
HETATM   11  O1  UNK     1      18.511   2.989  29.534  1.00  0.00    -0.353 OA
HETATM   12  C16 UNK     1      17.949   2.084  28.584  1.00  0.00     0.210 C 
ENDBRANCH   7  11
BRANCH   8  13
HETATM   13  O2  UNK     1      18.044   4.873  31.524  1.00  0.00    -0.353 OA
HETATM   14  C17 UNK     1      17.439   5.699  32.517  1.00  0.00     0.210 C 
ENDBRANCH   8  13
ENDBRANCH   2   5
BRANCH   3  15
HETATM   15  C8  UNK     1      17.657  -0.345  35.099  1.00  0.00    -0.035 A 
HETATM   16  C10 UNK     1      16.272  -0.196  35.032  1.00  0.00     0.011 A 
HETATM   17  C12 UNK     1      15.593   0.474  36.050  1.00  0.00     0.001 A 
HETATM   18  C14 UNK     1      16.300   0.992  37.136  1.00  0.00     0.000 A 
HETATM   19  C13 UNK     1      17.684   0.842  37.203  1.00  0.00     0.001 A 
HETATM   20  C11 UNK     1      18.363   0.173  36.185  1.00  0.00     0.011 A 
ENDBRANCH   3  15
TORSDOF 4
ENDMDL
MODEL 10
REMARK VINA RESULT:      -6.8     14.757     17.085
REMARK  4 active torsions:
REMARK  status: ('A' for Active; 'I' for Inactive)
REMARK    1  A    between atoms: C3_6  and  O1_1 
REMARK    2  A    between atoms: C6_9  and  O2_2 
REMARK    3  A    between atoms: C1_4  and  C4_7 
REMARK    4  A    between atoms: C8_11  and  C9_12 
ROOT
HETATM    1  N1  UNK     1      27.462 -10.018  40.232  1.00  0.00    -0.191 NA
HETATM    2  C4  UNK     1      28.436  -9.093  38.019  1.00  0.00     0.055 C 
HETATM    3  C9  UNK     1      27.803  -9.364  36.849  1.00  0.00     0.034 C 
HETATM    4  C15 UNK     1      27.897  -9.604  39.240  1.00  0.00     0.100 C 
ENDROOT
BRANCH   2   5
HETATM    5  C1  UNK     1      29.673  -8.292  38.084  1.00  0.00    -0.013 A 
HETATM    6  C2  UNK     1      29.592  -6.945  38.394  1.00  0.00     0.052 A 
HETATM    7  C3  UNK     1      30.761  -6.188  38.455  1.00  0.00     0.102 A 
HETATM    8  C6  UNK     1      31.995  -6.789  38.205  1.00  0.00     0.101 A 
HETATM    9  C7  UNK     1      32.059  -8.147  37.893  1.00  0.00     0.040 A 
HETATM   10  C5  UNK     1      30.889  -8.904  37.832  1.00  0.00     0.016 A 
BRANCH   7  11
HETATM   11  O1  UNK     1      30.687  -4.862  38.761  1.00  0.00    -0.353 OA
HETATM   12  C16 UNK     1      30.122  -4.000  37.775  1.00  0.00     0.210 C 
ENDBRANCH   7  11
BRANCH   8  13
HETATM   13  O2  UNK     1      33.146  -6.061  38.263  1.00  0.00    -0.353 OA
HETATM   14  C17 UNK     1      34.263  -6.556  37.528  1.00  0.00     0.210 C 
ENDBRANCH   8  13
ENDBRANCH   2   5
BRANCH   3  15
HETATM   15  C8  UNK     1      28.189  -8.913  35.521  1.00  0.00    -0.035 A 
HETATM   16  C10 UNK     1      27.989  -7.583  35.150  1.00  0.00     0.011 A 
HETATM   17  C12 UNK     1      28.359  -7.151  33.877  1.00  0.00     0.001 A 
HETATM   18  C14 UNK     1      28.931  -8.048  32.975  1.00  0.00     0.000 A 
HETATM   19  C13 UNK     1      29.132  -9.377  33.346  1.00  0.00     0.001 A 
HETATM   20  C11 UNK     1      28.762  -9.810  34.618  1.00  0.00     0.011 A 
ENDBRANCH   3  15
TORSDOF 4
ENDMDL
