MODEL 1
REMARK VINA RESULT:      -9.6      0.000      0.000
REMARK  7 active torsions:
REMARK  status: ('A' for Active; 'I' for Inactive)
REMARK    1  A    between atoms: C15_23  and  O3_4 
REMARK    2  A    between atoms: C23_31  and  O3_4 
REMARK    3  A    between atoms: C5_13  and  N1_6 
REMARK    4  A    between atoms: C6_14  and  N2_7 
REMARK    5  A    between atoms: C17_25  and  N3_8 
REMARK       I    between atoms: C9_17  and  N3_8 
REMARK    6  A    between atoms: C5_13  and  C7_15 
REMARK    7  A    between atoms: C6_14  and  C9_17 
ROOT
HETATM    1  N1  UNK     1      19.331  -3.227  36.458  1.00  0.00     0.096 N 
HETATM    2  N2  UNK     1      18.502  -0.486  36.065  1.00  0.00     0.100 N 
HETATM    3  C1  UNK     1      18.899  -2.393  37.585  1.00  0.00     0.303 C 
HETATM    4  C2  UNK     1      19.922  -2.396  35.401  1.00  0.00     0.303 C 
HETATM    5  C3  UNK     1      17.912  -1.316  37.120  1.00  0.00     0.303 C 
HETATM    6  C4  UNK     1      18.933  -1.321  34.937  1.00  0.00     0.303 C 
ENDROOT
BRANCH   1   7
HETATM    7  C5  UNK     1      20.277  -4.250  36.902  1.00  0.00     0.312 C 
BRANCH   7   8
HETATM    8  C7  UNK     1      19.701  -5.621  36.820  1.00  0.00    -0.011 A 
HETATM    9  C10 UNK     1      18.602  -5.869  36.095  1.00  0.00     0.092 A 
HETATM   10  C13 UNK     1      17.996  -7.207  35.985  1.00  0.00     0.288 A 
HETATM   11  O1  UNK     1      18.621  -8.232  36.677  1.00  0.00    -0.275 OA
HETATM   12  O4  UNK     1      16.988  -7.395  35.312  1.00  0.00    -0.260 OA
HETATM   13  C11 UNK     1      19.779  -8.003  37.448  1.00  0.00     0.090 A 
HETATM   14  C8  UNK     1      20.341  -6.729  37.543  1.00  0.00     0.009 A 
HETATM   15  C14 UNK     1      20.323  -9.110  38.101  1.00  0.00     0.041 A 
HETATM   16  C12 UNK     1      21.491  -6.584  38.330  1.00  0.00     0.051 A 
HETATM   17  C15 UNK     1      22.048  -7.685  38.993  1.00  0.00     0.069 A 
HETATM   18  C16 UNK     1      21.465  -8.945  38.879  1.00  0.00     0.039 A 
BRANCH  17  19
HETATM   19  O3  UNK     1      23.166  -7.521  39.753  1.00  0.00    -0.351 OA
BRANCH  19  20
HETATM   20  C23 UNK     1      24.333  -7.034  39.092  1.00  0.00     0.171 C 
HETATM   21  C25 UNK     1      25.189  -8.210  38.673  1.00  0.00     0.034 C 
ENDBRANCH  19  20
ENDBRANCH  17  19
ENDBRANCH   7   8
ENDBRANCH   1   7
BRANCH   2  22
HETATM   22  C6  UNK     1      17.559   0.539  35.621  1.00  0.00     0.375 C 
BRANCH  22  23
HETATM   23  C9  UNK     1      18.318   1.660  34.931  1.00  0.00     0.250 C 
HETATM   24  O2  UNK     1      19.332   2.161  35.406  1.00  0.00    -0.271 OA
HETATM   25  N3  UNK     1      17.697   1.993  33.730  1.00  0.00    -0.326 N 
HETATM   26  H15 UNK     1      16.855   1.483  33.473  1.00  0.00     0.169 HD
BRANCH  25  27
HETATM   27  C17 UNK     1      18.094   2.983  32.798  1.00  0.00     0.037 A 
HETATM   28  C18 UNK     1      18.346   2.631  31.471  1.00  0.00     0.072 A 
HETATM   29  C20 UNK     1      18.736   3.607  30.555  1.00  0.00     0.124 A 
HETATM   30  F1  UNK     1      18.977   3.259  29.282  1.00  0.00    -0.205 F 
HETATM   31  C22 UNK     1      18.874   4.933  30.962  1.00  0.00    -0.023 A 
HETATM   32  C21 UNK     1      18.622   5.284  32.288  1.00  0.00     0.012 A 
HETATM   33  C24 UNK     1      19.292   5.979  29.984  1.00  0.00     0.051 C 
HETATM   34  C19 UNK     1      18.231   4.310  33.206  1.00  0.00     0.030 A 
ENDBRANCH  25  27
ENDBRANCH  22  23
ENDBRANCH   2  22
TORSDOF 7
ENDMDL
MODEL 2
REMARK VINA RESULT:      -9.2      6.171      9.046
REMARK  7 active torsions:
REMARK  status: ('A' for Active; 'I' for Inactive)
REMARK    1  A    between atoms: C15_23  and  O3_4 
REMARK    2  A    between atoms: C23_31  and  O3_4 
REMARK    3  A    between atoms: C5_13  and  N1_6 
REMARK    4  A    between atoms: C6_14  and  N2_7 
REMARK    5  A    between atoms: C17_25  and  N3_8 
REMARK       I    between atoms: C9_17  and  N3_8 
REMARK    6  A    between atoms: C5_13  and  C7_15 
REMARK    7  A    between atoms: C6_14  and  C9_17 
ROOT
HETATM    1  N1  UNK     1      18.898   3.636  31.329  1.00  0.00     0.096 N 
HETATM    2  N2  UNK     1      19.214   6.307  32.388  1.00  0.00     0.100 N 
HETATM    3  C1  UNK     1      19.333   4.748  30.475  1.00  0.00     0.303 C 
HETATM    4  C2  UNK     1      18.047   4.130  32.420  1.00  0.00     0.303 C 
HETATM    5  C3  UNK     1      20.064   5.814  31.298  1.00  0.00     0.303 C 
HETATM    6  C4  UNK     1      18.780   5.196  33.242  1.00  0.00     0.303 C 
ENDROOT
BRANCH   1   7
HETATM    7  C5  UNK     1      18.196   2.622  30.545  1.00  0.00     0.312 C 
BRANCH   7   8
HETATM    8  C7  UNK     1      18.939   1.332  30.501  1.00  0.00    -0.011 A 
HETATM    9  C10 UNK     1      19.609   0.955  29.404  1.00  0.00     0.092 A 
HETATM   10  C13 UNK     1      20.357  -0.311  29.313  1.00  0.00     0.288 A 
HETATM   11  O1  UNK     1      20.343  -1.123  30.437  1.00  0.00    -0.275 OA
HETATM   12  O4  UNK     1      20.958  -0.623  28.291  1.00  0.00    -0.260 OA
HETATM   13  C11 UNK     1      19.647  -0.754  31.605  1.00  0.00     0.090 A 
HETATM   14  C8  UNK     1      18.942   0.449  31.676  1.00  0.00     0.009 A 
HETATM   15  C14 UNK     1      19.703  -1.650  32.674  1.00  0.00     0.041 A 
HETATM   16  C12 UNK     1      18.277   0.742  32.873  1.00  0.00     0.051 A 
HETATM   17  C15 UNK     1      18.322  -0.147  33.954  1.00  0.00     0.069 A 
HETATM   18  C16 UNK     1      19.034  -1.340  33.855  1.00  0.00     0.039 A 
BRANCH  17  19
HETATM   19  O3  UNK     1      17.667   0.158  35.108  1.00  0.00    -0.351 OA
BRANCH  19  20
HETATM   20  C23 UNK     1      16.245   0.035  35.098  1.00  0.00     0.171 C 
HETATM   21  C25 UNK     1      15.692   0.616  36.381  1.00  0.00     0.034 C 
ENDBRANCH  19  20
ENDBRANCH  17  19
ENDBRANCH   7   8
ENDBRANCH   1   7
BRANCH   2  22
HETATM   22  C6  UNK     1      19.913   7.323  33.173  1.00  0.00     0.375 C 
BRANCH  22  23
HETATM   23  C9  UNK     1      18.929   8.004  34.109  1.00  0.00     0.250 C 
HETATM   24  O2  UNK     1      19.036   7.954  35.330  1.00  0.00    -0.271 OA
HETATM   25  N3  UNK     1      17.947   8.665  33.376  1.00  0.00    -0.326 N 
HETATM   26  H15 UNK     1      17.994   8.612  32.361  1.00  0.00     0.169 HD
BRANCH  25  27
HETATM   27  C17 UNK     1      16.855   9.416  33.876  1.00  0.00     0.037 A 
HETATM   28  C18 UNK     1      17.031  10.755  34.227  1.00  0.00     0.072 A 
HETATM   29  C20 UNK     1      15.956  11.494  34.719  1.00  0.00     0.124 A 
HETATM   30  F1  UNK     1      16.136  12.779  35.054  1.00  0.00    -0.205 F 
HETATM   31  C22 UNK     1      14.704  10.895  34.860  1.00  0.00    -0.023 A 
HETATM   32  C21 UNK     1      14.528   9.557  34.509  1.00  0.00     0.012 A 
HETATM   33  C24 UNK     1      13.552  11.682  35.386  1.00  0.00     0.051 C 
HETATM   34  C19 UNK     1      15.603   8.818  34.017  1.00  0.00     0.030 A 
ENDBRANCH  25  27
ENDBRANCH  22  23
ENDBRANCH   2  22
TORSDOF 7
ENDMDL
MODEL 3
REMARK VINA RESULT:      -8.9      3.589     11.670
REMARK  7 active torsions:
REMARK  status: ('A' for Active; 'I' for Inactive)
REMARK    1  A    between atoms: C15_23  and  O3_4 
REMARK    2  A    between atoms: C23_31  and  O3_4 
REMARK    3  A    between atoms: C5_13  and  N1_6 
REMARK    4  A    between atoms: C6_14  and  N2_7 
REMARK    5  A    between atoms: C17_25  and  N3_8 
REMARK       I    between atoms: C9_17  and  N3_8 
REMARK    6  A    between atoms: C5_13  and  C7_15 
REMARK    7  A    between atoms: C6_14  and  C9_17 
ROOT
HETATM    1  N1  UNK     1      17.890   1.502  35.192  1.00  0.00     0.096 N 
HETATM    2  N2  UNK     1      18.245  -1.015  36.570  1.00  0.00     0.100 N 
HETATM    3  C1  UNK     1      18.936   0.554  34.790  1.00  0.00     0.303 C 
HETATM    4  C2  UNK     1      17.602   1.370  36.626  1.00  0.00     0.303 C 
HETATM    5  C3  UNK     1      18.532  -0.884  35.137  1.00  0.00     0.303 C 
HETATM    6  C4  UNK     1      17.198  -0.068  36.971  1.00  0.00     0.303 C 
ENDROOT
BRANCH   1   7
HETATM    7  C5  UNK     1      18.278   2.873  34.866  1.00  0.00     0.312 C 
BRANCH   7   8
HETATM    8  C7  UNK     1      18.325   3.109  33.397  1.00  0.00    -0.011 A 
HETATM    9  C10 UNK     1      18.344   2.086  32.530  1.00  0.00     0.092 A 
HETATM   10  C13 UNK     1      18.392   2.270  31.070  1.00  0.00     0.288 A 
HETATM   11  O1  UNK     1      18.417   3.577  30.608  1.00  0.00    -0.275 OA
HETATM   12  O4  UNK     1      18.409   1.309  30.308  1.00  0.00    -0.260 OA
HETATM   13  C11 UNK     1      18.399   4.673  31.493  1.00  0.00     0.090 A 
HETATM   14  C8  UNK     1      18.354   4.483  32.875  1.00  0.00     0.009 A 
HETATM   15  C14 UNK     1      18.428   5.943  30.915  1.00  0.00     0.041 A 
HETATM   16  C12 UNK     1      18.339   5.624  33.687  1.00  0.00     0.051 A 
HETATM   17  C15 UNK     1      18.369   6.905  33.123  1.00  0.00     0.069 A 
HETATM   18  C16 UNK     1      18.413   7.064  31.740  1.00  0.00     0.039 A 
BRANCH  17  19
HETATM   19  O3  UNK     1      18.354   8.001  33.931  1.00  0.00    -0.351 OA
BRANCH  19  20
HETATM   20  C23 UNK     1      19.413   8.120  34.880  1.00  0.00     0.171 C 
HETATM   21  C25 UNK     1      20.304   9.277  34.482  1.00  0.00     0.034 C 
ENDBRANCH  19  20
ENDBRANCH  17  19
ENDBRANCH   7   8
ENDBRANCH   1   7
BRANCH   2  22
HETATM   22  C6  UNK     1      17.858  -2.385  36.899  1.00  0.00     0.375 C 
BRANCH  22  23
HETATM   23  C9  UNK     1      19.084  -3.281  36.854  1.00  0.00     0.250 C 
HETATM   24  O2  UNK     1      20.221  -2.854  37.026  1.00  0.00    -0.271 OA
HETATM   25  N3  UNK     1      18.708  -4.599  36.606  1.00  0.00    -0.326 N 
HETATM   26  H15 UNK     1      17.717  -4.795  36.483  1.00  0.00     0.169 HD
BRANCH  25  27
HETATM   27  C17 UNK     1      19.552  -5.731  36.491  1.00  0.00     0.037 A 
HETATM   28  C18 UNK     1      20.132  -6.287  37.632  1.00  0.00     0.072 A 
HETATM   29  C20 UNK     1      20.962  -7.402  37.518  1.00  0.00     0.124 A 
HETATM   30  F1  UNK     1      21.515  -7.928  38.620  1.00  0.00    -0.205 F 
HETATM   31  C22 UNK     1      21.212  -7.961  36.266  1.00  0.00    -0.023 A 
HETATM   32  C21 UNK     1      20.632  -7.406  35.126  1.00  0.00     0.012 A 
HETATM   33  C24 UNK     1      22.100  -9.153  36.141  1.00  0.00     0.051 C 
HETATM   34  C19 UNK     1      19.801  -6.291  35.238  1.00  0.00     0.030 A 
ENDBRANCH  25  27
ENDBRANCH  22  23
ENDBRANCH   2  22
TORSDOF 7
ENDMDL
MODEL 4
REMARK VINA RESULT:      -8.7      8.718     12.643
REMARK  7 active torsions:
REMARK  status: ('A' for Active; 'I' for Inactive)
REMARK    1  A    between atoms: C15_23  and  O3_4 
REMARK    2  A    between atoms: C23_31  and  O3_4 
REMARK    3  A    between atoms: C5_13  and  N1_6 
REMARK    4  A    between atoms: C6_14  and  N2_7 
REMARK    5  A    between atoms: C17_25  and  N3_8 
REMARK       I    between atoms: C9_17  and  N3_8 
REMARK    6  A    between atoms: C5_13  and  C7_15 
REMARK    7  A    between atoms: C6_14  and  C9_17 
ROOT
HETATM    1  N1  UNK     1      26.726  -9.472  37.638  1.00  0.00     0.096 N 
HETATM    2  N2  UNK     1      29.553  -9.181  38.168  1.00  0.00     0.100 N 
HETATM    3  C1  UNK     1      27.605  -8.747  36.712  1.00  0.00     0.303 C 
HETATM    4  C2  UNK     1      27.239  -9.379  39.011  1.00  0.00     0.303 C 
HETATM    5  C3  UNK     1      29.041  -9.275  36.796  1.00  0.00     0.303 C 
HETATM    6  C4  UNK     1      28.675  -9.908  39.093  1.00  0.00     0.303 C 
ENDROOT
BRANCH   1   7
HETATM    7  C5  UNK     1      25.357  -8.965  37.560  1.00  0.00     0.312 C 
BRANCH   7   8
HETATM    8  C7  UNK     1      24.465  -9.870  36.786  1.00  0.00    -0.011 A 
HETATM    9  C10 UNK     1      24.910 -11.041  36.310  1.00  0.00     0.092 A 
HETATM   10  C13 UNK     1      24.066 -11.969  35.538  1.00  0.00     0.288 A 
HETATM   11  O1  UNK     1      22.755 -11.578  35.315  1.00  0.00    -0.275 OA
HETATM   12  O4  UNK     1      24.509 -13.032  35.118  1.00  0.00    -0.260 OA
HETATM   13  C11 UNK     1      22.257 -10.353  35.803  1.00  0.00     0.090 A 
HETATM   14  C8  UNK     1      23.070  -9.483  36.532  1.00  0.00     0.009 A 
HETATM   15  C14 UNK     1      20.922 -10.064  35.518  1.00  0.00     0.041 A 
HETATM   16  C12 UNK     1      22.500  -8.285  36.981  1.00  0.00     0.051 A 
HETATM   17  C15 UNK     1      21.162  -7.979  36.702  1.00  0.00     0.069 A 
HETATM   18  C16 UNK     1      20.375  -8.867  35.972  1.00  0.00     0.039 A 
BRANCH  17  19
HETATM   19  O3  UNK     1      20.629  -6.809  37.147  1.00  0.00    -0.351 OA
BRANCH  19  20
HETATM   20  C23 UNK     1      21.086  -6.327  38.410  1.00  0.00     0.171 C 
HETATM   21  C25 UNK     1      20.078  -6.702  39.475  1.00  0.00     0.034 C 
ENDBRANCH  19  20
ENDBRANCH  17  19
ENDBRANCH   7   8
ENDBRANCH   1   7
BRANCH   2  22
HETATM   22  C6  UNK     1      30.922  -9.687  38.248  1.00  0.00     0.375 C 
BRANCH  22  23
HETATM   23  C9  UNK     1      31.786  -8.971  37.223  1.00  0.00     0.250 C 
HETATM   24  O2  UNK     1      32.347  -9.560  36.305  1.00  0.00    -0.271 OA
HETATM   25  N3  UNK     1      31.819  -7.605  37.493  1.00  0.00    -0.326 N 
HETATM   26  H15 UNK     1      31.299  -7.267  38.300  1.00  0.00     0.169 HD
BRANCH  25  27
HETATM   27  C17 UNK     1      32.510  -6.600  36.773  1.00  0.00     0.037 A 
HETATM   28  C18 UNK     1      33.882  -6.428  36.957  1.00  0.00     0.072 A 
HETATM   29  C20 UNK     1      34.561  -5.438  36.247  1.00  0.00     0.124 A 
HETATM   30  F1  UNK     1      35.880  -5.280  36.431  1.00  0.00    -0.205 F 
HETATM   31  C22 UNK     1      33.870  -4.621  35.354  1.00  0.00    -0.023 A 
HETATM   32  C21 UNK     1      32.498  -4.793  35.170  1.00  0.00     0.012 A 
HETATM   33  C24 UNK     1      34.593  -3.561  34.594  1.00  0.00     0.051 C 
HETATM   34  C19 UNK     1      31.818  -5.782  35.879  1.00  0.00     0.030 A 
ENDBRANCH  25  27
ENDBRANCH  22  23
ENDBRANCH   2  22
TORSDOF 7
ENDMDL
MODEL 5
REMARK VINA RESULT:      -8.6      4.897     13.388
REMARK  7 active torsions:
REMARK  status: ('A' for Active; 'I' for Inactive)
REMARK    1  A    between atoms: C15_23  and  O3_4 
REMARK    2  A    between atoms: C23_31  and  O3_4 
REMARK    3  A    between atoms: C5_13  and  N1_6 
REMARK    4  A    between atoms: C6_14  and  N2_7 
REMARK    5  A    between atoms: C17_25  and  N3_8 
REMARK       I    between atoms: C9_17  and  N3_8 
REMARK    6  A    between atoms: C5_13  and  C7_15 
REMARK    7  A    between atoms: C6_14  and  C9_17 
ROOT
HETATM    1  N1  UNK     1      17.965   5.562  31.621  1.00  0.00     0.096 N 
HETATM    2  N2  UNK     1      19.012   2.958  30.931  1.00  0.00     0.100 N 
HETATM    3  C1  UNK     1      18.970   5.401  30.564  1.00  0.00     0.303 C 
HETATM    4  C2  UNK     1      18.108   4.506  32.631  1.00  0.00     0.303 C 
HETATM    5  C3  UNK     1      18.869   4.013  29.922  1.00  0.00     0.303 C 
HETATM    6  C4  UNK     1      18.006   3.119  31.987  1.00  0.00     0.303 C 
ENDROOT
BRANCH   1   7
HETATM    7  C5  UNK     1      18.065   6.884  32.236  1.00  0.00     0.312 C 
BRANCH   7   8
HETATM    8  C7  UNK     1      16.730   7.499  32.470  1.00  0.00    -0.011 A 
HETATM    9  C10 UNK     1      15.603   6.861  32.125  1.00  0.00     0.092 A 
HETATM   10  C13 UNK     1      14.260   7.428  32.335  1.00  0.00     0.288 A 
HETATM   11  O1  UNK     1      14.200   8.683  32.922  1.00  0.00    -0.275 OA
HETATM   12  O4  UNK     1      13.251   6.814  32.005  1.00  0.00    -0.260 OA
HETATM   13  C11 UNK     1      15.367   9.379  33.296  1.00  0.00     0.090 A 
HETATM   14  C8  UNK     1      16.633   8.828  33.089  1.00  0.00     0.009 A 
HETATM   15  C14 UNK     1      15.185  10.634  33.878  1.00  0.00     0.041 A 
HETATM   16  C12 UNK     1      17.742   9.584  33.489  1.00  0.00     0.051 A 
HETATM   17  C15 UNK     1      17.577  10.846  34.073  1.00  0.00     0.069 A 
HETATM   18  C16 UNK     1      16.300  11.370  34.267  1.00  0.00     0.039 A 
BRANCH  17  19
HETATM   19  O3  UNK     1      18.669  11.564  34.453  1.00  0.00    -0.351 OA
BRANCH  19  20
HETATM   20  C23 UNK     1      18.546  12.986  34.444  1.00  0.00     0.171 C 
HETATM   21  C25 UNK     1      18.732  13.488  33.028  1.00  0.00     0.034 C 
ENDBRANCH  19  20
ENDBRANCH  17  19
ENDBRANCH   7   8
ENDBRANCH   1   7
BRANCH   2  22
HETATM   22  C6  UNK     1      18.914   1.635  30.318  1.00  0.00     0.375 C 
BRANCH  22  23
HETATM   23  C9  UNK     1      19.649   0.622  31.180  1.00  0.00     0.250 C 
HETATM   24  O2  UNK     1      20.799   0.266  30.946  1.00  0.00    -0.271 OA
HETATM   25  N3  UNK     1      18.833   0.199  32.226  1.00  0.00    -0.326 N 
HETATM   26  H15 UNK     1      17.894   0.588  32.284  1.00  0.00     0.169 HD
BRANCH  25  27
HETATM   27  C17 UNK     1      19.147  -0.735  33.243  1.00  0.00     0.037 A 
HETATM   28  C18 UNK     1      18.624  -0.572  34.526  1.00  0.00     0.072 A 
HETATM   29  C20 UNK     1      18.934  -1.493  35.527  1.00  0.00     0.124 A 
HETATM   30  F1  UNK     1      18.426  -1.327  36.757  1.00  0.00    -0.205 F 
HETATM   31  C22 UNK     1      19.766  -2.576  35.246  1.00  0.00    -0.023 A 
HETATM   32  C21 UNK     1      20.289  -2.739  33.963  1.00  0.00     0.012 A 
HETATM   33  C24 UNK     1      20.100  -3.562  36.314  1.00  0.00     0.051 C 
HETATM   34  C19 UNK     1      19.980  -1.819  32.962  1.00  0.00     0.030 A 
ENDBRANCH  25  27
ENDBRANCH  22  23
ENDBRANCH   2  22
TORSDOF 7
ENDMDL
MODEL 6
REMARK VINA RESULT:      -8.5      7.826     10.340
REMARK  7 active torsions:
REMARK  status: ('A' for Active; 'I' for Inactive)
REMARK    1  A    between atoms: C15_23  and  O3_4 
REMARK    2  A    between atoms: C23_31  and  O3_4 
REMARK    3  A    between atoms: C5_13  and  N1_6 
REMARK    4  A    between atoms: C6_14  and  N2_7 
REMARK    5  A    between atoms: C17_25  and  N3_8 
REMARK       I    between atoms: C9_17  and  N3_8 
REMARK    6  A    between atoms: C5_13  and  C7_15 
REMARK    7  A    between atoms: C6_14  and  C9_17 
ROOT
HETATM    1  N1  UNK     1      25.559  -7.838  38.502  1.00  0.00     0.096 N 
HETATM    2  N2  UNK     1      28.346  -7.095  38.686  1.00  0.00     0.100 N 
HETATM    3  C1  UNK     1      25.963  -6.502  38.957  1.00  0.00     0.303 C 
HETATM    4  C2  UNK     1      26.591  -8.828  38.835  1.00  0.00     0.303 C 
HETATM    5  C3  UNK     1      27.314  -6.106  38.353  1.00  0.00     0.303 C 
HETATM    6  C4  UNK     1      27.942  -8.430  38.229  1.00  0.00     0.303 C 
ENDROOT
BRANCH   1   7
HETATM    7  C5  UNK     1      24.272  -8.218  39.083  1.00  0.00     0.312 C 
BRANCH   7   8
HETATM    8  C7  UNK     1      23.125  -7.794  38.233  1.00  0.00    -0.011 A 
HETATM    9  C10 UNK     1      22.466  -6.653  38.477  1.00  0.00     0.092 A 
HETATM   10  C13 UNK     1      21.326  -6.193  37.666  1.00  0.00     0.288 A 
HETATM   11  O1  UNK     1      20.947  -7.005  36.608  1.00  0.00    -0.275 OA
HETATM   12  O4  UNK     1      20.747  -5.142  37.920  1.00  0.00    -0.260 OA
HETATM   13  C11 UNK     1      21.620  -8.211  36.327  1.00  0.00     0.090 A 
HETATM   14  C8  UNK     1      22.699  -8.634  37.106  1.00  0.00     0.009 A 
HETATM   15  C14 UNK     1      21.151  -8.948  35.238  1.00  0.00     0.041 A 
HETATM   16  C12 UNK     1      23.313  -9.845  36.760  1.00  0.00     0.051 A 
HETATM   17  C15 UNK     1      22.854 -10.597  35.672  1.00  0.00     0.069 A 
HETATM   18  C16 UNK     1      21.775 -10.149  34.912  1.00  0.00     0.039 A 
BRANCH  17  19
HETATM   19  O3  UNK     1      23.465 -11.771  35.354  1.00  0.00    -0.351 OA
BRANCH  19  20
HETATM   20  C23 UNK     1      24.748 -12.010  35.932  1.00  0.00     0.171 C 
HETATM   21  C25 UNK     1      24.784 -13.418  36.486  1.00  0.00     0.034 C 
ENDBRANCH  19  20
ENDBRANCH  17  19
ENDBRANCH   7   8
ENDBRANCH   1   7
BRANCH   2  22
HETATM   22  C6  UNK     1      29.634  -6.716  38.108  1.00  0.00     0.375 C 
BRANCH  22  23
HETATM   23  C9  UNK     1      29.700  -7.188  36.665  1.00  0.00     0.250 C 
HETATM   24  O2  UNK     1      30.045  -8.324  36.357  1.00  0.00    -0.271 OA
HETATM   25  N3  UNK     1      29.312  -6.163  35.805  1.00  0.00    -0.326 N 
HETATM   26  H15 UNK     1      29.054  -5.269  36.218  1.00  0.00     0.169 HD
BRANCH  25  27
HETATM   27  C17 UNK     1      29.238  -6.204  34.392  1.00  0.00     0.037 A 
HETATM   28  C18 UNK     1      28.010  -6.414  33.764  1.00  0.00     0.072 A 
HETATM   29  C20 UNK     1      27.938  -6.453  32.372  1.00  0.00     0.124 A 
HETATM   30  F1  UNK     1      26.753  -6.656  31.777  1.00  0.00    -0.205 F 
HETATM   31  C22 UNK     1      29.091  -6.282  31.608  1.00  0.00    -0.023 A 
HETATM   32  C21 UNK     1      30.318  -6.071  32.235  1.00  0.00     0.012 A 
HETATM   33  C24 UNK     1      29.017  -6.323  30.118  1.00  0.00     0.051 C 
HETATM   34  C19 UNK     1      30.392  -6.031  33.628  1.00  0.00     0.030 A 
ENDBRANCH  25  27
ENDBRANCH  22  23
ENDBRANCH   2  22
TORSDOF 7
ENDMDL
MODEL 7
REMARK VINA RESULT:      -8.4     10.921     13.630
REMARK  7 active torsions:
REMARK  status: ('A' for Active; 'I' for Inactive)
REMARK    1  A    between atoms: C15_23  and  O3_4 
REMARK    2  A    between atoms: C23_31  and  O3_4 
REMARK    3  A    between atoms: C5_13  and  N1_6 
REMARK    4  A    between atoms: C6_14  and  N2_7 
REMARK    5  A    between atoms: C17_25  and  N3_8 
REMARK       I    between atoms: C9_17  and  N3_8 
REMARK    6  A    between atoms: C5_13  and  C7_15 
REMARK    7  A    between atoms: C6_14  and  C9_17 
ROOT
HETATM    1  N1  UNK     1      31.405  -9.583  36.378  1.00  0.00     0.096 N 
HETATM    2  N2  UNK     1      32.575 -10.400  33.864  1.00  0.00     0.100 N 
HETATM    3  C1  UNK     1      32.536  -8.854  35.791  1.00  0.00     0.303 C 
HETATM    4  C2  UNK     1      31.441 -10.995  35.977  1.00  0.00     0.303 C 
HETATM    5  C3  UNK     1      32.538  -8.989  34.264  1.00  0.00     0.303 C 
HETATM    6  C4  UNK     1      31.443 -11.128  34.450  1.00  0.00     0.303 C 
ENDROOT
BRANCH   1   7
HETATM    7  C5  UNK     1      31.406  -9.457  37.834  1.00  0.00     0.312 C 
BRANCH   7   8
HETATM    8  C7  UNK     1      30.199  -8.747  38.338  1.00  0.00    -0.011 A 
HETATM    9  C10 UNK     1      29.114  -9.423  38.741  1.00  0.00     0.092 A 
HETATM   10  C13 UNK     1      27.897  -8.764  39.246  1.00  0.00     0.288 A 
HETATM   11  O1  UNK     1      27.913  -7.379  39.293  1.00  0.00    -0.275 OA
HETATM   12  O4  UNK     1      26.924  -9.416  39.606  1.00  0.00    -0.260 OA
HETATM   13  C11 UNK     1      29.039  -6.639  38.875  1.00  0.00     0.090 A 
HETATM   14  C8  UNK     1      30.185  -7.278  38.398  1.00  0.00     0.009 A 
HETATM   15  C14 UNK     1      28.942  -5.250  38.966  1.00  0.00     0.041 A 
HETATM   16  C12 UNK     1      31.260  -6.472  38.003  1.00  0.00     0.051 A 
HETATM   17  C15 UNK     1      31.178  -5.077  38.086  1.00  0.00     0.069 A 
HETATM   18  C16 UNK     1      30.021  -4.467  38.567  1.00  0.00     0.039 A 
BRANCH  17  19
HETATM   19  O3  UNK     1      32.235  -4.312  37.696  1.00  0.00    -0.351 OA
BRANCH  19  20
HETATM   20  C23 UNK     1      32.170  -3.735  36.392  1.00  0.00     0.171 C 
HETATM   21  C25 UNK     1      33.332  -4.248  35.569  1.00  0.00     0.034 C 
ENDBRANCH  19  20
ENDBRANCH  17  19
ENDBRANCH   7   8
ENDBRANCH   1   7
BRANCH   2  22
HETATM   22  C6  UNK     1      32.575 -10.527  32.408  1.00  0.00     0.375 C 
BRANCH  22  23
HETATM   23  C9  UNK     1      31.735  -9.416  31.802  1.00  0.00     0.250 C 
HETATM   24  O2  UNK     1      32.230  -8.435  31.258  1.00  0.00    -0.271 OA
HETATM   25  N3  UNK     1      30.380  -9.699  31.958  1.00  0.00    -0.326 N 
HETATM   26  H15 UNK     1      30.126 -10.560  32.437  1.00  0.00     0.169 HD
BRANCH  25  27
HETATM   27  C17 UNK     1      29.280  -8.916  31.531  1.00  0.00     0.037 A 
HETATM   28  C18 UNK     1      28.841  -7.845  32.311  1.00  0.00     0.072 A 
HETATM   29  C20 UNK     1      27.759  -7.074  31.889  1.00  0.00     0.124 A 
HETATM   30  F1  UNK     1      27.344  -6.047  32.645  1.00  0.00    -0.205 F 
HETATM   31  C22 UNK     1      27.114  -7.373  30.689  1.00  0.00    -0.023 A 
HETATM   32  C21 UNK     1      27.552  -8.443  29.910  1.00  0.00     0.012 A 
HETATM   33  C24 UNK     1      25.955  -6.550  30.236  1.00  0.00     0.051 C 
HETATM   34  C19 UNK     1      28.635  -9.214  30.330  1.00  0.00     0.030 A 
ENDBRANCH  25  27
ENDBRANCH  22  23
ENDBRANCH   2  22
TORSDOF 7
ENDMDL
MODEL 8
REMARK VINA RESULT:      -8.4     10.910     13.776
REMARK  7 active torsions:
REMARK  status: ('A' for Active; 'I' for Inactive)
REMARK    1  A    between atoms: C15_23  and  O3_4 
REMARK    2  A    between atoms: C23_31  and  O3_4 
REMARK    3  A    between atoms: C5_13  and  N1_6 
REMARK    4  A    between atoms: C6_14  and  N2_7 
REMARK    5  A    between atoms: C17_25  and  N3_8 
REMARK       I    between atoms: C9_17  and  N3_8 
REMARK    6  A    between atoms: C5_13  and  C7_15 
REMARK    7  A    between atoms: C6_14  and  C9_17 
ROOT
HETATM    1  N1  UNK     1      32.173  -8.211  35.997  1.00  0.00     0.096 N 
HETATM    2  N2  UNK     1      32.450 -10.380  34.106  1.00  0.00     0.100 N 
HETATM    3  C1  UNK     1      33.299  -8.264  35.057  1.00  0.00     0.303 C 
HETATM    4  C2  UNK     1      31.709  -9.567  36.318  1.00  0.00     0.303 C 
HETATM    5  C3  UNK     1      32.913  -9.025  33.784  1.00  0.00     0.303 C 
HETATM    6  C4  UNK     1      31.322 -10.327  35.044  1.00  0.00     0.303 C 
ENDROOT
BRANCH   1   7
HETATM    7  C5  UNK     1      32.544  -7.489  37.213  1.00  0.00     0.312 C 
BRANCH   7   8
HETATM    8  C7  UNK     1      31.922  -6.138  37.275  1.00  0.00    -0.011 A 
HETATM    9  C10 UNK     1      32.543  -5.065  36.766  1.00  0.00     0.092 A 
HETATM   10  C13 UNK     1      31.968  -3.709  36.806  1.00  0.00     0.288 A 
HETATM   11  O1  UNK     1      30.725  -3.577  37.405  1.00  0.00    -0.275 OA
HETATM   12  O4  UNK     1      32.567  -2.751  36.330  1.00  0.00    -0.260 OA
HETATM   13  C11 UNK     1      30.048  -4.686  37.950  1.00  0.00     0.090 A 
HETATM   14  C8  UNK     1      30.605  -5.965  37.906  1.00  0.00     0.009 A 
HETATM   15  C14 UNK     1      28.803  -4.435  38.529  1.00  0.00     0.041 A 
HETATM   16  C12 UNK     1      29.869  -7.015  38.470  1.00  0.00     0.051 A 
HETATM   17  C15 UNK     1      28.619  -6.778  39.055  1.00  0.00     0.069 A 
HETATM   18  C16 UNK     1      28.087  -5.491  39.084  1.00  0.00     0.039 A 
BRANCH  17  19
HETATM   19  O3  UNK     1      27.920  -7.813  39.598  1.00  0.00    -0.351 OA
BRANCH  19  20
HETATM   20  C23 UNK     1      28.118  -9.103  39.020  1.00  0.00     0.171 C 
HETATM   21  C25 UNK     1      27.498 -10.148  39.923  1.00  0.00     0.034 C 
ENDBRANCH  19  20
ENDBRANCH  17  19
ENDBRANCH   7   8
ENDBRANCH   1   7
BRANCH   2  22
HETATM   22  C6  UNK     1      32.080 -11.104  32.891  1.00  0.00     0.375 C 
BRANCH  22  23
HETATM   23  C9  UNK     1      30.651 -10.756  32.509  1.00  0.00     0.250 C 
HETATM   24  O2  UNK     1      29.725 -11.552  32.622  1.00  0.00    -0.271 OA
HETATM   25  N3  UNK     1      30.583  -9.445  32.043  1.00  0.00    -0.326 N 
HETATM   26  H15 UNK     1      31.448  -8.909  32.008  1.00  0.00     0.169 HD
BRANCH  25  27
HETATM   27  C17 UNK     1      29.437  -8.747  31.593  1.00  0.00     0.037 A 
HETATM   28  C18 UNK     1      28.888  -7.729  32.373  1.00  0.00     0.072 A 
HETATM   29  C20 UNK     1      27.760  -7.041  31.929  1.00  0.00     0.124 A 
HETATM   30  F1  UNK     1      27.240  -6.065  32.686  1.00  0.00    -0.205 F 
HETATM   31  C22 UNK     1      27.179  -7.371  30.705  1.00  0.00    -0.023 A 
HETATM   32  C21 UNK     1      27.727  -8.388  29.924  1.00  0.00     0.012 A 
HETATM   33  C24 UNK     1      25.971  -6.638  30.226  1.00  0.00     0.051 C 
HETATM   34  C19 UNK     1      28.856  -9.076  30.368  1.00  0.00     0.030 A 
ENDBRANCH  25  27
ENDBRANCH  22  23
ENDBRANCH   2  22
TORSDOF 7
ENDMDL
MODEL 9
REMARK VINA RESULT:      -8.4     12.401     17.058
REMARK  7 active torsions:
REMARK  status: ('A' for Active; 'I' for Inactive)
REMARK    1  A    between atoms: C15_23  and  O3_4 
REMARK    2  A    between atoms: C23_31  and  O3_4 
REMARK    3  A    between atoms: C5_13  and  N1_6 
REMARK    4  A    between atoms: C6_14  and  N2_7 
REMARK    5  A    between atoms: C17_25  and  N3_8 
REMARK       I    between atoms: C9_17  and  N3_8 
REMARK    6  A    between atoms: C5_13  and  C7_15 
REMARK    7  A    between atoms: C6_14  and  C9_17 
ROOT
HETATM    1  N1  UNK     1      32.401  -5.662  35.896  1.00  0.00     0.096 N 
HETATM    2  N2  UNK     1      34.979  -6.419  34.828  1.00  0.00     0.100 N 
HETATM    3  C1  UNK     1      32.566  -6.879  35.092  1.00  0.00     0.303 C 
HETATM    4  C2  UNK     1      33.391  -4.650  35.504  1.00  0.00     0.303 C 
HETATM    5  C3  UNK     1      33.990  -7.430  35.220  1.00  0.00     0.303 C 
HETATM    6  C4  UNK     1      34.815  -5.203  35.633  1.00  0.00     0.303 C 
ENDROOT
BRANCH   1   7
HETATM    7  C5  UNK     1      31.044  -5.135  35.770  1.00  0.00     0.312 C 
BRANCH   7   8
HETATM    8  C7  UNK     1      30.271  -5.262  37.036  1.00  0.00    -0.011 A 
HETATM    9  C10 UNK     1      30.300  -4.298  37.966  1.00  0.00     0.092 A 
HETATM   10  C13 UNK     1      29.554  -4.379  39.233  1.00  0.00     0.288 A 
HETATM   11  O1  UNK     1      28.796  -5.522  39.436  1.00  0.00    -0.275 OA
HETATM   12  O4  UNK     1      29.606  -3.477  40.061  1.00  0.00    -0.260 OA
HETATM   13  C11 UNK     1      28.745  -6.554  38.478  1.00  0.00     0.090 A 
HETATM   14  C8  UNK     1      29.459  -6.463  37.281  1.00  0.00     0.009 A 
HETATM   15  C14 UNK     1      27.950  -7.658  38.789  1.00  0.00     0.041 A 
HETATM   16  C12 UNK     1      29.356  -7.531  36.381  1.00  0.00     0.051 A 
HETATM   17  C15 UNK     1      28.563  -8.646  36.680  1.00  0.00     0.069 A 
HETATM   18  C16 UNK     1      27.862  -8.709  37.882  1.00  0.00     0.039 A 
BRANCH  17  19
HETATM   19  O3  UNK     1      28.478  -9.673  35.790  1.00  0.00    -0.351 OA
BRANCH  19  20
HETATM   20  C23 UNK     1      29.555  -9.821  34.866  1.00  0.00     0.171 C 
HETATM   21  C25 UNK     1      28.991 -10.162  33.503  1.00  0.00     0.034 C 
ENDBRANCH  19  20
ENDBRANCH  17  19
ENDBRANCH   7   8
ENDBRANCH   1   7
BRANCH   2  22
HETATM   22  C6  UNK     1      36.337  -6.944  34.952  1.00  0.00     0.375 C 
BRANCH  22  23
HETATM   23  C9  UNK     1      36.670  -7.781  33.728  1.00  0.00     0.250 C 
HETATM   24  O2  UNK     1      36.635  -7.328  32.589  1.00  0.00    -0.271 OA
HETATM   25  N3  UNK     1      37.009  -9.077  34.110  1.00  0.00    -0.326 N 
HETATM   26  H15 UNK     1      36.988  -9.301  35.102  1.00  0.00     0.169 HD
BRANCH  25  27
HETATM   27  C17 UNK     1      37.381 -10.155  33.270  1.00  0.00     0.037 A 
HETATM   28  C18 UNK     1      38.650 -10.181  32.690  1.00  0.00     0.072 A 
HETATM   29  C20 UNK     1      39.015 -11.243  31.864  1.00  0.00     0.124 A 
HETATM   30  F1  UNK     1      40.237 -11.260  31.310  1.00  0.00    -0.205 F 
HETATM   31  C22 UNK     1      38.114 -12.278  31.617  1.00  0.00    -0.023 A 
HETATM   32  C21 UNK     1      36.847 -12.252  32.197  1.00  0.00     0.012 A 
HETATM   33  C24 UNK     1      38.502 -13.415  30.733  1.00  0.00     0.051 C 
HETATM   34  C19 UNK     1      36.480 -11.191  33.024  1.00  0.00     0.030 A 
ENDBRANCH  25  27
ENDBRANCH  22  23
ENDBRANCH   2  22
TORSDOF 7
ENDMDL
MODEL 10
REMARK VINA RESULT:      -8.3      6.027     10.218
REMARK  7 active torsions:
REMARK  status: ('A' for Active; 'I' for Inactive)
REMARK    1  A    between atoms: C15_23  and  O3_4 
REMARK    2  A    between atoms: C23_31  and  O3_4 
REMARK    3  A    between atoms: C5_13  and  N1_6 
REMARK    4  A    between atoms: C6_14  and  N2_7 
REMARK    5  A    between atoms: C17_25  and  N3_8 
REMARK       I    between atoms: C9_17  and  N3_8 
REMARK    6  A    between atoms: C5_13  and  C7_15 
REMARK    7  A    between atoms: C6_14  and  C9_17 
ROOT
HETATM    1  N1  UNK     1      25.002  -7.858  38.427  1.00  0.00     0.096 N 
HETATM    2  N2  UNK     1      27.711  -7.187  39.178  1.00  0.00     0.100 N 
HETATM    3  C1  UNK     1      25.374  -6.485  38.789  1.00  0.00     0.303 C 
HETATM    4  C2  UNK     1      25.861  -8.823  39.123  1.00  0.00     0.303 C 
HETATM    5  C3  UNK     1      26.853  -6.222  38.481  1.00  0.00     0.303 C 
HETATM    6  C4  UNK     1      27.339  -8.559  38.814  1.00  0.00     0.303 C 
ENDROOT
BRANCH   1   7
HETATM    7  C5  UNK     1      23.593  -8.110  38.725  1.00  0.00     0.312 C 
BRANCH   7   8
HETATM    8  C7  UNK     1      22.810  -8.441  37.503  1.00  0.00    -0.011 A 
HETATM    9  C10 UNK     1      23.023  -9.581  36.831  1.00  0.00     0.092 A 
HETATM   10  C13 UNK     1      22.275  -9.951  35.617  1.00  0.00     0.288 A 
HETATM   11  O1  UNK     1      21.313  -9.054  35.181  1.00  0.00    -0.275 OA
HETATM   12  O4  UNK     1      22.499 -11.003  35.029  1.00  0.00    -0.260 OA
HETATM   13  C11 UNK     1      21.066  -7.847  35.866  1.00  0.00     0.090 A 
HETATM   14  C8  UNK     1      21.784  -7.509  37.014  1.00  0.00     0.009 A 
HETATM   15  C14 UNK     1      20.074  -7.020  35.335  1.00  0.00     0.041 A 
HETATM   16  C12 UNK     1      21.478  -6.292  37.636  1.00  0.00     0.051 A 
HETATM   17  C15 UNK     1      20.487  -5.450  37.116  1.00  0.00     0.069 A 
HETATM   18  C16 UNK     1      19.787  -5.814  35.968  1.00  0.00     0.039 A 
BRANCH  17  19
HETATM   19  O3  UNK     1      20.207  -4.271  37.736  1.00  0.00    -0.351 OA
BRANCH  19  20
HETATM   20  C23 UNK     1      20.332  -3.083  36.955  1.00  0.00     0.171 C 
HETATM   21  C25 UNK     1      19.028  -2.316  37.013  1.00  0.00     0.034 C 
ENDBRANCH  19  20
ENDBRANCH  17  19
ENDBRANCH   7   8
ENDBRANCH   1   7
BRANCH   2  22
HETATM   22  C6  UNK     1      29.121  -6.935  38.882  1.00  0.00     0.375 C 
BRANCH  22  23
HETATM   23  C9  UNK     1      29.231  -6.093  37.623  1.00  0.00     0.250 C 
HETATM   24  O2  UNK     1      29.347  -4.873  37.652  1.00  0.00    -0.271 OA
HETATM   25  N3  UNK     1      29.190  -6.908  36.494  1.00  0.00    -0.326 N 
HETATM   26  H15 UNK     1      29.088  -7.911  36.636  1.00  0.00     0.169 HD
BRANCH  25  27
HETATM   27  C17 UNK     1      29.264  -6.509  35.137  1.00  0.00     0.037 A 
HETATM   28  C18 UNK     1      28.128  -6.568  34.329  1.00  0.00     0.072 A 
HETATM   29  C20 UNK     1      28.202  -6.174  32.994  1.00  0.00     0.124 A 
HETATM   30  F1  UNK     1      27.105  -6.234  32.226  1.00  0.00    -0.205 F 
HETATM   31  C22 UNK     1      29.411  -5.721  32.466  1.00  0.00    -0.023 A 
HETATM   32  C21 UNK     1      30.546  -5.662  33.273  1.00  0.00     0.012 A 
HETATM   33  C24 UNK     1      29.493  -5.300  31.037  1.00  0.00     0.051 C 
HETATM   34  C19 UNK     1      30.473  -6.056  34.609  1.00  0.00     0.030 A 
ENDBRANCH  25  27
ENDBRANCH  22  23
ENDBRANCH   2  22
TORSDOF 7
ENDMDL
