MODEL 1
REMARK VINA RESULT:     -10.3      0.000      0.000
REMARK  4 active torsions:
REMARK  status: ('A' for Active; 'I' for Inactive)
REMARK    1  A    between atoms: C6_11  and  O1_1 
REMARK    2  A    between atoms: C7_12  and  O1_1 
REMARK       I    between atoms: C5_10  and  N1_5 
REMARK    3  A    between atoms: C5_10  and  C6_11 
REMARK    4  A    between atoms: C12_17  and  C8_13 
ROOT
HETATM    1  O3  UNK     1      18.991  -0.097  32.855  1.00  0.00    -0.306 OA
HETATM    2  O4  UNK     1      18.593   2.968  30.199  1.00  0.00    -0.284 OA
HETATM    3  C7  UNK     1      18.209   2.143  32.385  1.00  0.00     0.155 A 
HETATM    4  C8  UNK     1      18.369   1.090  33.208  1.00  0.00     0.123 A 
HETATM    5  C9  UNK     1      19.358   0.777  30.620  1.00  0.00     0.051 A 
HETATM    6  C10 UNK     1      18.710   2.044  30.993  1.00  0.00     0.221 A 
HETATM    7  C11 UNK     1      19.465  -0.231  31.576  1.00  0.00     0.090 A 
HETATM    8  C13 UNK     1      19.859   0.584  29.331  1.00  0.00     0.018 A 
HETATM    9  C14 UNK     1      20.076  -1.442  31.247  1.00  0.00     0.038 A 
HETATM   10  C17 UNK     1      20.469  -0.628  29.004  1.00  0.00     0.001 A 
HETATM   11  C18 UNK     1      20.578  -1.639  29.961  1.00  0.00     0.003 A 
ENDROOT
BRANCH   3  12
HETATM   12  O1  UNK     1      17.613   3.322  32.779  1.00  0.00    -0.335 OA
BRANCH  12  13
HETATM   13  C6  UNK     1      18.547   4.357  32.966  1.00  0.00     0.278 C 
BRANCH  13  14
HETATM   14  C5  UNK     1      17.819   5.649  32.697  1.00  0.00     0.244 C 
HETATM   15  O2  UNK     1      16.781   5.654  32.031  1.00  0.00    -0.271 OA
HETATM   16  N1  UNK     1      18.398   6.784  33.236  1.00  0.00    -0.350 N 
HETATM   17  C3  UNK     1      17.821   8.108  33.061  1.00  0.00     0.126 C 
HETATM   18  C4  UNK     1      19.618   6.845  34.033  1.00  0.00     0.126 C 
HETATM   19  C1  UNK     1      18.564   8.982  34.059  1.00  0.00     0.021 C 
HETATM   20  C2  UNK     1      19.940   8.330  34.120  1.00  0.00     0.021 C 
ENDBRANCH  13  14
ENDBRANCH  12  13
ENDBRANCH   3  12
BRANCH   4  21
HETATM   21  C12 UNK     1      17.907   1.103  34.607  1.00  0.00     0.001 A 
HETATM   22  C15 UNK     1      18.694   1.694  35.597  1.00  0.00     0.014 A 
HETATM   23  C19 UNK     1      18.256   1.705  36.922  1.00  0.00     0.001 A 
HETATM   24  C21 UNK     1      17.033   1.125  37.257  1.00  0.00     0.000 A 
HETATM   25  C20 UNK     1      16.247   0.533  36.268  1.00  0.00     0.001 A 
HETATM   26  C16 UNK     1      16.683   0.522  34.944  1.00  0.00     0.014 A 
ENDBRANCH   4  21
TORSDOF 4
ENDMDL
MODEL 2
REMARK VINA RESULT:      -9.1      4.310      7.583
REMARK  4 active torsions:
REMARK  status: ('A' for Active; 'I' for Inactive)
REMARK    1  A    between atoms: C6_11  and  O1_1 
REMARK    2  A    between atoms: C7_12  and  O1_1 
REMARK       I    between atoms: C5_10  and  N1_5 
REMARK    3  A    between atoms: C5_10  and  C6_11 
REMARK    4  A    between atoms: C12_17  and  C8_13 
ROOT
HETATM    1  O3  UNK     1      18.619   0.411  32.717  1.00  0.00    -0.306 OA
HETATM    2  O4  UNK     1      20.583  -3.156  32.857  1.00  0.00    -0.284 OA
HETATM    3  C7  UNK     1      19.261  -1.547  33.983  1.00  0.00     0.155 A 
HETATM    4  C8  UNK     1      18.639  -0.359  33.869  1.00  0.00     0.123 A 
HETATM    5  C9  UNK     1      19.984  -1.254  31.598  1.00  0.00     0.051 A 
HETATM    6  C10 UNK     1      19.998  -2.083  32.813  1.00  0.00     0.221 A 
HETATM    7  C11 UNK     1      19.292  -0.046  31.614  1.00  0.00     0.090 A 
HETATM    8  C13 UNK     1      20.653  -1.670  30.443  1.00  0.00     0.018 A 
HETATM    9  C14 UNK     1      19.263   0.757  30.473  1.00  0.00     0.038 A 
HETATM   10  C17 UNK     1      20.624  -0.864  29.304  1.00  0.00     0.001 A 
HETATM   11  C18 UNK     1      19.929   0.347  29.319  1.00  0.00     0.003 A 
ENDROOT
BRANCH   3  12
HETATM   12  O1  UNK     1      19.234  -2.303  35.136  1.00  0.00    -0.335 OA
BRANCH  12  13
HETATM   13  C6  UNK     1      20.524  -2.637  35.587  1.00  0.00     0.278 C 
BRANCH  13  14
HETATM   14  C5  UNK     1      20.342  -3.472  36.828  1.00  0.00     0.244 C 
HETATM   15  O2  UNK     1      20.359  -2.947  37.943  1.00  0.00    -0.271 OA
HETATM   16  N1  UNK     1      20.168  -4.828  36.615  1.00  0.00    -0.350 N 
HETATM   17  C3  UNK     1      19.986  -5.770  37.709  1.00  0.00     0.126 C 
HETATM   18  C4  UNK     1      20.134  -5.510  35.325  1.00  0.00     0.126 C 
HETATM   19  C1  UNK     1      19.515  -7.049  37.036  1.00  0.00     0.021 C 
HETATM   20  C2  UNK     1      20.201  -6.990  35.677  1.00  0.00     0.021 C 
ENDBRANCH  13  14
ENDBRANCH  12  13
ENDBRANCH   3  12
BRANCH   4  21
HETATM   21  C12 UNK     1      17.879   0.246  34.978  1.00  0.00     0.001 A 
HETATM   22  C15 UNK     1      16.514  -0.012  35.112  1.00  0.00     0.014 A 
HETATM   23  C19 UNK     1      15.796   0.561  36.161  1.00  0.00     0.001 A 
HETATM   24  C21 UNK     1      16.441   1.393  37.076  1.00  0.00     0.000 A 
HETATM   25  C20 UNK     1      17.805   1.652  36.942  1.00  0.00     0.001 A 
HETATM   26  C16 UNK     1      18.524   1.079  35.893  1.00  0.00     0.014 A 
ENDBRANCH   4  21
TORSDOF 4
ENDMDL
MODEL 3
REMARK VINA RESULT:      -8.2     13.843     16.314
REMARK  4 active torsions:
REMARK  status: ('A' for Active; 'I' for Inactive)
REMARK    1  A    between atoms: C6_11  and  O1_1 
REMARK    2  A    between atoms: C7_12  and  O1_1 
REMARK       I    between atoms: C5_10  and  N1_5 
REMARK    3  A    between atoms: C5_10  and  C6_11 
REMARK    4  A    between atoms: C12_17  and  C8_13 
ROOT
HETATM    1  O3  UNK     1      28.650  -6.341  34.512  1.00  0.00    -0.306 OA
HETATM    2  O4  UNK     1      29.882 -10.207  34.138  1.00  0.00    -0.284 OA
HETATM    3  C7  UNK     1      29.766  -8.257  35.476  1.00  0.00     0.155 A 
HETATM    4  C8  UNK     1      29.337  -6.983  35.530  1.00  0.00     0.123 A 
HETATM    5  C9  UNK     1      28.797  -8.353  33.163  1.00  0.00     0.051 A 
HETATM    6  C10 UNK     1      29.514  -9.044  34.246  1.00  0.00     0.221 A 
HETATM    7  C11 UNK     1      28.400  -7.032  33.355  1.00  0.00     0.090 A 
HETATM    8  C13 UNK     1      28.515  -9.008  31.961  1.00  0.00     0.018 A 
HETATM    9  C14 UNK     1      27.718  -6.355  32.343  1.00  0.00     0.038 A 
HETATM   10  C17 UNK     1      27.833  -8.328  30.951  1.00  0.00     0.001 A 
HETATM   11  C18 UNK     1      27.434  -7.004  31.142  1.00  0.00     0.003 A 
ENDROOT
BRANCH   3  12
HETATM   12  O1  UNK     1      30.419  -8.876  36.521  1.00  0.00    -0.335 OA
BRANCH  12  13
HETATM   13  C6  UNK     1      31.796  -9.029  36.276  1.00  0.00     0.278 C 
BRANCH  13  14
HETATM   14  C5  UNK     1      32.508  -8.123  37.248  1.00  0.00     0.244 C 
HETATM   15  O2  UNK     1      32.294  -8.212  38.458  1.00  0.00    -0.271 OA
HETATM   16  N1  UNK     1      33.385  -7.215  36.683  1.00  0.00    -0.350 N 
HETATM   17  C3  UNK     1      34.146  -6.267  37.484  1.00  0.00     0.126 C 
HETATM   18  C4  UNK     1      33.687  -7.061  35.263  1.00  0.00     0.126 C 
HETATM   19  C1  UNK     1      35.190  -5.713  36.528  1.00  0.00     0.021 C 
HETATM   20  C2  UNK     1      34.478  -5.763  35.182  1.00  0.00     0.021 C 
ENDBRANCH  13  14
ENDBRANCH  12  13
ENDBRANCH   3  12
BRANCH   4  21
HETATM   21  C12 UNK     1      29.538  -6.129  36.714  1.00  0.00     0.001 A 
HETATM   22  C15 UNK     1      28.754  -6.319  37.853  1.00  0.00     0.014 A 
HETATM   23  C19 UNK     1      28.946  -5.510  38.974  1.00  0.00     0.001 A 
HETATM   24  C21 UNK     1      29.918  -4.511  38.956  1.00  0.00     0.000 A 
HETATM   25  C20 UNK     1      30.701  -4.321  37.817  1.00  0.00     0.001 A 
HETATM   26  C16 UNK     1      30.511  -5.130  36.697  1.00  0.00     0.014 A 
ENDBRANCH   4  21
TORSDOF 4
ENDMDL
MODEL 4
REMARK VINA RESULT:      -7.9     14.293     16.332
REMARK  4 active torsions:
REMARK  status: ('A' for Active; 'I' for Inactive)
REMARK    1  A    between atoms: C6_11  and  O1_1 
REMARK    2  A    between atoms: C7_12  and  O1_1 
REMARK       I    between atoms: C5_10  and  N1_5 
REMARK    3  A    between atoms: C5_10  and  C6_11 
REMARK    4  A    between atoms: C12_17  and  C8_13 
ROOT
HETATM    1  O3  UNK     1      28.523  -8.123  36.203  1.00  0.00    -0.306 OA
HETATM    2  O4  UNK     1      28.831  -5.729  39.486  1.00  0.00    -0.284 OA
HETATM    3  C7  UNK     1      29.264  -6.038  37.179  1.00  0.00     0.155 A 
HETATM    4  C8  UNK     1      29.134  -6.881  36.138  1.00  0.00     0.123 A 
HETATM    5  C9  UNK     1      28.105  -7.777  38.569  1.00  0.00     0.051 A 
HETATM    6  C10 UNK     1      28.741  -6.452  38.503  1.00  0.00     0.221 A 
HETATM    7  C11 UNK     1      28.029  -8.546  37.410  1.00  0.00     0.090 A 
HETATM    8  C13 UNK     1      27.584  -8.260  39.773  1.00  0.00     0.018 A 
HETATM    9  C14 UNK     1      27.431  -9.805  37.447  1.00  0.00     0.038 A 
HETATM   10  C17 UNK     1      26.987  -9.520  39.807  1.00  0.00     0.001 A 
HETATM   11  C18 UNK     1      26.909 -10.291  38.646  1.00  0.00     0.003 A 
ENDROOT
BRANCH   3  12
HETATM   12  O1  UNK     1      29.849  -4.794  37.072  1.00  0.00    -0.335 OA
BRANCH  12  13
HETATM   13  C6  UNK     1      31.030  -4.692  37.830  1.00  0.00     0.278 C 
BRANCH  13  14
HETATM   14  C5  UNK     1      32.105  -4.212  36.889  1.00  0.00     0.244 C 
HETATM   15  O2  UNK     1      32.017  -3.107  36.350  1.00  0.00    -0.271 OA
HETATM   16  N1  UNK     1      33.156  -5.089  36.687  1.00  0.00    -0.350 N 
HETATM   17  C3  UNK     1      34.269  -4.777  35.803  1.00  0.00     0.126 C 
HETATM   18  C4  UNK     1      33.322  -6.405  37.295  1.00  0.00     0.126 C 
HETATM   19  C1  UNK     1      35.317  -5.831  36.125  1.00  0.00     0.021 C 
HETATM   20  C2  UNK     1      34.474  -7.035  36.525  1.00  0.00     0.021 C 
ENDBRANCH  13  14
ENDBRANCH  12  13
ENDBRANCH   3  12
BRANCH   4  21
HETATM   21  C12 UNK     1      29.619  -6.550  34.787  1.00  0.00     0.001 A 
HETATM   22  C15 UNK     1      28.720  -6.134  33.804  1.00  0.00     0.014 A 
HETATM   23  C19 UNK     1      29.181  -5.821  32.525  1.00  0.00     0.001 A 
HETATM   24  C21 UNK     1      30.539  -5.925  32.227  1.00  0.00     0.000 A 
HETATM   25  C20 UNK     1      31.438  -6.341  33.209  1.00  0.00     0.001 A 
HETATM   26  C16 UNK     1      30.979  -6.654  34.488  1.00  0.00     0.014 A 
ENDBRANCH   4  21
TORSDOF 4
ENDMDL
MODEL 5
REMARK VINA RESULT:      -7.8     13.904     16.188
REMARK  4 active torsions:
REMARK  status: ('A' for Active; 'I' for Inactive)
REMARK    1  A    between atoms: C6_11  and  O1_1 
REMARK    2  A    between atoms: C7_12  and  O1_1 
REMARK       I    between atoms: C5_10  and  N1_5 
REMARK    3  A    between atoms: C5_10  and  C6_11 
REMARK    4  A    between atoms: C12_17  and  C8_13 
ROOT
HETATM    1  O3  UNK     1      31.897  -6.750  37.396  1.00  0.00    -0.306 OA
HETATM    2  O4  UNK     1      31.094  -5.311  33.669  1.00  0.00    -0.284 OA
HETATM    3  C7  UNK     1      30.279  -6.317  35.652  1.00  0.00     0.155 A 
HETATM    4  C8  UNK     1      30.615  -6.780  36.870  1.00  0.00     0.123 A 
HETATM    5  C9  UNK     1      32.700  -5.730  35.344  1.00  0.00     0.051 A 
HETATM    6  C10 UNK     1      31.339  -5.746  34.786  1.00  0.00     0.221 A 
HETATM    7  C11 UNK     1      32.908  -6.235  36.626  1.00  0.00     0.090 A 
HETATM    8  C13 UNK     1      33.769  -5.217  34.605  1.00  0.00     0.018 A 
HETATM    9  C14 UNK     1      34.189  -6.230  37.178  1.00  0.00     0.038 A 
HETATM   10  C17 UNK     1      35.049  -5.214  35.159  1.00  0.00     0.001 A 
HETATM   11  C18 UNK     1      35.259  -5.718  36.444  1.00  0.00     0.003 A 
ENDROOT
BRANCH   3  12
HETATM   12  O1  UNK     1      28.987  -6.332  35.172  1.00  0.00    -0.335 OA
BRANCH  12  13
HETATM   13  C6  UNK     1      28.735  -7.444  34.347  1.00  0.00     0.278 C 
BRANCH  13  14
HETATM   14  C5  UNK     1      28.146  -6.907  33.068  1.00  0.00     0.244 C 
HETATM   15  O2  UNK     1      27.464  -5.881  33.077  1.00  0.00    -0.271 OA
HETATM   16  N1  UNK     1      28.422  -7.642  31.929  1.00  0.00    -0.350 N 
HETATM   17  C3  UNK     1      27.922  -7.260  30.617  1.00  0.00     0.126 C 
HETATM   18  C4  UNK     1      29.224  -8.859  31.850  1.00  0.00     0.126 C 
HETATM   19  C1  UNK     1      28.711  -8.121  29.644  1.00  0.00     0.021 C 
HETATM   20  C2  UNK     1      28.970  -9.389  30.446  1.00  0.00     0.021 C 
ENDBRANCH  13  14
ENDBRANCH  12  13
ENDBRANCH   3  12
BRANCH   4  21
HETATM   21  C12 UNK     1      29.627  -7.357  37.797  1.00  0.00     0.001 A 
HETATM   22  C15 UNK     1      29.411  -8.736  37.818  1.00  0.00     0.014 A 
HETATM   23  C19 UNK     1      28.475  -9.281  38.697  1.00  0.00     0.001 A 
HETATM   24  C21 UNK     1      27.754  -8.450  39.554  1.00  0.00     0.000 A 
HETATM   25  C20 UNK     1      27.970  -7.072  39.532  1.00  0.00     0.001 A 
HETATM   26  C16 UNK     1      28.906  -6.525  38.655  1.00  0.00     0.014 A 
ENDBRANCH   4  21
TORSDOF 4
ENDMDL
MODEL 6
REMARK VINA RESULT:      -7.8     13.624     16.009
REMARK  4 active torsions:
REMARK  status: ('A' for Active; 'I' for Inactive)
REMARK    1  A    between atoms: C6_11  and  O1_1 
REMARK    2  A    between atoms: C7_12  and  O1_1 
REMARK       I    between atoms: C5_10  and  N1_5 
REMARK    3  A    between atoms: C5_10  and  C6_11 
REMARK    4  A    between atoms: C12_17  and  C8_13 
ROOT
HETATM    1  O3  UNK     1      30.649  -6.127  33.791  1.00  0.00    -0.306 OA
HETATM    2  O4  UNK     1      29.127  -5.984  37.568  1.00  0.00    -0.284 OA
HETATM    3  C7  UNK     1      28.801  -6.551  35.292  1.00  0.00     0.155 A 
HETATM    4  C8  UNK     1      29.364  -6.563  34.069  1.00  0.00     0.123 A 
HETATM    5  C9  UNK     1      30.944  -5.547  36.129  1.00  0.00     0.051 A 
HETATM    6  C10 UNK     1      29.585  -6.022  36.434  1.00  0.00     0.221 A 
HETATM    7  C11 UNK     1      31.407  -5.626  34.817  1.00  0.00     0.090 A 
HETATM    8  C13 UNK     1      31.761  -5.027  37.136  1.00  0.00     0.018 A 
HETATM    9  C14 UNK     1      32.692  -5.183  34.504  1.00  0.00     0.038 A 
HETATM   10  C17 UNK     1      33.046  -4.584  36.819  1.00  0.00     0.001 A 
HETATM   11  C18 UNK     1      33.511  -4.663  35.506  1.00  0.00     0.003 A 
ENDROOT
BRANCH   3  12
HETATM   12  O1  UNK     1      27.530  -7.023  35.540  1.00  0.00    -0.335 OA
BRANCH  12  13
HETATM   13  C6  UNK     1      27.524  -8.389  35.879  1.00  0.00     0.278 C 
BRANCH  13  14
HETATM   14  C5  UNK     1      26.754  -8.508  37.169  1.00  0.00     0.244 C 
HETATM   15  O2  UNK     1      25.601  -8.080  37.251  1.00  0.00    -0.271 OA
HETATM   16  N1  UNK     1      27.431  -9.112  38.214  1.00  0.00    -0.350 N 
HETATM   17  C3  UNK     1      26.829  -9.297  39.526  1.00  0.00     0.126 C 
HETATM   18  C4  UNK     1      28.790  -9.642  38.181  1.00  0.00     0.126 C 
HETATM   19  C1  UNK     1      27.761 -10.262  40.240  1.00  0.00     0.021 C 
HETATM   20  C2  UNK     1      29.121  -9.926  39.640  1.00  0.00     0.021 C 
ENDBRANCH  13  14
ENDBRANCH  12  13
ENDBRANCH   3  12
BRANCH   4  21
HETATM   21  C12 UNK     1      28.661  -7.076  32.880  1.00  0.00     0.001 A 
HETATM   22  C15 UNK     1      28.946  -8.353  32.397  1.00  0.00     0.014 A 
HETATM   23  C19 UNK     1      28.280  -8.837  31.271  1.00  0.00     0.001 A 
HETATM   24  C21 UNK     1      27.330  -8.045  30.627  1.00  0.00     0.000 A 
HETATM   25  C20 UNK     1      27.046  -6.768  31.110  1.00  0.00     0.001 A 
HETATM   26  C16 UNK     1      27.710  -6.283  32.236  1.00  0.00     0.014 A 
ENDBRANCH   4  21
TORSDOF 4
ENDMDL
MODEL 7
REMARK VINA RESULT:      -7.8     14.067     16.472
REMARK  4 active torsions:
REMARK  status: ('A' for Active; 'I' for Inactive)
REMARK    1  A    between atoms: C6_11  and  O1_1 
REMARK    2  A    between atoms: C7_12  and  O1_1 
REMARK       I    between atoms: C5_10  and  N1_5 
REMARK    3  A    between atoms: C5_10  and  C6_11 
REMARK    4  A    between atoms: C12_17  and  C8_13 
ROOT
HETATM    1  O3  UNK     1      30.553  -5.919  32.432  1.00  0.00    -0.306 OA
HETATM    2  O4  UNK     1      29.571  -9.800  33.192  1.00  0.00    -0.284 OA
HETATM    3  C7  UNK     1      31.004  -7.967  33.636  1.00  0.00     0.155 A 
HETATM    4  C8  UNK     1      31.276  -6.685  33.333  1.00  0.00     0.123 A 
HETATM    5  C9  UNK     1      29.111  -7.822  31.993  1.00  0.00     0.051 A 
HETATM    6  C10 UNK     1      29.866  -8.635  32.959  1.00  0.00     0.221 A 
HETATM    7  C11 UNK     1      29.496  -6.500  31.781  1.00  0.00     0.090 A 
HETATM    8  C13 UNK     1      28.024  -8.361  31.300  1.00  0.00     0.018 A 
HETATM    9  C14 UNK     1      28.795  -5.708  30.871  1.00  0.00     0.038 A 
HETATM   10  C17 UNK     1      27.326  -7.567  30.391  1.00  0.00     0.001 A 
HETATM   11  C18 UNK     1      27.710  -6.242  30.177  1.00  0.00     0.003 A 
ENDROOT
BRANCH   3  12
HETATM   12  O1  UNK     1      31.724  -8.691  34.562  1.00  0.00    -0.335 OA
BRANCH  12  13
HETATM   13  C6  UNK     1      31.068  -8.775  35.803  1.00  0.00     0.278 C 
BRANCH  13  14
HETATM   14  C5  UNK     1      31.902  -7.993  36.785  1.00  0.00     0.244 C 
HETATM   15  O2  UNK     1      33.064  -8.327  37.024  1.00  0.00    -0.271 OA
HETATM   16  N1  UNK     1      31.272  -6.911  37.374  1.00  0.00    -0.350 N 
HETATM   17  C3  UNK     1      31.938  -6.059  38.347  1.00  0.00     0.126 C 
HETATM   18  C4  UNK     1      29.905  -6.461  37.132  1.00  0.00     0.126 C 
HETATM   19  C1  UNK     1      31.029  -4.847  38.477  1.00  0.00     0.021 C 
HETATM   20  C2  UNK     1      29.646  -5.432  38.224  1.00  0.00     0.021 C 
ENDBRANCH  13  14
ENDBRANCH  12  13
ENDBRANCH   3  12
BRANCH   4  21
HETATM   21  C12 UNK     1      32.382  -5.941  33.960  1.00  0.00     0.001 A 
HETATM   22  C15 UNK     1      32.115  -4.808  34.729  1.00  0.00     0.014 A 
HETATM   23  C19 UNK     1      33.163  -4.105  35.323  1.00  0.00     0.001 A 
HETATM   24  C21 UNK     1      34.479  -4.533  35.147  1.00  0.00     0.000 A 
HETATM   25  C20 UNK     1      34.746  -5.665  34.377  1.00  0.00     0.001 A 
HETATM   26  C16 UNK     1      33.699  -6.369  33.784  1.00  0.00     0.014 A 
ENDBRANCH   4  21
TORSDOF 4
ENDMDL
MODEL 8
REMARK VINA RESULT:      -7.8     13.699     16.413
REMARK  4 active torsions:
REMARK  status: ('A' for Active; 'I' for Inactive)
REMARK    1  A    between atoms: C6_11  and  O1_1 
REMARK    2  A    between atoms: C7_12  and  O1_1 
REMARK       I    between atoms: C5_10  and  N1_5 
REMARK    3  A    between atoms: C5_10  and  C6_11 
REMARK    4  A    between atoms: C12_17  and  C8_13 
ROOT
HETATM    1  O3  UNK     1      28.030  -7.137  35.144  1.00  0.00    -0.306 OA
HETATM    2  O4  UNK     1      31.600  -5.256  35.716  1.00  0.00    -0.284 OA
HETATM    3  C7  UNK     1      30.050  -6.204  34.196  1.00  0.00     0.155 A 
HETATM    4  C8  UNK     1      28.864  -6.828  34.080  1.00  0.00     0.123 A 
HETATM    5  C9  UNK     1      29.647  -6.167  36.673  1.00  0.00     0.051 A 
HETATM    6  C10 UNK     1      30.529  -5.824  35.548  1.00  0.00     0.221 A 
HETATM    7  C11 UNK     1      28.438  -6.807  36.410  1.00  0.00     0.090 A 
HETATM    8  C13 UNK     1      30.010  -5.856  37.986  1.00  0.00     0.018 A 
HETATM    9  C14 UNK     1      27.583  -7.142  37.461  1.00  0.00     0.038 A 
HETATM   10  C17 UNK     1      29.154  -6.192  39.035  1.00  0.00     0.001 A 
HETATM   11  C18 UNK     1      27.942  -6.833  38.773  1.00  0.00     0.003 A 
ENDROOT
BRANCH   3  12
HETATM   12  O1  UNK     1      30.841  -5.882  33.114  1.00  0.00    -0.335 OA
BRANCH  12  13
HETATM   13  C6  UNK     1      31.733  -6.916  32.777  1.00  0.00     0.278 C 
BRANCH  13  14
HETATM   14  C5  UNK     1      31.840  -6.920  31.274  1.00  0.00     0.244 C 
HETATM   15  O2  UNK     1      30.876  -6.595  30.578  1.00  0.00    -0.271 OA
HETATM   16  N1  UNK     1      33.064  -7.312  30.763  1.00  0.00    -0.350 N 
HETATM   17  C3  UNK     1      33.326  -7.375  29.333  1.00  0.00     0.126 C 
HETATM   18  C4  UNK     1      34.243  -7.704  31.530  1.00  0.00     0.126 C 
HETATM   19  C1  UNK     1      34.836  -7.522  29.229  1.00  0.00     0.021 C 
HETATM   20  C2  UNK     1      35.190  -8.294  30.494  1.00  0.00     0.021 C 
ENDBRANCH  13  14
ENDBRANCH  12  13
ENDBRANCH   3  12
BRANCH   4  21
HETATM   21  C12 UNK     1      28.308  -7.235  32.778  1.00  0.00     0.001 A 
HETATM   22  C15 UNK     1      28.569  -8.510  32.275  1.00  0.00     0.014 A 
HETATM   23  C19 UNK     1      28.042  -8.894  31.042  1.00  0.00     0.001 A 
HETATM   24  C21 UNK     1      27.257  -8.004  30.310  1.00  0.00     0.000 A 
HETATM   25  C20 UNK     1      26.997  -6.729  30.812  1.00  0.00     0.001 A 
HETATM   26  C16 UNK     1      27.522  -6.344  32.045  1.00  0.00     0.014 A 
ENDBRANCH   4  21
TORSDOF 4
ENDMDL
MODEL 9
REMARK VINA RESULT:      -7.7     13.735     16.036
REMARK  4 active torsions:
REMARK  status: ('A' for Active; 'I' for Inactive)
REMARK    1  A    between atoms: C6_11  and  O1_1 
REMARK    2  A    between atoms: C7_12  and  O1_1 
REMARK       I    between atoms: C5_10  and  N1_5 
REMARK    3  A    between atoms: C5_10  and  C6_11 
REMARK    4  A    between atoms: C12_17  and  C8_13 
ROOT
HETATM    1  O3  UNK     1      31.017  -6.107  32.647  1.00  0.00    -0.306 OA
HETATM    2  O4  UNK     1      27.630  -6.551  34.869  1.00  0.00    -0.284 OA
HETATM    3  C7  UNK     1      29.965  -6.155  34.824  1.00  0.00     0.155 A 
HETATM    4  C8  UNK     1      31.044  -6.025  34.030  1.00  0.00     0.123 A 
HETATM    5  C9  UNK     1      28.627  -6.522  32.732  1.00  0.00     0.051 A 
HETATM    6  C10 UNK     1      28.646  -6.422  34.199  1.00  0.00     0.221 A 
HETATM    7  C11 UNK     1      29.820  -6.358  32.030  1.00  0.00     0.090 A 
HETATM    8  C13 UNK     1      27.435  -6.777  32.048  1.00  0.00     0.018 A 
HETATM    9  C14 UNK     1      29.827  -6.447  30.637  1.00  0.00     0.038 A 
HETATM   10  C17 UNK     1      27.446  -6.866  30.656  1.00  0.00     0.001 A 
HETATM   11  C18 UNK     1      28.639  -6.701  29.951  1.00  0.00     0.003 A 
ENDROOT
BRANCH   3  12
HETATM   12  O1  UNK     1      30.020  -6.035  36.196  1.00  0.00    -0.335 OA
BRANCH  12  13
HETATM   13  C6  UNK     1      30.111  -7.283  36.838  1.00  0.00     0.278 C 
BRANCH  13  14
HETATM   14  C5  UNK     1      29.414  -7.134  38.167  1.00  0.00     0.244 C 
HETATM   15  O2  UNK     1      29.739  -6.236  38.946  1.00  0.00    -0.271 OA
HETATM   16  N1  UNK     1      28.421  -8.062  38.427  1.00  0.00    -0.350 N 
HETATM   17  C3  UNK     1      27.659  -8.058  39.666  1.00  0.00     0.126 C 
HETATM   18  C4  UNK     1      27.987  -9.144  37.548  1.00  0.00     0.126 C 
HETATM   19  C1  UNK     1      26.495  -8.999  39.401  1.00  0.00     0.021 C 
HETATM   20  C2  UNK     1      27.090 -10.006  38.425  1.00  0.00     0.021 C 
ENDBRANCH  13  14
ENDBRANCH  12  13
ENDBRANCH   3  12
BRANCH   4  21
HETATM   21  C12 UNK     1      32.390  -5.753  34.564  1.00  0.00     0.001 A 
HETATM   22  C15 UNK     1      33.245  -6.810  34.876  1.00  0.00     0.014 A 
HETATM   23  C19 UNK     1      34.519  -6.552  35.381  1.00  0.00     0.001 A 
HETATM   24  C21 UNK     1      34.938  -5.236  35.577  1.00  0.00     0.000 A 
HETATM   25  C20 UNK     1      34.083  -4.179  35.266  1.00  0.00     0.001 A 
HETATM   26  C16 UNK     1      32.810  -4.436  34.760  1.00  0.00     0.014 A 
ENDBRANCH   4  21
TORSDOF 4
ENDMDL
MODEL 10
REMARK VINA RESULT:      -7.7     13.900     16.355
REMARK  4 active torsions:
REMARK  status: ('A' for Active; 'I' for Inactive)
REMARK    1  A    between atoms: C6_11  and  O1_1 
REMARK    2  A    between atoms: C7_12  and  O1_1 
REMARK       I    between atoms: C5_10  and  N1_5 
REMARK    3  A    between atoms: C5_10  and  C6_11 
REMARK    4  A    between atoms: C12_17  and  C8_13 
ROOT
HETATM    1  O3  UNK     1      28.330  -6.791  34.690  1.00  0.00    -0.306 OA
HETATM    2  O4  UNK     1      31.999  -5.183  33.944  1.00  0.00    -0.284 OA
HETATM    3  C7  UNK     1      30.497  -6.112  35.521  1.00  0.00     0.155 A 
HETATM    4  C8  UNK     1      29.267  -6.628  35.698  1.00  0.00     0.123 A 
HETATM    5  C9  UNK     1      29.892  -5.824  33.102  1.00  0.00     0.051 A 
HETATM    6  C10 UNK     1      30.895  -5.662  34.165  1.00  0.00     0.221 A 
HETATM    7  C11 UNK     1      28.656  -6.384  33.422  1.00  0.00     0.090 A 
HETATM    8  C13 UNK     1      30.169  -5.427  31.791  1.00  0.00     0.018 A 
HETATM    9  C14 UNK     1      27.688  -6.549  32.431  1.00  0.00     0.038 A 
HETATM   10  C17 UNK     1      29.199  -5.593  30.803  1.00  0.00     0.001 A 
HETATM   11  C18 UNK     1      27.961  -6.154  31.121  1.00  0.00     0.003 A 
ENDROOT
BRANCH   3  12
HETATM   12  O1  UNK     1      31.417  -5.994  36.541  1.00  0.00    -0.335 OA
BRANCH  12  13
HETATM   13  C6  UNK     1      32.274  -7.107  36.619  1.00  0.00     0.278 C 
BRANCH  13  14
HETATM   14  C5  UNK     1      33.680  -6.566  36.655  1.00  0.00     0.244 C 
HETATM   15  O2  UNK     1      34.033  -5.802  37.556  1.00  0.00    -0.271 OA
HETATM   16  N1  UNK     1      34.505  -6.981  35.626  1.00  0.00    -0.350 N 
HETATM   17  C3  UNK     1      35.889  -6.545  35.514  1.00  0.00     0.126 C 
HETATM   18  C4  UNK     1      34.151  -7.884  34.535  1.00  0.00     0.126 C 
HETATM   19  C1  UNK     1      36.497  -7.468  34.470  1.00  0.00     0.021 C 
HETATM   20  C2  UNK     1      35.315  -7.775  33.559  1.00  0.00     0.021 C 
ENDBRANCH  13  14
ENDBRANCH  12  13
ENDBRANCH   3  12
BRANCH   4  21
HETATM   21  C12 UNK     1      28.790  -7.105  37.008  1.00  0.00     0.001 A 
HETATM   22  C15 UNK     1      28.825  -8.467  37.310  1.00  0.00     0.014 A 
HETATM   23  C19 UNK     1      28.373  -8.917  38.551  1.00  0.00     0.001 A 
HETATM   24  C21 UNK     1      27.884  -8.008  39.488  1.00  0.00     0.000 A 
HETATM   25  C20 UNK     1      27.848  -6.646  39.185  1.00  0.00     0.001 A 
HETATM   26  C16 UNK     1      28.301  -6.195  37.946  1.00  0.00     0.014 A 
ENDBRANCH   4  21
TORSDOF 4
ENDMDL
