MODEL 1
REMARK VINA RESULT:      -9.7      0.000      0.000
REMARK  16 active torsions:
REMARK  status: ('A' for Active; 'I' for Inactive)
REMARK    1  A    between atoms: C10_26  and  O2_2 
REMARK    2  A    between atoms: C6_22  and  O2_2 
REMARK    3  A    between atoms: C2_18  and  O4_4 
REMARK    4  A    between atoms: C3_19  and  O5_5 
REMARK    5  A    between atoms: C13_29  and  O6_6 
REMARK    6  A    between atoms: C9_25  and  O6_6 
REMARK    7  A    between atoms: C4_20  and  O7_7 
REMARK    8  A    between atoms: C5_21  and  O8_8 
REMARK    9  A    between atoms: C7_23  and  O9_9 
REMARK   10  A    between atoms: C8_24  and  O10_10 
REMARK   11  A    between atoms: C19_35  and  O13_13 
REMARK   12  A    between atoms: C21_37  and  O14_14 
REMARK   13  A    between atoms: C24_40  and  O15_15 
REMARK   14  A    between atoms: C25_41  and  O16_16 
REMARK   15  A    between atoms: C1_17  and  C10_26 
REMARK   16  A    between atoms: C14_30  and  C17_33 
ROOT
HETATM    1  O1  UNK     1      18.095   3.828  33.156  1.00  0.00    -0.348 OA
HETATM    2  C1  UNK     1      18.916   4.979  33.362  1.00  0.00     0.180 C 
HETATM    3  C2  UNK     1      18.919   5.851  32.105  1.00  0.00     0.180 C 
HETATM    4  C3  UNK     1      19.369   5.044  30.886  1.00  0.00     0.183 C 
HETATM    5  C4  UNK     1      18.603   3.726  30.782  1.00  0.00     0.205 C 
HETATM    6  C9  UNK     1      18.590   2.983  32.118  1.00  0.00     0.298 C 
ENDROOT
BRANCH   6   7
HETATM    7  O6  UNK     1      17.743   1.843  31.981  1.00  0.00    -0.311 OA
BRANCH   7   8
HETATM    8  C13 UNK     1      18.435   0.669  32.180  1.00  0.00     0.158 A 
HETATM    9  C15 UNK     1      19.044   0.010  30.999  1.00  0.00     0.223 A 
HETATM   10  C16 UNK     1      19.793  -1.230  31.258  1.00  0.00     0.084 A 
HETATM   11  O12 UNK     1      18.930   0.472  29.872  1.00  0.00    -0.284 OA
HETATM   12  C19 UNK     1      20.401  -1.928  30.212  1.00  0.00     0.085 A 
HETATM   13  C18 UNK     1      19.889  -1.699  32.566  1.00  0.00     0.096 A 
HETATM   14  C23 UNK     1      21.107  -3.101  30.485  1.00  0.00     0.074 A 
HETATM   15  C24 UNK     1      21.204  -3.570  31.795  1.00  0.00     0.071 A 
HETATM   16  C20 UNK     1      20.596  -2.870  32.838  1.00  0.00     0.075 A 
HETATM   17  O11 UNK     1      19.314  -1.054  33.630  1.00  0.00    -0.306 OA
HETATM   18  C14 UNK     1      18.597   0.107  33.391  1.00  0.00     0.126 A 
BRANCH  12  19
HETATM   19  O13 UNK     1      20.337  -1.513  28.916  1.00  0.00    -0.360 OA
HETATM   20  H27 UNK     1      20.978  -0.796  28.772  1.00  0.00     0.217 HD
ENDBRANCH  12  19
BRANCH  15  21
HETATM   21  O15 UNK     1      21.894  -4.715  32.058  1.00  0.00    -0.361 OA
HETATM   22  H29 UNK     1      21.659  -5.385  31.394  1.00  0.00     0.217 HD
ENDBRANCH  15  21
BRANCH  18  23
HETATM   23  C17 UNK     1      18.033   0.698  34.619  1.00  0.00     0.037 A 
HETATM   24  C21 UNK     1      16.707   0.467  34.991  1.00  0.00     0.112 A 
HETATM   25  C25 UNK     1      16.198   1.037  36.158  1.00  0.00     0.099 A 
HETATM   26  C27 UNK     1      17.015   1.838  36.956  1.00  0.00     0.039 A 
HETATM   27  C26 UNK     1      18.340   2.069  36.587  1.00  0.00     0.004 A 
HETATM   28  C22 UNK     1      18.849   1.499  35.420  1.00  0.00     0.017 A 
BRANCH  24  29
HETATM   29  O14 UNK     1      15.897  -0.315  34.219  1.00  0.00    -0.357 OA
HETATM   30  H28 UNK     1      15.734  -1.172  34.643  1.00  0.00     0.217 HD
ENDBRANCH  24  29
BRANCH  25  31
HETATM   31  O16 UNK     1      14.906   0.819  36.531  1.00  0.00    -0.358 OA
HETATM   32  H30 UNK     1      14.332   1.015  35.771  1.00  0.00     0.217 HD
ENDBRANCH  25  31
ENDBRANCH  18  23
ENDBRANCH   7   8
ENDBRANCH   6   7
BRANCH   5  33
HETATM   33  O7  UNK     1      19.229   2.888  29.812  1.00  0.00    -0.388 OA
HETATM   34  H18 UNK     1      19.597   3.471  29.126  1.00  0.00     0.210 HD
ENDBRANCH   5  33
BRANCH   4  35
HETATM   35  O5  UNK     1      19.121   5.831  29.721  1.00  0.00    -0.390 OA
HETATM   36  H17 UNK     1      19.810   5.613  29.070  1.00  0.00     0.210 HD
ENDBRANCH   4  35
BRANCH   2  37
HETATM   37  C10 UNK     1      18.361   5.729  34.569  1.00  0.00     0.205 C 
BRANCH  37  38
HETATM   38  O2  UNK     1      17.949   7.025  34.158  1.00  0.00    -0.356 OA
BRANCH  38  39
HETATM   39  C6  UNK     1      16.734   7.411  34.790  1.00  0.00     0.291 C 
HETATM   40  C5  UNK     1      16.688   8.930  34.936  1.00  0.00     0.204 C 
HETATM   41  C7  UNK     1      16.505   9.604  33.575  1.00  0.00     0.183 C 
HETATM   42  C8  UNK     1      15.309   9.012  32.828  1.00  0.00     0.178 C 
HETATM   43  C11 UNK     1      15.422   7.483  32.778  1.00  0.00     0.152 C 
HETATM   44  O3  UNK     1      15.580   6.935  34.091  1.00  0.00    -0.351 OA
HETATM   45  C12 UNK     1      14.180   6.836  32.170  1.00  0.00     0.042 C 
BRANCH  40  46
HETATM   46  O8  UNK     1      15.589   9.252  35.790  1.00  0.00    -0.388 OA
HETATM   47  H19 UNK     1      15.573   8.615  36.523  1.00  0.00     0.210 HD
ENDBRANCH  40  46
BRANCH  41  48
HETATM   48  O9  UNK     1      16.303  11.005  33.750  1.00  0.00    -0.390 OA
HETATM   49  H20 UNK     1      15.407  11.133  34.106  1.00  0.00     0.210 HD
ENDBRANCH  41  48
BRANCH  42  50
HETATM   50  O10 UNK     1      15.299   9.551  31.508  1.00  0.00    -0.390 OA
HETATM   51  H21 UNK     1      14.614  10.240  31.474  1.00  0.00     0.210 HD
ENDBRANCH  42  50
ENDBRANCH  38  39
ENDBRANCH  37  38
ENDBRANCH   2  37
BRANCH   3  52
HETATM   52  O4  UNK     1      19.807   6.950  32.295  1.00  0.00    -0.390 OA
HETATM   53  H16 UNK     1      19.383   7.745  31.929  1.00  0.00     0.210 HD
ENDBRANCH   3  52
TORSDOF 16
ENDMDL
MODEL 2
REMARK VINA RESULT:      -9.6     15.186     19.418
REMARK  16 active torsions:
REMARK  status: ('A' for Active; 'I' for Inactive)
REMARK    1  A    between atoms: C10_26  and  O2_2 
REMARK    2  A    between atoms: C6_22  and  O2_2 
REMARK    3  A    between atoms: C2_18  and  O4_4 
REMARK    4  A    between atoms: C3_19  and  O5_5 
REMARK    5  A    between atoms: C13_29  and  O6_6 
REMARK    6  A    between atoms: C9_25  and  O6_6 
REMARK    7  A    between atoms: C4_20  and  O7_7 
REMARK    8  A    between atoms: C5_21  and  O8_8 
REMARK    9  A    between atoms: C7_23  and  O9_9 
REMARK   10  A    between atoms: C8_24  and  O10_10 
REMARK   11  A    between atoms: C19_35  and  O13_13 
REMARK   12  A    between atoms: C21_37  and  O14_14 
REMARK   13  A    between atoms: C24_40  and  O15_15 
REMARK   14  A    between atoms: C25_41  and  O16_16 
REMARK   15  A    between atoms: C1_17  and  C10_26 
REMARK   16  A    between atoms: C14_30  and  C17_33 
ROOT
HETATM    1  O1  UNK     1      33.323  -9.413  32.536  1.00  0.00    -0.348 OA
HETATM    2  C1  UNK     1      33.684  -8.520  31.481  1.00  0.00     0.180 C 
HETATM    3  C2  UNK     1      35.148  -8.100  31.629  1.00  0.00     0.180 C 
HETATM    4  C3  UNK     1      35.399  -7.484  33.006  1.00  0.00     0.183 C 
HETATM    5  C4  UNK     1      34.843  -8.372  34.118  1.00  0.00     0.205 C 
HETATM    6  C9  UNK     1      33.407  -8.803  33.822  1.00  0.00     0.298 C 
ENDROOT
BRANCH   6   7
HETATM    7  O6  UNK     1      33.011  -9.736  34.825  1.00  0.00    -0.311 OA
BRANCH   7   8
HETATM    8  C13 UNK     1      31.705  -9.536  35.218  1.00  0.00     0.158 A 
HETATM    9  C15 UNK     1      31.410  -8.376  36.094  1.00  0.00     0.223 A 
HETATM   10  C16 UNK     1      30.001  -8.186  36.472  1.00  0.00     0.084 A 
HETATM   11  O12 UNK     1      32.291  -7.619  36.479  1.00  0.00    -0.284 OA
HETATM   12  C19 UNK     1      29.621  -7.125  37.296  1.00  0.00     0.085 A 
HETATM   13  C18 UNK     1      29.048  -9.082  35.993  1.00  0.00     0.096 A 
HETATM   14  C23 UNK     1      28.277  -6.966  37.639  1.00  0.00     0.074 A 
HETATM   15  C24 UNK     1      27.322  -7.863  37.160  1.00  0.00     0.071 A 
HETATM   16  C20 UNK     1      27.706  -8.921  36.336  1.00  0.00     0.075 A 
HETATM   17  O11 UNK     1      29.364 -10.140  35.180  1.00  0.00    -0.306 OA
HETATM   18  C14 UNK     1      30.691 -10.331  34.831  1.00  0.00     0.126 A 
BRANCH  12  19
HETATM   19  O13 UNK     1      30.512  -6.222  37.791  1.00  0.00    -0.360 OA
HETATM   20  H27 UNK     1      31.018  -5.829  37.060  1.00  0.00     0.217 HD
ENDBRANCH  12  19
BRANCH  15  21
HETATM   21  O15 UNK     1      26.011  -7.704  37.496  1.00  0.00    -0.361 OA
HETATM   22  H29 UNK     1      25.911  -7.849  38.452  1.00  0.00     0.217 HD
ENDBRANCH  15  21
BRANCH  18  23
HETATM   23  C17 UNK     1      30.892 -11.501  33.955  1.00  0.00     0.037 A 
HETATM   24  C21 UNK     1      31.560 -12.639  34.410  1.00  0.00     0.112 A 
HETATM   25  C25 UNK     1      31.735 -13.733  33.562  1.00  0.00     0.099 A 
HETATM   26  C27 UNK     1      31.243 -13.689  32.258  1.00  0.00     0.039 A 
HETATM   27  C26 UNK     1      30.576 -12.553  31.801  1.00  0.00     0.004 A 
HETATM   28  C22 UNK     1      30.400 -11.459  32.649  1.00  0.00     0.017 A 
BRANCH  24  29
HETATM   29  O14 UNK     1      32.045 -12.695  35.685  1.00  0.00    -0.357 OA
HETATM   30  H28 UNK     1      32.996 -12.885  35.687  1.00  0.00     0.217 HD
ENDBRANCH  24  29
BRANCH  25  31
HETATM   31  O16 UNK     1      32.384 -14.850  33.994  1.00  0.00    -0.358 OA
HETATM   32  H30 UNK     1      31.767 -15.600  33.942  1.00  0.00     0.217 HD
ENDBRANCH  25  31
ENDBRANCH  18  23
ENDBRANCH   7   8
ENDBRANCH   6   7
BRANCH   5  33
HETATM   33  O7  UNK     1      34.848  -7.649  35.349  1.00  0.00    -0.388 OA
HETATM   34  H18 UNK     1      34.930  -8.302  36.064  1.00  0.00     0.210 HD
ENDBRANCH   5  33
BRANCH   4  35
HETATM   35  O5  UNK     1      36.809  -7.338  33.173  1.00  0.00    -0.390 OA
HETATM   36  H17 UNK     1      36.965  -7.025  34.080  1.00  0.00     0.210 HD
ENDBRANCH   4  35
BRANCH   2  37
HETATM   37  C10 UNK     1      33.433  -9.242  30.161  1.00  0.00     0.205 C 
BRANCH  37  38
HETATM   38  O2  UNK     1      32.059  -9.594  30.081  1.00  0.00    -0.356 OA
BRANCH  38  39
HETATM   39  C6  UNK     1      31.495  -9.210  28.832  1.00  0.00     0.291 C 
HETATM   40  C5  UNK     1      30.629 -10.343  28.286  1.00  0.00     0.204 C 
HETATM   41  C7  UNK     1      29.354 -10.504  29.115  1.00  0.00     0.183 C 
HETATM   42  C8  UNK     1      28.620  -9.170  29.255  1.00  0.00     0.178 C 
HETATM   43  C11 UNK     1      29.583  -8.088  29.761  1.00  0.00     0.152 C 
HETATM   44  O3  UNK     1      30.740  -7.997  28.923  1.00  0.00    -0.351 OA
HETATM   45  C12 UNK     1      28.934  -6.707  29.778  1.00  0.00     0.042 C 
BRANCH  40  46
HETATM   46  O8  UNK     1      30.293 -10.022  26.935  1.00  0.00    -0.388 OA
HETATM   47  H19 UNK     1      30.796  -9.233  26.673  1.00  0.00     0.210 HD
ENDBRANCH  40  46
BRANCH  41  48
HETATM   48  O9  UNK     1      28.489 -11.454  28.496  1.00  0.00    -0.390 OA
HETATM   49  H20 UNK     1      28.437 -12.232  29.077  1.00  0.00     0.210 HD
ENDBRANCH  41  48
BRANCH  42  50
HETATM   50  O10 UNK     1      27.547  -9.348  30.177  1.00  0.00    -0.390 OA
HETATM   51  H21 UNK     1      26.842  -9.837  29.720  1.00  0.00     0.210 HD
ENDBRANCH  42  50
ENDBRANCH  38  39
ENDBRANCH  37  38
ENDBRANCH   2  37
BRANCH   3  52
HETATM   52  O4  UNK     1      35.469  -7.145  30.620  1.00  0.00    -0.390 OA
HETATM   53  H16 UNK     1      36.156  -7.531  30.050  1.00  0.00     0.210 HD
ENDBRANCH   3  52
TORSDOF 16
ENDMDL
MODEL 3
REMARK VINA RESULT:      -9.5     14.379     18.964
REMARK  16 active torsions:
REMARK  status: ('A' for Active; 'I' for Inactive)
REMARK    1  A    between atoms: C10_26  and  O2_2 
REMARK    2  A    between atoms: C6_22  and  O2_2 
REMARK    3  A    between atoms: C2_18  and  O4_4 
REMARK    4  A    between atoms: C3_19  and  O5_5 
REMARK    5  A    between atoms: C13_29  and  O6_6 
REMARK    6  A    between atoms: C9_25  and  O6_6 
REMARK    7  A    between atoms: C4_20  and  O7_7 
REMARK    8  A    between atoms: C5_21  and  O8_8 
REMARK    9  A    between atoms: C7_23  and  O9_9 
REMARK   10  A    between atoms: C8_24  and  O10_10 
REMARK   11  A    between atoms: C19_35  and  O13_13 
REMARK   12  A    between atoms: C21_37  and  O14_14 
REMARK   13  A    between atoms: C24_40  and  O15_15 
REMARK   14  A    between atoms: C25_41  and  O16_16 
REMARK   15  A    between atoms: C1_17  and  C10_26 
REMARK   16  A    between atoms: C14_30  and  C17_33 
ROOT
HETATM    1  O1  UNK     1      33.555  -8.388  33.828  1.00  0.00    -0.348 OA
HETATM    2  C1  UNK     1      34.037  -7.722  32.659  1.00  0.00     0.180 C 
HETATM    3  C2  UNK     1      35.558  -7.571  32.735  1.00  0.00     0.180 C 
HETATM    4  C3  UNK     1      35.968  -6.841  34.015  1.00  0.00     0.183 C 
HETATM    5  C4  UNK     1      35.296  -7.456  35.241  1.00  0.00     0.205 C 
HETATM    6  C9  UNK     1      33.795  -7.643  35.020  1.00  0.00     0.298 C 
ENDROOT
BRANCH   6   7
HETATM    7  O6  UNK     1      33.268  -8.347  36.143  1.00  0.00    -0.311 OA
BRANCH   7   8
HETATM    8  C13 UNK     1      32.029  -7.867  36.508  1.00  0.00     0.158 A 
HETATM    9  C15 UNK     1      31.975  -6.658  37.366  1.00  0.00     0.223 A 
HETATM   10  C16 UNK     1      30.634  -6.165  37.714  1.00  0.00     0.084 A 
HETATM   11  O12 UNK     1      32.991  -6.102  37.761  1.00  0.00    -0.284 OA
HETATM   12  C19 UNK     1      30.476  -5.035  38.520  1.00  0.00     0.085 A 
HETATM   13  C18 UNK     1      29.519  -6.842  37.226  1.00  0.00     0.096 A 
HETATM   14  C23 UNK     1      29.192  -4.588  38.835  1.00  0.00     0.074 A 
HETATM   15  C24 UNK     1      28.074  -5.266  38.346  1.00  0.00     0.071 A 
HETATM   16  C20 UNK     1      28.236  -6.393  37.540  1.00  0.00     0.075 A 
HETATM   17  O11 UNK     1      29.615  -7.954  36.430  1.00  0.00    -0.306 OA
HETATM   18  C14 UNK     1      30.875  -8.431  36.109  1.00  0.00     0.126 A 
BRANCH  12  19
HETATM   19  O13 UNK     1      31.532  -4.338  39.024  1.00  0.00    -0.360 OA
HETATM   20  H27 UNK     1      32.105  -4.936  39.531  1.00  0.00     0.217 HD
ENDBRANCH  12  19
BRANCH  15  21
HETATM   21  O15 UNK     1      26.823  -4.825  38.654  1.00  0.00    -0.361 OA
HETATM   22  H29 UNK     1      26.246  -5.593  38.802  1.00  0.00     0.217 HD
ENDBRANCH  15  21
BRANCH  18  23
HETATM   23  C17 UNK     1      30.835  -9.628  35.249  1.00  0.00     0.037 A 
HETATM   24  C21 UNK     1      30.085  -9.649  34.072  1.00  0.00     0.112 A 
HETATM   25  C25 UNK     1      30.064 -10.795  33.275  1.00  0.00     0.099 A 
HETATM   26  C27 UNK     1      30.794 -11.921  33.656  1.00  0.00     0.039 A 
HETATM   27  C26 UNK     1      31.544 -11.902  34.832  1.00  0.00     0.004 A 
HETATM   28  C22 UNK     1      31.564 -10.757  35.628  1.00  0.00     0.017 A 
BRANCH  24  29
HETATM   29  O14 UNK     1      29.368  -8.553  33.688  1.00  0.00    -0.357 OA
HETATM   30  H28 UNK     1      28.441  -8.785  33.520  1.00  0.00     0.217 HD
ENDBRANCH  24  29
BRANCH  25  31
HETATM   31  O16 UNK     1      29.337 -10.827  32.124  1.00  0.00    -0.358 OA
HETATM   32  H30 UNK     1      29.579 -10.051  31.590  1.00  0.00     0.217 HD
ENDBRANCH  25  31
ENDBRANCH  18  23
ENDBRANCH   7   8
ENDBRANCH   6   7
BRANCH   5  33
HETATM   33  O7  UNK     1      35.479  -6.595  36.364  1.00  0.00    -0.388 OA
HETATM   34  H18 UNK     1      36.278  -6.895  36.828  1.00  0.00     0.210 HD
ENDBRANCH   5  33
BRANCH   4  35
HETATM   35  O5  UNK     1      37.386  -6.944  34.146  1.00  0.00    -0.390 OA
HETATM   36  H17 UNK     1      37.724  -6.060  34.368  1.00  0.00     0.210 HD
ENDBRANCH   4  35
BRANCH   2  37
HETATM   37  C10 UNK     1      33.611  -8.549  31.450  1.00  0.00     0.205 C 
BRANCH  37  38
HETATM   38  O2  UNK     1      32.228  -8.332  31.207  1.00  0.00    -0.356 OA
BRANCH  38  39
HETATM   39  C6  UNK     1      31.993  -7.912  29.868  1.00  0.00     0.291 C 
HETATM   40  C5  UNK     1      31.987  -9.125  28.941  1.00  0.00     0.204 C 
HETATM   41  C7  UNK     1      30.742  -9.983  29.171  1.00  0.00     0.183 C 
HETATM   42  C8  UNK     1      29.472  -9.134  29.098  1.00  0.00     0.178 C 
HETATM   43  C11 UNK     1      29.595  -7.918  30.024  1.00  0.00     0.152 C 
HETATM   44  O3  UNK     1      30.779  -7.167  29.733  1.00  0.00    -0.351 OA
HETATM   45  C12 UNK     1      28.413  -6.963  29.876  1.00  0.00     0.042 C 
BRANCH  40  46
HETATM   46  O8  UNK     1      32.004  -8.645  27.595  1.00  0.00    -0.388 OA
HETATM   47  H19 UNK     1      32.189  -7.691  27.612  1.00  0.00     0.210 HD
ENDBRANCH  40  46
BRANCH  41  48
HETATM   48  O9  UNK     1      30.675 -11.016  28.191  1.00  0.00    -0.390 OA
HETATM   49  H20 UNK     1      29.756 -11.333  28.157  1.00  0.00     0.210 HD
ENDBRANCH  41  48
BRANCH  42  50
HETATM   50  O10 UNK     1      28.371  -9.949  29.495  1.00  0.00    -0.390 OA
HETATM   51  H21 UNK     1      28.392 -10.759  28.957  1.00  0.00     0.210 HD
ENDBRANCH  42  50
ENDBRANCH  38  39
ENDBRANCH  37  38
ENDBRANCH   2  37
BRANCH   3  52
HETATM   52  O4  UNK     1      36.016  -6.833  31.604  1.00  0.00    -0.390 OA
HETATM   53  H16 UNK     1      35.996  -7.424  30.832  1.00  0.00     0.210 HD
ENDBRANCH   3  52
TORSDOF 16
ENDMDL
MODEL 4
REMARK VINA RESULT:      -9.4     22.631     25.761
REMARK  16 active torsions:
REMARK  status: ('A' for Active; 'I' for Inactive)
REMARK    1  A    between atoms: C10_26  and  O2_2 
REMARK    2  A    between atoms: C6_22  and  O2_2 
REMARK    3  A    between atoms: C2_18  and  O4_4 
REMARK    4  A    between atoms: C3_19  and  O5_5 
REMARK    5  A    between atoms: C13_29  and  O6_6 
REMARK    6  A    between atoms: C9_25  and  O6_6 
REMARK    7  A    between atoms: C4_20  and  O7_7 
REMARK    8  A    between atoms: C5_21  and  O8_8 
REMARK    9  A    between atoms: C7_23  and  O9_9 
REMARK   10  A    between atoms: C8_24  and  O10_10 
REMARK   11  A    between atoms: C19_35  and  O13_13 
REMARK   12  A    between atoms: C21_37  and  O14_14 
REMARK   13  A    between atoms: C24_40  and  O15_15 
REMARK   14  A    between atoms: C25_41  and  O16_16 
REMARK   15  A    between atoms: C1_17  and  C10_26 
REMARK   16  A    between atoms: C14_30  and  C17_33 
ROOT
HETATM    1  O1  UNK     1      14.259   7.557  10.552  1.00  0.00    -0.348 OA
HETATM    2  C1  UNK     1      13.554   6.568   9.801  1.00  0.00     0.180 C 
HETATM    3  C2  UNK     1      14.296   5.231   9.871  1.00  0.00     0.180 C 
HETATM    4  C3  UNK     1      15.740   5.386   9.393  1.00  0.00     0.183 C 
HETATM    5  C4  UNK     1      16.425   6.567  10.079  1.00  0.00     0.205 C 
HETATM    6  C9  UNK     1      15.557   7.823  10.024  1.00  0.00     0.298 C 
ENDROOT
BRANCH   6   7
HETATM    7  O6  UNK     1      16.195   8.835  10.802  1.00  0.00    -0.311 OA
BRANCH   7   8
HETATM    8  C13 UNK     1      16.211  10.046  10.145  1.00  0.00     0.158 A 
HETATM    9  C15 UNK     1      17.342  10.326   9.226  1.00  0.00     0.223 A 
HETATM   10  C16 UNK     1      17.309  11.620   8.528  1.00  0.00     0.084 A 
HETATM   11  O12 UNK     1      18.249   9.523   9.058  1.00  0.00    -0.284 OA
HETATM   12  C19 UNK     1      18.329  11.980   7.644  1.00  0.00     0.085 A 
HETATM   13  C18 UNK     1      16.243  12.485   8.761  1.00  0.00     0.096 A 
HETATM   14  C23 UNK     1      18.274  13.214   6.994  1.00  0.00     0.074 A 
HETATM   15  C24 UNK     1      17.206  14.081   7.226  1.00  0.00     0.071 A 
HETATM   16  C20 UNK     1      16.189  13.718   8.110  1.00  0.00     0.075 A 
HETATM   17  O11 UNK     1      15.215  12.184   9.616  1.00  0.00    -0.306 OA
HETATM   18  C14 UNK     1      15.246  10.972  10.286  1.00  0.00     0.126 A 
BRANCH  12  19
HETATM   19  O13 UNK     1      19.394  11.172   7.381  1.00  0.00    -0.360 OA
HETATM   20  H27 UNK     1      19.833  10.930   8.214  1.00  0.00     0.217 HD
ENDBRANCH  12  19
BRANCH  15  21
HETATM   21  O15 UNK     1      17.155  15.283   6.589  1.00  0.00    -0.361 OA
HETATM   22  H29 UNK     1      17.931  15.366   6.010  1.00  0.00     0.217 HD
ENDBRANCH  15  21
BRANCH  18  23
HETATM   23  C17 UNK     1      14.083  10.774  11.171  1.00  0.00     0.037 A 
HETATM   24  C21 UNK     1      12.873  10.283  10.678  1.00  0.00     0.112 A 
HETATM   25  C25 UNK     1      11.788  10.104  11.536  1.00  0.00     0.099 A 
HETATM   26  C27 UNK     1      11.912  10.417  12.890  1.00  0.00     0.039 A 
HETATM   27  C26 UNK     1      13.120  10.909  13.385  1.00  0.00     0.004 A 
HETATM   28  C22 UNK     1      14.204  11.087  12.527  1.00  0.00     0.017 A 
BRANCH  24  29
HETATM   29  O14 UNK     1      12.739   9.971   9.356  1.00  0.00    -0.357 OA
HETATM   30  H28 UNK     1      12.385  10.723   8.855  1.00  0.00     0.217 HD
ENDBRANCH  24  29
BRANCH  25  31
HETATM   31  O16 UNK     1      10.603   9.625  11.067  1.00  0.00    -0.358 OA
HETATM   32  H30 UNK     1       9.932   9.735  11.764  1.00  0.00     0.217 HD
ENDBRANCH  25  31
ENDBRANCH  18  23
ENDBRANCH   7   8
ENDBRANCH   6   7
BRANCH   5  33
HETATM   33  O7  UNK     1      17.659   6.848   9.418  1.00  0.00    -0.388 OA
HETATM   34  H18 UNK     1      17.846   7.792   9.552  1.00  0.00     0.210 HD
ENDBRANCH   5  33
BRANCH   4  35
HETATM   35  O5  UNK     1      16.439   4.181   9.708  1.00  0.00    -0.390 OA
HETATM   36  H17 UNK     1      17.093   4.395  10.394  1.00  0.00     0.210 HD
ENDBRANCH   4  35
BRANCH   2  37
HETATM   37  C10 UNK     1      12.147   6.466  10.381  1.00  0.00     0.205 C 
BRANCH  37  38
HETATM   38  O2  UNK     1      11.202   6.700   9.346  1.00  0.00    -0.356 OA
BRANCH  38  39
HETATM   39  C6  UNK     1      10.544   5.499   8.959  1.00  0.00     0.291 C 
HETATM   40  C5  UNK     1       9.196   5.399   9.668  1.00  0.00     0.204 C 
HETATM   41  C7  UNK     1       8.210   6.430   9.117  1.00  0.00     0.183 C 
HETATM   42  C8  UNK     1       8.122   6.343   7.592  1.00  0.00     0.178 C 
HETATM   43  C11 UNK     1       9.526   6.404   6.978  1.00  0.00     0.152 C 
HETATM   44  O3  UNK     1      10.378   5.400   7.541  1.00  0.00    -0.351 OA
HETATM   45  C12 UNK     1       9.502   6.174   5.469  1.00  0.00     0.042 C 
BRANCH  40  46
HETATM   46  O8  UNK     1       8.689   4.080   9.454  1.00  0.00    -0.388 OA
HETATM   47  H19 UNK     1       7.877   4.145   8.925  1.00  0.00     0.210 HD
ENDBRANCH  40  46
BRANCH  41  48
HETATM   48  O9  UNK     1       6.916   6.213   9.676  1.00  0.00    -0.390 OA
HETATM   49  H20 UNK     1       6.268   6.271   8.954  1.00  0.00     0.210 HD
ENDBRANCH  41  48
BRANCH  42  50
HETATM   50  O10 UNK     1       7.332   7.437   7.131  1.00  0.00    -0.390 OA
HETATM   51  H21 UNK     1       7.227   8.059   7.871  1.00  0.00     0.210 HD
ENDBRANCH  42  50
ENDBRANCH  38  39
ENDBRANCH  37  38
ENDBRANCH   2  37
BRANCH   3  52
HETATM   52  O4  UNK     1      13.627   4.277   9.050  1.00  0.00    -0.390 OA
HETATM   53  H16 UNK     1      12.875   4.723   8.624  1.00  0.00     0.210 HD
ENDBRANCH   3  52
TORSDOF 16
ENDMDL
MODEL 5
REMARK VINA RESULT:      -9.3     15.168     19.049
REMARK  16 active torsions:
REMARK  status: ('A' for Active; 'I' for Inactive)
REMARK    1  A    between atoms: C10_26  and  O2_2 
REMARK    2  A    between atoms: C6_22  and  O2_2 
REMARK    3  A    between atoms: C2_18  and  O4_4 
REMARK    4  A    between atoms: C3_19  and  O5_5 
REMARK    5  A    between atoms: C13_29  and  O6_6 
REMARK    6  A    between atoms: C9_25  and  O6_6 
REMARK    7  A    between atoms: C4_20  and  O7_7 
REMARK    8  A    between atoms: C5_21  and  O8_8 
REMARK    9  A    between atoms: C7_23  and  O9_9 
REMARK   10  A    between atoms: C8_24  and  O10_10 
REMARK   11  A    between atoms: C19_35  and  O13_13 
REMARK   12  A    between atoms: C21_37  and  O14_14 
REMARK   13  A    between atoms: C24_40  and  O15_15 
REMARK   14  A    between atoms: C25_41  and  O16_16 
REMARK   15  A    between atoms: C1_17  and  C10_26 
REMARK   16  A    between atoms: C14_30  and  C17_33 
ROOT
HETATM    1  O1  UNK     1      31.145  -8.222  30.131  1.00  0.00    -0.348 OA
HETATM    2  C1  UNK     1      29.899  -7.524  30.149  1.00  0.00     0.180 C 
HETATM    3  C2  UNK     1      28.746  -8.509  29.946  1.00  0.00     0.180 C 
HETATM    4  C3  UNK     1      28.933  -9.304  28.653  1.00  0.00     0.183 C 
HETATM    5  C4  UNK     1      30.339  -9.896  28.567  1.00  0.00     0.205 C 
HETATM    6  C9  UNK     1      31.406  -8.845  28.875  1.00  0.00     0.298 C 
ENDROOT
BRANCH   6   7
HETATM    7  O6  UNK     1      32.672  -9.500  28.915  1.00  0.00    -0.311 OA
BRANCH   7   8
HETATM    8  C13 UNK     1      33.319  -9.282  30.112  1.00  0.00     0.158 A 
HETATM    9  C15 UNK     1      34.218  -8.107  30.215  1.00  0.00     0.223 A 
HETATM   10  C16 UNK     1      34.871  -7.898  31.517  1.00  0.00     0.084 A 
HETATM   11  O12 UNK     1      34.405  -7.353  29.271  1.00  0.00    -0.284 OA
HETATM   12  C19 UNK     1      35.739  -6.822  31.715  1.00  0.00     0.085 A 
HETATM   13  C18 UNK     1      34.611  -8.792  32.553  1.00  0.00     0.096 A 
HETATM   14  C23 UNK     1      36.345  -6.646  32.960  1.00  0.00     0.074 A 
HETATM   15  C24 UNK     1      36.084  -7.541  33.999  1.00  0.00     0.071 A 
HETATM   16  C20 UNK     1      35.216  -8.614  33.797  1.00  0.00     0.075 A 
HETATM   17  O11 UNK     1      33.767  -9.864  32.416  1.00  0.00    -0.306 OA
HETATM   18  C14 UNK     1      33.158 -10.073  31.188  1.00  0.00     0.126 A 
BRANCH  12  19
HETATM   19  O13 UNK     1      36.029  -5.921  30.736  1.00  0.00    -0.360 OA
HETATM   20  H27 UNK     1      36.819  -5.412  30.985  1.00  0.00     0.217 HD
ENDBRANCH  12  19
BRANCH  15  21
HETATM   21  O15 UNK     1      36.676  -7.365  35.213  1.00  0.00    -0.361 OA
HETATM   22  H29 UNK     1      37.402  -8.005  35.306  1.00  0.00     0.217 HD
ENDBRANCH  15  21
BRANCH  18  23
HETATM   23  C17 UNK     1      32.279 -11.256  31.178  1.00  0.00     0.037 A 
HETATM   24  C21 UNK     1      32.584 -12.378  30.404  1.00  0.00     0.112 A 
HETATM   25  C25 UNK     1      31.736 -13.485  30.412  1.00  0.00     0.099 A 
HETATM   26  C27 UNK     1      30.581 -13.472  31.194  1.00  0.00     0.039 A 
HETATM   27  C26 UNK     1      30.274 -12.353  31.967  1.00  0.00     0.004 A 
HETATM   28  C22 UNK     1      31.122 -11.246  31.959  1.00  0.00     0.017 A 
BRANCH  24  29
HETATM   29  O14 UNK     1      33.712 -12.404  29.636  1.00  0.00    -0.357 OA
HETATM   30  H28 UNK     1      34.296 -13.131  29.899  1.00  0.00     0.217 HD
ENDBRANCH  24  29
BRANCH  25  31
HETATM   31  O16 UNK     1      32.023 -14.586  29.663  1.00  0.00    -0.358 OA
HETATM   32  H30 UNK     1      31.188 -14.945  29.317  1.00  0.00     0.217 HD
ENDBRANCH  25  31
ENDBRANCH  18  23
ENDBRANCH   7   8
ENDBRANCH   6   7
BRANCH   5  33
HETATM   33  O7  UNK     1      30.566 -10.389  27.247  1.00  0.00    -0.388 OA
HETATM   34  H18 UNK     1      29.874 -10.012  26.678  1.00  0.00     0.210 HD
ENDBRANCH   5  33
BRANCH   4  35
HETATM   35  O5  UNK     1      27.972 -10.360  28.642  1.00  0.00    -0.390 OA
HETATM   36  H17 UNK     1      27.096  -9.959  28.772  1.00  0.00     0.210 HD
ENDBRANCH   4  35
BRANCH   2  37
HETATM   37  C10 UNK     1      29.796  -6.802  31.489  1.00  0.00     0.205 C 
BRANCH  37  38
HETATM   38  O2  UNK     1      29.975  -7.744  32.537  1.00  0.00    -0.356 OA
BRANCH  38  39
HETATM   39  C6  UNK     1      30.551  -7.139  33.689  1.00  0.00     0.291 C 
HETATM   40  C5  UNK     1      29.484  -6.355  34.449  1.00  0.00     0.204 C 
HETATM   41  C7  UNK     1      28.484  -7.300  35.117  1.00  0.00     0.183 C 
HETATM   42  C8  UNK     1      29.206  -8.351  35.962  1.00  0.00     0.178 C 
HETATM   43  C11 UNK     1      30.288  -9.047  35.127  1.00  0.00     0.152 C 
HETATM   44  O3  UNK     1      31.185  -8.093  34.548  1.00  0.00    -0.351 OA
HETATM   45  C12 UNK     1      31.132 -10.002  35.966  1.00  0.00     0.042 C 
BRANCH  40  46
HETATM   46  O8  UNK     1      30.146  -5.567  35.440  1.00  0.00    -0.388 OA
HETATM   47  H19 UNK     1      30.230  -6.098  36.249  1.00  0.00     0.210 HD
ENDBRANCH  40  46
BRANCH  41  48
HETATM   48  O9  UNK     1      27.596  -6.557  35.950  1.00  0.00    -0.390 OA
HETATM   49  H20 UNK     1      26.846  -7.134  36.173  1.00  0.00     0.210 HD
ENDBRANCH  41  48
BRANCH  42  50
HETATM   50  O10 UNK     1      28.239  -9.299  36.409  1.00  0.00    -0.390 OA
HETATM   51  H21 UNK     1      27.393  -8.833  36.515  1.00  0.00     0.210 HD
ENDBRANCH  42  50
ENDBRANCH  38  39
ENDBRANCH  37  38
ENDBRANCH   2  37
BRANCH   3  52
HETATM   52  O4  UNK     1      27.517  -7.790  29.882  1.00  0.00    -0.390 OA
HETATM   53  H16 UNK     1      27.416  -7.447  28.978  1.00  0.00     0.210 HD
ENDBRANCH   3  52
TORSDOF 16
ENDMDL
MODEL 6
REMARK VINA RESULT:      -9.2     13.960     17.878
REMARK  16 active torsions:
REMARK  status: ('A' for Active; 'I' for Inactive)
REMARK    1  A    between atoms: C10_26  and  O2_2 
REMARK    2  A    between atoms: C6_22  and  O2_2 
REMARK    3  A    between atoms: C2_18  and  O4_4 
REMARK    4  A    between atoms: C3_19  and  O5_5 
REMARK    5  A    between atoms: C13_29  and  O6_6 
REMARK    6  A    between atoms: C9_25  and  O6_6 
REMARK    7  A    between atoms: C4_20  and  O7_7 
REMARK    8  A    between atoms: C5_21  and  O8_8 
REMARK    9  A    between atoms: C7_23  and  O9_9 
REMARK   10  A    between atoms: C8_24  and  O10_10 
REMARK   11  A    between atoms: C19_35  and  O13_13 
REMARK   12  A    between atoms: C21_37  and  O14_14 
REMARK   13  A    between atoms: C24_40  and  O15_15 
REMARK   14  A    between atoms: C25_41  and  O16_16 
REMARK   15  A    between atoms: C1_17  and  C10_26 
REMARK   16  A    between atoms: C14_30  and  C17_33 
ROOT
HETATM    1  O1  UNK     1      32.384  -6.636  34.591  1.00  0.00    -0.348 OA
HETATM    2  C1  UNK     1      32.277  -6.236  35.958  1.00  0.00     0.180 C 
HETATM    3  C2  UNK     1      33.602  -5.633  36.431  1.00  0.00     0.180 C 
HETATM    4  C3  UNK     1      34.753  -6.615  36.215  1.00  0.00     0.183 C 
HETATM    5  C4  UNK     1      34.744  -7.174  34.793  1.00  0.00     0.205 C 
HETATM    6  C9  UNK     1      33.352  -7.666  34.397  1.00  0.00     0.298 C 
ENDROOT
BRANCH   6   7
HETATM    7  O6  UNK     1      33.391  -8.037  33.020  1.00  0.00    -0.311 OA
BRANCH   7   8
HETATM    8  C13 UNK     1      32.713  -9.214  32.792  1.00  0.00     0.158 A 
HETATM    9  C15 UNK     1      33.450 -10.489  32.968  1.00  0.00     0.223 A 
HETATM   10  C16 UNK     1      32.683 -11.723  32.737  1.00  0.00     0.084 A 
HETATM   11  O12 UNK     1      34.630 -10.512  33.289  1.00  0.00    -0.284 OA
HETATM   12  C19 UNK     1      33.288 -12.975  32.874  1.00  0.00     0.085 A 
HETATM   13  C18 UNK     1      31.341 -11.625  32.379  1.00  0.00     0.096 A 
HETATM   14  C23 UNK     1      32.537 -14.130  32.649  1.00  0.00     0.074 A 
HETATM   15  C24 UNK     1      31.192 -14.033  32.291  1.00  0.00     0.071 A 
HETATM   16  C20 UNK     1      30.592 -12.781  32.156  1.00  0.00     0.075 A 
HETATM   17  O11 UNK     1      30.696 -10.424  32.232  1.00  0.00    -0.306 OA
HETATM   18  C14 UNK     1      31.416  -9.258  32.436  1.00  0.00     0.126 A 
BRANCH  12  19
HETATM   19  O13 UNK     1      34.596 -13.126  33.221  1.00  0.00    -0.360 OA
HETATM   20  H27 UNK     1      34.711 -12.908  34.161  1.00  0.00     0.217 HD
ENDBRANCH  12  19
BRANCH  15  21
HETATM   21  O15 UNK     1      30.463 -15.163  32.075  1.00  0.00    -0.361 OA
HETATM   22  H29 UNK     1      29.629 -14.921  31.637  1.00  0.00     0.217 HD
ENDBRANCH  15  21
BRANCH  18  23
HETATM   23  C17 UNK     1      30.605  -8.042  32.247  1.00  0.00     0.037 A 
HETATM   24  C21 UNK     1      29.790  -7.549  33.268  1.00  0.00     0.112 A 
HETATM   25  C25 UNK     1      29.033  -6.395  33.063  1.00  0.00     0.099 A 
HETATM   26  C27 UNK     1      29.090  -5.732  31.838  1.00  0.00     0.039 A 
HETATM   27  C26 UNK     1      29.904  -6.223  30.816  1.00  0.00     0.004 A 
HETATM   28  C22 UNK     1      30.661  -7.376  31.021  1.00  0.00     0.017 A 
BRANCH  24  29
HETATM   29  O14 UNK     1      29.726  -8.188  34.472  1.00  0.00    -0.357 OA
HETATM   30  H28 UNK     1      30.548  -8.071  34.973  1.00  0.00     0.217 HD
ENDBRANCH  24  29
BRANCH  25  31
HETATM   31  O16 UNK     1      28.235  -5.904  34.052  1.00  0.00    -0.358 OA
HETATM   32  H30 UNK     1      27.520  -6.544  34.212  1.00  0.00     0.217 HD
ENDBRANCH  25  31
ENDBRANCH  18  23
ENDBRANCH   7   8
ENDBRANCH   6   7
BRANCH   5  33
HETATM   33  O7  UNK     1      35.648  -8.275  34.711  1.00  0.00    -0.388 OA
HETATM   34  H18 UNK     1      36.034  -8.262  33.819  1.00  0.00     0.210 HD
ENDBRANCH   5  33
BRANCH   4  35
HETATM   35  O5  UNK     1      35.978  -5.916  36.444  1.00  0.00    -0.390 OA
HETATM   36  H17 UNK     1      35.787  -5.188  37.060  1.00  0.00     0.210 HD
ENDBRANCH   4  35
BRANCH   2  37
HETATM   37  C10 UNK     1      31.132  -5.233  36.055  1.00  0.00     0.205 C 
BRANCH  37  38
HETATM   38  O2  UNK     1      29.986  -5.890  36.579  1.00  0.00    -0.356 OA
BRANCH  38  39
HETATM   39  C6  UNK     1      29.947  -5.816  38.000  1.00  0.00     0.291 C 
HETATM   40  C5  UNK     1      28.894  -4.801  38.435  1.00  0.00     0.204 C 
HETATM   41  C7  UNK     1      27.483  -5.323  38.158  1.00  0.00     0.183 C 
HETATM   42  C8  UNK     1      27.289  -6.718  38.754  1.00  0.00     0.178 C 
HETATM   43  C11 UNK     1      28.421  -7.649  38.299  1.00  0.00     0.152 C 
HETATM   44  O3  UNK     1      29.702  -7.090  38.606  1.00  0.00    -0.351 OA
HETATM   45  C12 UNK     1      28.352  -9.011  38.983  1.00  0.00     0.042 C 
BRANCH  40  46
HETATM   46  O8  UNK     1      29.062  -4.573  39.836  1.00  0.00    -0.388 OA
HETATM   47  H19 UNK     1      28.187  -4.410  40.227  1.00  0.00     0.210 HD
ENDBRANCH  40  46
BRANCH  41  48
HETATM   48  O9  UNK     1      26.518  -4.435  38.717  1.00  0.00    -0.390 OA
HETATM   49  H20 UNK     1      25.671  -4.595  38.265  1.00  0.00     0.210 HD
ENDBRANCH  41  48
BRANCH  42  50
HETATM   50  O10 UNK     1      26.029  -7.218  38.312  1.00  0.00    -0.390 OA
HETATM   51  H21 UNK     1      25.798  -6.752  37.491  1.00  0.00     0.210 HD
ENDBRANCH  42  50
ENDBRANCH  38  39
ENDBRANCH  37  38
ENDBRANCH   2  37
BRANCH   3  52
HETATM   52  O4  UNK     1      33.507  -5.315  37.818  1.00  0.00    -0.390 OA
HETATM   53  H16 UNK     1      34.066  -5.941  38.308  1.00  0.00     0.210 HD
ENDBRANCH   3  52
TORSDOF 16
ENDMDL
MODEL 7
REMARK VINA RESULT:      -9.2     14.518     17.980
REMARK  16 active torsions:
REMARK  status: ('A' for Active; 'I' for Inactive)
REMARK    1  A    between atoms: C10_26  and  O2_2 
REMARK    2  A    between atoms: C6_22  and  O2_2 
REMARK    3  A    between atoms: C2_18  and  O4_4 
REMARK    4  A    between atoms: C3_19  and  O5_5 
REMARK    5  A    between atoms: C13_29  and  O6_6 
REMARK    6  A    between atoms: C9_25  and  O6_6 
REMARK    7  A    between atoms: C4_20  and  O7_7 
REMARK    8  A    between atoms: C5_21  and  O8_8 
REMARK    9  A    between atoms: C7_23  and  O9_9 
REMARK   10  A    between atoms: C8_24  and  O10_10 
REMARK   11  A    between atoms: C19_35  and  O13_13 
REMARK   12  A    between atoms: C21_37  and  O14_14 
REMARK   13  A    between atoms: C24_40  and  O15_15 
REMARK   14  A    between atoms: C25_41  and  O16_16 
REMARK   15  A    between atoms: C1_17  and  C10_26 
REMARK   16  A    between atoms: C14_30  and  C17_33 
ROOT
HETATM    1  O1  UNK     1      32.545  -8.129  34.802  1.00  0.00    -0.348 OA
HETATM    2  C1  UNK     1      32.804  -8.343  36.190  1.00  0.00     0.180 C 
HETATM    3  C2  UNK     1      33.557  -7.145  36.772  1.00  0.00     0.180 C 
HETATM    4  C3  UNK     1      34.843  -6.880  35.989  1.00  0.00     0.183 C 
HETATM    5  C4  UNK     1      34.575  -6.833  34.485  1.00  0.00     0.205 C 
HETATM    6  C9  UNK     1      33.741  -8.031  34.031  1.00  0.00     0.298 C 
ENDROOT
BRANCH   6   7
HETATM    7  O6  UNK     1      33.414  -7.844  32.655  1.00  0.00    -0.311 OA
BRANCH   7   8
HETATM    8  C13 UNK     1      32.699  -8.910  32.154  1.00  0.00     0.158 A 
HETATM    9  C15 UNK     1      33.386 -10.219  32.041  1.00  0.00     0.223 A 
HETATM   10  C16 UNK     1      32.581 -11.336  31.522  1.00  0.00     0.084 A 
HETATM   11  O12 UNK     1      34.558 -10.362  32.363  1.00  0.00    -0.284 OA
HETATM   12  C19 UNK     1      33.138 -12.608  31.375  1.00  0.00     0.085 A 
HETATM   13  C18 UNK     1      31.251 -11.106  31.179  1.00  0.00     0.096 A 
HETATM   14  C23 UNK     1      32.352 -13.651  30.881  1.00  0.00     0.074 A 
HETATM   15  C24 UNK     1      31.019 -13.421  30.538  1.00  0.00     0.071 A 
HETATM   16  C20 UNK     1      30.466 -12.149  30.688  1.00  0.00     0.075 A 
HETATM   17  O11 UNK     1      30.653  -9.879  31.305  1.00  0.00    -0.306 OA
HETATM   18  C14 UNK     1      31.409  -8.820  31.781  1.00  0.00     0.126 A 
BRANCH  12  19
HETATM   19  O13 UNK     1      34.432 -12.887  31.694  1.00  0.00    -0.360 OA
HETATM   20  H27 UNK     1      34.925 -13.113  30.887  1.00  0.00     0.217 HD
ENDBRANCH  12  19
BRANCH  15  21
HETATM   21  O15 UNK     1      30.255 -14.441  30.058  1.00  0.00    -0.361 OA
HETATM   22  H29 UNK     1      30.207 -14.371  29.089  1.00  0.00     0.217 HD
ENDBRANCH  15  21
BRANCH  18  23
HETATM   23  C17 UNK     1      30.646  -7.561  31.867  1.00  0.00     0.037 A 
HETATM   24  C21 UNK     1      29.760  -7.322  32.919  1.00  0.00     0.112 A 
HETATM   25  C25 UNK     1      29.050  -6.123  32.977  1.00  0.00     0.099 A 
HETATM   26  C27 UNK     1      29.227  -5.160  31.983  1.00  0.00     0.039 A 
HETATM   27  C26 UNK     1      30.112  -5.396  30.932  1.00  0.00     0.004 A 
HETATM   28  C22 UNK     1      30.821  -6.596  30.873  1.00  0.00     0.017 A 
BRANCH  24  29
HETATM   29  O14 UNK     1      29.579  -8.256  33.898  1.00  0.00    -0.357 OA
HETATM   30  H28 UNK     1      29.353  -9.119  33.519  1.00  0.00     0.217 HD
ENDBRANCH  24  29
BRANCH  25  31
HETATM   31  O16 UNK     1      28.183  -5.877  33.998  1.00  0.00    -0.358 OA
HETATM   32  H30 UNK     1      27.395  -6.433  33.869  1.00  0.00     0.217 HD
ENDBRANCH  25  31
ENDBRANCH  18  23
ENDBRANCH   7   8
ENDBRANCH   6   7
BRANCH   5  33
HETATM   33  O7  UNK     1      35.816  -6.859  33.781  1.00  0.00    -0.388 OA
HETATM   34  H18 UNK     1      35.623  -7.150  32.874  1.00  0.00     0.210 HD
ENDBRANCH   5  33
BRANCH   4  35
HETATM   35  O5  UNK     1      35.369  -5.623  36.417  1.00  0.00    -0.390 OA
HETATM   36  H17 UNK     1      36.003  -5.800  37.133  1.00  0.00     0.210 HD
ENDBRANCH   4  35
BRANCH   2  37
HETATM   37  C10 UNK     1      31.461  -8.557  36.881  1.00  0.00     0.205 C 
BRANCH  37  38
HETATM   38  O2  UNK     1      31.090  -7.360  37.549  1.00  0.00    -0.356 OA
BRANCH  38  39
HETATM   39  C6  UNK     1      30.050  -6.678  36.857  1.00  0.00     0.291 C 
HETATM   40  C5  UNK     1      28.762  -6.736  37.673  1.00  0.00     0.204 C 
HETATM   41  C7  UNK     1      28.866  -5.862  38.924  1.00  0.00     0.183 C 
HETATM   42  C8  UNK     1      29.313  -4.444  38.564  1.00  0.00     0.178 C 
HETATM   43  C11 UNK     1      30.583  -4.493  37.705  1.00  0.00     0.152 C 
HETATM   44  O3  UNK     1      30.395  -5.322  36.553  1.00  0.00    -0.351 OA
HETATM   45  C12 UNK     1      30.986  -3.110  37.199  1.00  0.00     0.042 C 
BRANCH  40  46
HETATM   46  O8  UNK     1      27.697  -6.270  36.841  1.00  0.00    -0.388 OA
HETATM   47  H19 UNK     1      27.272  -5.515  37.281  1.00  0.00     0.210 HD
ENDBRANCH  40  46
BRANCH  41  48
HETATM   48  O9  UNK     1      27.603  -5.803  39.583  1.00  0.00    -0.390 OA
HETATM   49  H20 UNK     1      27.760  -5.525  40.501  1.00  0.00     0.210 HD
ENDBRANCH  41  48
BRANCH  42  50
HETATM   50  O10 UNK     1      29.562  -3.736  39.776  1.00  0.00    -0.390 OA
HETATM   51  H21 UNK     1      30.265  -3.087  39.602  1.00  0.00     0.210 HD
ENDBRANCH  42  50
ENDBRANCH  38  39
ENDBRANCH  37  38
ENDBRANCH   2  37
BRANCH   3  52
HETATM   52  O4  UNK     1      33.882  -7.409  38.135  1.00  0.00    -0.390 OA
HETATM   53  H16 UNK     1      34.231  -6.589  38.525  1.00  0.00     0.210 HD
ENDBRANCH   3  52
TORSDOF 16
ENDMDL
MODEL 8
REMARK VINA RESULT:      -9.2     13.970     18.384
REMARK  16 active torsions:
REMARK  status: ('A' for Active; 'I' for Inactive)
REMARK    1  A    between atoms: C10_26  and  O2_2 
REMARK    2  A    between atoms: C6_22  and  O2_2 
REMARK    3  A    between atoms: C2_18  and  O4_4 
REMARK    4  A    between atoms: C3_19  and  O5_5 
REMARK    5  A    between atoms: C13_29  and  O6_6 
REMARK    6  A    between atoms: C9_25  and  O6_6 
REMARK    7  A    between atoms: C4_20  and  O7_7 
REMARK    8  A    between atoms: C5_21  and  O8_8 
REMARK    9  A    between atoms: C7_23  and  O9_9 
REMARK   10  A    between atoms: C8_24  and  O10_10 
REMARK   11  A    between atoms: C19_35  and  O13_13 
REMARK   12  A    between atoms: C21_37  and  O14_14 
REMARK   13  A    between atoms: C24_40  and  O15_15 
REMARK   14  A    between atoms: C25_41  and  O16_16 
REMARK   15  A    between atoms: C1_17  and  C10_26 
REMARK   16  A    between atoms: C14_30  and  C17_33 
ROOT
HETATM    1  O1  UNK     1      33.054  -7.486  34.734  1.00  0.00    -0.348 OA
HETATM    2  C1  UNK     1      34.085  -6.516  34.925  1.00  0.00     0.180 C 
HETATM    3  C2  UNK     1      34.896  -6.853  36.178  1.00  0.00     0.180 C 
HETATM    4  C3  UNK     1      33.984  -6.961  37.401  1.00  0.00     0.183 C 
HETATM    5  C4  UNK     1      32.785  -7.865  37.118  1.00  0.00     0.205 C 
HETATM    6  C9  UNK     1      32.106  -7.493  35.800  1.00  0.00     0.298 C 
ENDROOT
BRANCH   6   7
HETATM    7  O6  UNK     1      31.093  -8.463  35.537  1.00  0.00    -0.311 OA
BRANCH   7   8
HETATM    8  C13 UNK     1      30.146  -7.982  34.658  1.00  0.00     0.158 A 
HETATM    9  C15 UNK     1      29.949  -8.708  33.380  1.00  0.00     0.223 A 
HETATM   10  C16 UNK     1      28.914  -8.175  32.480  1.00  0.00     0.084 A 
HETATM   11  O12 UNK     1      30.610  -9.695  33.091  1.00  0.00    -0.284 OA
HETATM   12  C19 UNK     1      28.654  -8.785  31.251  1.00  0.00     0.085 A 
HETATM   13  C18 UNK     1      28.194  -7.050  32.874  1.00  0.00     0.096 A 
HETATM   14  C23 UNK     1      27.665  -8.260  30.417  1.00  0.00     0.074 A 
HETATM   15  C24 UNK     1      26.943  -7.133  30.811  1.00  0.00     0.071 A 
HETATM   16  C20 UNK     1      27.205  -6.527  32.040  1.00  0.00     0.075 A 
HETATM   17  O11 UNK     1      28.405  -6.412  34.069  1.00  0.00    -0.306 OA
HETATM   18  C14 UNK     1      29.387  -6.901  34.915  1.00  0.00     0.126 A 
BRANCH  12  19
HETATM   19  O13 UNK     1      29.329  -9.886  30.819  1.00  0.00    -0.360 OA
HETATM   20  H27 UNK     1      30.286  -9.722  30.870  1.00  0.00     0.217 HD
ENDBRANCH  12  19
BRANCH  15  21
HETATM   21  O15 UNK     1      25.978  -6.625  29.995  1.00  0.00    -0.361 OA
HETATM   22  H29 UNK     1      25.922  -5.664  30.133  1.00  0.00     0.217 HD
ENDBRANCH  15  21
BRANCH  18  23
HETATM   23  C17 UNK     1      29.511  -6.125  36.162  1.00  0.00     0.037 A 
HETATM   24  C21 UNK     1      28.699  -6.395  37.266  1.00  0.00     0.112 A 
HETATM   25  C25 UNK     1      28.836  -5.646  38.435  1.00  0.00     0.099 A 
HETATM   26  C27 UNK     1      29.785  -4.626  38.502  1.00  0.00     0.039 A 
HETATM   27  C26 UNK     1      30.597  -4.355  37.400  1.00  0.00     0.004 A 
HETATM   28  C22 UNK     1      30.460  -5.103  36.231  1.00  0.00     0.017 A 
BRANCH  24  29
HETATM   29  O14 UNK     1      27.768  -7.391  37.214  1.00  0.00    -0.357 OA
HETATM   30  H28 UNK     1      27.580  -7.740  38.099  1.00  0.00     0.217 HD
ENDBRANCH  24  29
BRANCH  25  31
HETATM   31  O16 UNK     1      28.051  -5.901  39.519  1.00  0.00    -0.358 OA
HETATM   32  H30 UNK     1      28.402  -5.397  40.274  1.00  0.00     0.217 HD
ENDBRANCH  25  31
ENDBRANCH  18  23
ENDBRANCH   7   8
ENDBRANCH   6   7
BRANCH   5  33
HETATM   33  O7  UNK     1      31.828  -7.725  38.168  1.00  0.00    -0.388 OA
HETATM   34  H18 UNK     1      31.235  -8.493  38.118  1.00  0.00     0.210 HD
ENDBRANCH   5  33
BRANCH   4  35
HETATM   35  O5  UNK     1      34.750  -7.509  38.474  1.00  0.00    -0.390 OA
HETATM   36  H17 UNK     1      34.696  -8.478  38.407  1.00  0.00     0.210 HD
ENDBRANCH   4  35
BRANCH   2  37
HETATM   37  C10 UNK     1      34.955  -6.516  33.672  1.00  0.00     0.205 C 
BRANCH  37  38
HETATM   38  O2  UNK     1      34.841  -7.780  33.031  1.00  0.00    -0.356 OA
BRANCH  38  39
HETATM   39  C6  UNK     1      35.131  -7.687  31.641  1.00  0.00     0.291 C 
HETATM   40  C5  UNK     1      35.539  -9.058  31.107  1.00  0.00     0.204 C 
HETATM   41  C7  UNK     1      34.342 -10.008  31.065  1.00  0.00     0.183 C 
HETATM   42  C8  UNK     1      33.166  -9.373  30.321  1.00  0.00     0.178 C 
HETATM   43  C11 UNK     1      32.865  -7.984  30.897  1.00  0.00     0.152 C 
HETATM   44  O3  UNK     1      34.034  -7.158  30.888  1.00  0.00    -0.351 OA
HETATM   45  C12 UNK     1      31.794  -7.250  30.093  1.00  0.00     0.042 C 
BRANCH  40  46
HETATM   46  O8  UNK     1      36.060  -8.874  29.789  1.00  0.00    -0.388 OA
HETATM   47  H19 UNK     1      36.647  -9.621  29.584  1.00  0.00     0.210 HD
ENDBRANCH  40  46
BRANCH  41  48
HETATM   48  O9  UNK     1      34.708 -11.223  30.416  1.00  0.00    -0.390 OA
HETATM   49  H20 UNK     1      35.553 -11.519  30.795  1.00  0.00     0.210 HD
ENDBRANCH  41  48
BRANCH  42  50
HETATM   50  O10 UNK     1      32.034 -10.227  30.471  1.00  0.00    -0.390 OA
HETATM   51  H21 UNK     1      31.892 -10.683  29.624  1.00  0.00     0.210 HD
ENDBRANCH  42  50
ENDBRANCH  38  39
ENDBRANCH  37  38
ENDBRANCH   2  37
BRANCH   3  52
HETATM   52  O4  UNK     1      35.865  -5.832  36.402  1.00  0.00    -0.390 OA
HETATM   53  H16 UNK     1      35.396  -4.984  36.476  1.00  0.00     0.210 HD
ENDBRANCH   3  52
TORSDOF 16
ENDMDL
MODEL 9
REMARK VINA RESULT:      -9.2     15.027     19.213
REMARK  16 active torsions:
REMARK  status: ('A' for Active; 'I' for Inactive)
REMARK    1  A    between atoms: C10_26  and  O2_2 
REMARK    2  A    between atoms: C6_22  and  O2_2 
REMARK    3  A    between atoms: C2_18  and  O4_4 
REMARK    4  A    between atoms: C3_19  and  O5_5 
REMARK    5  A    between atoms: C13_29  and  O6_6 
REMARK    6  A    between atoms: C9_25  and  O6_6 
REMARK    7  A    between atoms: C4_20  and  O7_7 
REMARK    8  A    between atoms: C5_21  and  O8_8 
REMARK    9  A    between atoms: C7_23  and  O9_9 
REMARK   10  A    between atoms: C8_24  and  O10_10 
REMARK   11  A    between atoms: C19_35  and  O13_13 
REMARK   12  A    between atoms: C21_37  and  O14_14 
REMARK   13  A    between atoms: C24_40  and  O15_15 
REMARK   14  A    between atoms: C25_41  and  O16_16 
REMARK   15  A    between atoms: C1_17  and  C10_26 
REMARK   16  A    between atoms: C14_30  and  C17_33 
ROOT
HETATM    1  O1  UNK     1      31.979  -6.995  32.611  1.00  0.00    -0.348 OA
HETATM    2  C1  UNK     1      31.809  -7.649  31.353  1.00  0.00     0.180 C 
HETATM    3  C2  UNK     1      31.363  -6.639  30.294  1.00  0.00     0.180 C 
HETATM    4  C3  UNK     1      30.089  -5.917  30.736  1.00  0.00     0.183 C 
HETATM    5  C4  UNK     1      30.224  -5.377  32.158  1.00  0.00     0.205 C 
HETATM    6  C9  UNK     1      30.761  -6.446  33.111  1.00  0.00     0.298 C 
ENDROOT
BRANCH   6   7
HETATM    7  O6  UNK     1      30.994  -5.831  34.377  1.00  0.00    -0.311 OA
BRANCH   7   8
HETATM    8  C13 UNK     1      30.770  -6.709  35.416  1.00  0.00     0.158 A 
HETATM    9  C15 UNK     1      29.365  -7.011  35.784  1.00  0.00     0.223 A 
HETATM   10  C16 UNK     1      29.171  -7.969  36.883  1.00  0.00     0.084 A 
HETATM   11  O12 UNK     1      28.421  -6.492  35.204  1.00  0.00    -0.284 OA
HETATM   12  C19 UNK     1      27.886  -8.317  37.307  1.00  0.00     0.085 A 
HETATM   13  C18 UNK     1      30.289  -8.527  37.497  1.00  0.00     0.096 A 
HETATM   14  C23 UNK     1      27.729  -9.229  38.352  1.00  0.00     0.074 A 
HETATM   15  C24 UNK     1      28.850  -9.789  38.967  1.00  0.00     0.071 A 
HETATM   16  C20 UNK     1      30.131  -9.440  38.540  1.00  0.00     0.075 A 
HETATM   17  O11 UNK     1      31.572  -8.223  37.121  1.00  0.00    -0.306 OA
HETATM   18  C14 UNK     1      31.762  -7.312  36.094  1.00  0.00     0.126 A 
BRANCH  12  19
HETATM   19  O13 UNK     1      26.760  -7.800  36.742  1.00  0.00    -0.360 OA
HETATM   20  H27 UNK     1      26.547  -6.948  37.159  1.00  0.00     0.217 HD
ENDBRANCH  12  19
BRANCH  15  21
HETATM   21  O15 UNK     1      28.692 -10.680  39.985  1.00  0.00    -0.361 OA
HETATM   22  H29 UNK     1      28.448 -11.544  39.613  1.00  0.00     0.217 HD
ENDBRANCH  15  21
BRANCH  18  23
HETATM   23  C17 UNK     1      33.186  -7.077  35.791  1.00  0.00     0.037 A 
HETATM   24  C21 UNK     1      33.912  -7.962  34.991  1.00  0.00     0.112 A 
HETATM   25  C25 UNK     1      35.257  -7.716  34.719  1.00  0.00     0.099 A 
HETATM   26  C27 UNK     1      35.880  -6.585  35.246  1.00  0.00     0.039 A 
HETATM   27  C26 UNK     1      35.157  -5.700  36.045  1.00  0.00     0.004 A 
HETATM   28  C22 UNK     1      33.811  -5.945  36.318  1.00  0.00     0.017 A 
BRANCH  24  29
HETATM   29  O14 UNK     1      33.314  -9.072  34.468  1.00  0.00    -0.357 OA
HETATM   30  H28 UNK     1      33.276  -9.024  33.500  1.00  0.00     0.217 HD
ENDBRANCH  24  29
BRANCH  25  31
HETATM   31  O16 UNK     1      35.976  -8.571  33.939  1.00  0.00    -0.358 OA
HETATM   32  H30 UNK     1      36.341  -8.068  33.191  1.00  0.00     0.217 HD
ENDBRANCH  25  31
ENDBRANCH  18  23
ENDBRANCH   7   8
ENDBRANCH   6   7
BRANCH   5  33
HETATM   33  O7  UNK     1      28.944  -4.960  32.631  1.00  0.00    -0.388 OA
HETATM   34  H18 UNK     1      29.038  -4.769  33.580  1.00  0.00     0.210 HD
ENDBRANCH   5  33
BRANCH   4  35
HETATM   35  O5  UNK     1      29.862  -4.833  29.835  1.00  0.00    -0.390 OA
HETATM   36  H17 UNK     1      30.579  -4.843  29.178  1.00  0.00     0.210 HD
ENDBRANCH   4  35
BRANCH   2  37
HETATM   37  C10 UNK     1      33.141  -8.299  30.989  1.00  0.00     0.205 C 
BRANCH  37  38
HETATM   38  O2  UNK     1      33.080  -9.683  31.303  1.00  0.00    -0.356 OA
BRANCH  38  39
HETATM   39  C6  UNK     1      33.221 -10.488  30.138  1.00  0.00     0.291 C 
HETATM   40  C5  UNK     1      33.440 -11.945  30.541  1.00  0.00     0.204 C 
HETATM   41  C7  UNK     1      32.162 -12.547  31.127  1.00  0.00     0.183 C 
HETATM   42  C8  UNK     1      30.974 -12.331  30.188  1.00  0.00     0.178 C 
HETATM   43  C11 UNK     1      30.869 -10.850  29.804  1.00  0.00     0.152 C 
HETATM   44  O3  UNK     1      32.101 -10.371  29.254  1.00  0.00    -0.351 OA
HETATM   45  C12 UNK     1      29.788 -10.607  28.753  1.00  0.00     0.042 C 
BRANCH  40  46
HETATM   46  O8  UNK     1      33.825 -12.667  29.370  1.00  0.00    -0.388 OA
HETATM   47  H19 UNK     1      34.667 -12.303  29.047  1.00  0.00     0.210 HD
ENDBRANCH  40  46
BRANCH  41  48
HETATM   48  O9  UNK     1      32.340 -13.945  31.345  1.00  0.00    -0.390 OA
HETATM   49  H20 UNK     1      32.970 -14.272  30.680  1.00  0.00     0.210 HD
ENDBRANCH  41  48
BRANCH  42  50
HETATM   50  O10 UNK     1      29.792 -12.752  30.865  1.00  0.00    -0.390 OA
HETATM   51  H21 UNK     1      29.871 -13.707  31.033  1.00  0.00     0.210 HD
ENDBRANCH  42  50
ENDBRANCH  38  39
ENDBRANCH  37  38
ENDBRANCH   2  37
BRANCH   3  52
HETATM   52  O4  UNK     1      31.117  -7.320  29.066  1.00  0.00    -0.390 OA
HETATM   53  H16 UNK     1      31.935  -7.777  28.807  1.00  0.00     0.210 HD
ENDBRANCH   3  52
TORSDOF 16
ENDMDL
MODEL 10
REMARK VINA RESULT:      -9.2     14.429     19.046
REMARK  16 active torsions:
REMARK  status: ('A' for Active; 'I' for Inactive)
REMARK    1  A    between atoms: C10_26  and  O2_2 
REMARK    2  A    between atoms: C6_22  and  O2_2 
REMARK    3  A    between atoms: C2_18  and  O4_4 
REMARK    4  A    between atoms: C3_19  and  O5_5 
REMARK    5  A    between atoms: C13_29  and  O6_6 
REMARK    6  A    between atoms: C9_25  and  O6_6 
REMARK    7  A    between atoms: C4_20  and  O7_7 
REMARK    8  A    between atoms: C5_21  and  O8_8 
REMARK    9  A    between atoms: C7_23  and  O9_9 
REMARK   10  A    between atoms: C8_24  and  O10_10 
REMARK   11  A    between atoms: C19_35  and  O13_13 
REMARK   12  A    between atoms: C21_37  and  O14_14 
REMARK   13  A    between atoms: C24_40  and  O15_15 
REMARK   14  A    between atoms: C25_41  and  O16_16 
REMARK   15  A    between atoms: C1_17  and  C10_26 
REMARK   16  A    between atoms: C14_30  and  C17_33 
ROOT
HETATM    1  O1  UNK     1      31.209  -6.640  32.404  1.00  0.00    -0.348 OA
HETATM    2  C1  UNK     1      31.108  -7.353  31.171  1.00  0.00     0.180 C 
HETATM    3  C2  UNK     1      30.304  -6.535  30.159  1.00  0.00     0.180 C 
HETATM    4  C3  UNK     1      28.929  -6.175  30.722  1.00  0.00     0.183 C 
HETATM    5  C4  UNK     1      29.044  -5.576  32.122  1.00  0.00     0.205 C 
HETATM    6  C9  UNK     1      29.940  -6.429  33.020  1.00  0.00     0.298 C 
ENDROOT
BRANCH   6   7
HETATM    7  O6  UNK     1      30.113  -5.737  34.256  1.00  0.00    -0.311 OA
BRANCH   7   8
HETATM    8  C13 UNK     1      30.069  -6.598  35.331  1.00  0.00     0.158 A 
HETATM    9  C15 UNK     1      28.749  -7.136  35.739  1.00  0.00     0.223 A 
HETATM   10  C16 UNK     1      28.749  -8.069  36.877  1.00  0.00     0.084 A 
HETATM   11  O12 UNK     1      27.718  -6.823  35.160  1.00  0.00    -0.284 OA
HETATM   12  C19 UNK     1      27.556  -8.628  37.340  1.00  0.00     0.085 A 
HETATM   13  C18 UNK     1      29.959  -8.388  37.487  1.00  0.00     0.096 A 
HETATM   14  C23 UNK     1      27.583  -9.511  38.421  1.00  0.00     0.074 A 
HETATM   15  C24 UNK     1      28.796  -9.832  39.032  1.00  0.00     0.071 A 
HETATM   16  C20 UNK     1      29.985  -9.272  38.566  1.00  0.00     0.075 A 
HETATM   17  O11 UNK     1      31.159  -7.871  37.073  1.00  0.00    -0.306 OA
HETATM   18  C14 UNK     1      31.165  -6.982  36.010  1.00  0.00     0.126 A 
BRANCH  12  19
HETATM   19  O13 UNK     1      26.346  -8.349  36.780  1.00  0.00    -0.360 OA
HETATM   20  H27 UNK     1      26.475  -8.015  35.877  1.00  0.00     0.217 HD
ENDBRANCH  12  19
BRANCH  15  21
HETATM   21  O15 UNK     1      28.819 -10.695  40.086  1.00  0.00    -0.361 OA
HETATM   22  H29 UNK     1      27.921 -11.040  40.231  1.00  0.00     0.217 HD
ENDBRANCH  15  21
BRANCH  18  23
HETATM   23  C17 UNK     1      32.517  -6.503  35.668  1.00  0.00     0.037 A 
HETATM   24  C21 UNK     1      33.605  -7.377  35.625  1.00  0.00     0.112 A 
HETATM   25  C25 UNK     1      34.874  -6.899  35.298  1.00  0.00     0.099 A 
HETATM   26  C27 UNK     1      35.057  -5.546  35.014  1.00  0.00     0.039 A 
HETATM   27  C26 UNK     1      33.971  -4.671  35.057  1.00  0.00     0.004 A 
HETATM   28  C22 UNK     1      32.702  -5.149  35.384  1.00  0.00     0.017 A 
BRANCH  24  29
HETATM   29  O14 UNK     1      33.439  -8.704  35.899  1.00  0.00    -0.357 OA
HETATM   30  H28 UNK     1      34.202  -9.220  35.597  1.00  0.00     0.217 HD
ENDBRANCH  24  29
BRANCH  25  31
HETATM   31  O16 UNK     1      35.943  -7.742  35.251  1.00  0.00    -0.358 OA
HETATM   32  H30 UNK     1      36.671  -7.338  35.754  1.00  0.00     0.217 HD
ENDBRANCH  25  31
ENDBRANCH  18  23
ENDBRANCH   7   8
ENDBRANCH   6   7
BRANCH   5  33
HETATM   33  O7  UNK     1      27.749  -5.510  32.718  1.00  0.00    -0.388 OA
HETATM   34  H18 UNK     1      27.827  -5.878  33.614  1.00  0.00     0.210 HD
ENDBRANCH   5  33
BRANCH   4  35
HETATM   35  O5  UNK     1      28.329  -5.221  29.844  1.00  0.00    -0.390 OA
HETATM   36  H17 UNK     1      28.293  -5.620  28.959  1.00  0.00     0.210 HD
ENDBRANCH   4  35
BRANCH   2  37
HETATM   37  C10 UNK     1      32.526  -7.626  30.680  1.00  0.00     0.205 C 
BRANCH  37  38
HETATM   38  O2  UNK     1      32.791  -9.018  30.782  1.00  0.00    -0.356 OA
BRANCH  38  39
HETATM   39  C6  UNK     1      34.007  -9.367  30.130  1.00  0.00     0.291 C 
HETATM   40  C5  UNK     1      35.102  -8.377  30.518  1.00  0.00     0.204 C 
HETATM   41  C7  UNK     1      35.519  -8.568  31.977  1.00  0.00     0.183 C 
HETATM   42  C8  UNK     1      35.871 -10.029  32.259  1.00  0.00     0.178 C 
HETATM   43  C11 UNK     1      34.732 -10.945  31.791  1.00  0.00     0.152 C 
HETATM   44  O3  UNK     1      34.414 -10.709  30.415  1.00  0.00    -0.351 OA
HETATM   45  C12 UNK     1      35.097 -12.422  31.917  1.00  0.00     0.042 C 
BRANCH  40  46
HETATM   46  O8  UNK     1      36.221  -8.606  29.659  1.00  0.00    -0.388 OA
HETATM   47  H19 UNK     1      35.887  -8.842  28.777  1.00  0.00     0.210 HD
ENDBRANCH  40  46
BRANCH  41  48
HETATM   48  O9  UNK     1      36.649  -7.748  32.271  1.00  0.00    -0.390 OA
HETATM   49  H20 UNK     1      37.194  -7.696  31.468  1.00  0.00     0.210 HD
ENDBRANCH  41  48
BRANCH  42  50
HETATM   50  O10 UNK     1      36.076 -10.173  33.663  1.00  0.00    -0.390 OA
HETATM   51  H21 UNK     1      36.149 -11.123  33.856  1.00  0.00     0.210 HD
ENDBRANCH  42  50
ENDBRANCH  38  39
ENDBRANCH  37  38
ENDBRANCH   2  37
BRANCH   3  52
HETATM   52  O4  UNK     1      30.140  -7.294  28.963  1.00  0.00    -0.390 OA
HETATM   53  H16 UNK     1      29.202  -7.539  28.890  1.00  0.00     0.210 HD
ENDBRANCH   3  52
TORSDOF 16
ENDMDL
