MODEL 1
REMARK VINA RESULT:      -9.1      0.000      0.000
REMARK  2 active torsions:
REMARK  status: ('A' for Active; 'I' for Inactive)
REMARK       I    between atoms: C6_11  and  N1_5 
REMARK    1  A    between atoms: C9_14  and  N1_5 
REMARK    2  A    between atoms: C2_7  and  C6_11 
ROOT
HETATM    1  O1  UNK     1      19.074   1.604  28.747  1.00  0.00    -0.274 OA
HETATM    2  O3  UNK     1      18.301   3.742  28.976  1.00  0.00    -0.259 OA
HETATM    3  C1  UNK     1      19.539   0.276  30.729  1.00  0.00    -0.001 A 
HETATM    4  C2  UNK     1      18.718   2.542  30.977  1.00  0.00     0.108 A 
HETATM    5  C3  UNK     1      19.504   0.402  29.344  1.00  0.00     0.089 A 
HETATM    6  C4  UNK     1      19.125   1.404  31.550  1.00  0.00     0.037 A 
HETATM    7  C5  UNK     1      19.970  -0.931  31.285  1.00  0.00     0.014 A 
HETATM    8  C7  UNK     1      18.672   2.700  29.505  1.00  0.00     0.304 A 
HETATM    9  C8  UNK     1      19.887  -0.638  28.502  1.00  0.00     0.038 A 
HETATM   10  C10 UNK     1      20.358  -1.985  30.453  1.00  0.00     0.001 A 
HETATM   11  C11 UNK     1      20.316  -1.839  29.065  1.00  0.00     0.003 A 
ENDROOT
BRANCH   4  12
HETATM   12  C6  UNK     1      18.322   3.622  31.888  1.00  0.00     0.262 C 
HETATM   13  O2  UNK     1      17.616   3.364  32.861  1.00  0.00    -0.267 OA
HETATM   14  N1  UNK     1      18.834   4.849  31.490  1.00  0.00    -0.323 N 
HETATM   15  H4  UNK     1      19.389   4.898  30.640  1.00  0.00     0.169 HD
BRANCH  14  16
HETATM   16  C9  UNK     1      18.642   6.072  32.141  1.00  0.00     0.036 A 
HETATM   17  C12 UNK     1      17.428   6.744  32.014  1.00  0.00     0.048 A 
HETATM   18  C14 UNK     1      17.238   7.964  32.663  1.00  0.00     0.013 A 
HETATM   19 Br1  UNK     1      15.593   8.878  32.493  1.00  0.00    -0.051 Br
HETATM   20  C16 UNK     1      18.262   8.508  33.440  1.00  0.00     0.019 A 
HETATM   21  C15 UNK     1      19.476   7.833  33.565  1.00  0.00     0.004 A 
HETATM   22  C13 UNK     1      19.666   6.614  32.915  1.00  0.00     0.029 A 
ENDBRANCH  14  16
ENDBRANCH   4  12
TORSDOF 2
ENDMDL
MODEL 2
REMARK VINA RESULT:      -8.8      8.306     11.592
REMARK  2 active torsions:
REMARK  status: ('A' for Active; 'I' for Inactive)
REMARK       I    between atoms: C6_11  and  N1_5 
REMARK    1  A    between atoms: C9_14  and  N1_5 
REMARK    2  A    between atoms: C2_7  and  C6_11 
ROOT
HETATM    1  O1  UNK     1      19.513  -1.092  34.621  1.00  0.00    -0.274 OA
HETATM    2  O3  UNK     1      20.636  -3.008  34.082  1.00  0.00    -0.259 OA
HETATM    3  C1  UNK     1      18.515  -0.865  36.826  1.00  0.00    -0.001 A 
HETATM    4  C2  UNK     1      19.706  -2.898  36.259  1.00  0.00     0.108 A 
HETATM    5  C3  UNK     1      18.779  -0.345  35.563  1.00  0.00     0.089 A 
HETATM    6  C4  UNK     1      19.010  -2.193  37.158  1.00  0.00     0.037 A 
HETATM    7  C5  UNK     1      17.785  -0.094  37.734  1.00  0.00     0.014 A 
HETATM    8  C7  UNK     1      19.999  -2.365  34.909  1.00  0.00     0.304 A 
HETATM    9  C8  UNK     1      18.335   0.919  35.182  1.00  0.00     0.038 A 
HETATM   10  C10 UNK     1      17.332   1.176  37.366  1.00  0.00     0.001 A 
HETATM   11  C11 UNK     1      17.606   1.681  36.094  1.00  0.00     0.003 A 
ENDROOT
BRANCH   4  12
HETATM   12  C6  UNK     1      20.161  -4.226  36.687  1.00  0.00     0.262 C 
HETATM   13  O2  UNK     1      21.232  -4.336  37.281  1.00  0.00    -0.267 OA
HETATM   14  N1  UNK     1      19.259  -5.220  36.335  1.00  0.00    -0.323 N 
HETATM   15  H4  UNK     1      18.420  -4.964  35.821  1.00  0.00     0.169 HD
BRANCH  14  16
HETATM   16  C9  UNK     1      19.396  -6.587  36.597  1.00  0.00     0.036 A 
HETATM   17  C12 UNK     1      20.295  -7.350  35.856  1.00  0.00     0.048 A 
HETATM   18  C14 UNK     1      20.430  -8.714  36.118  1.00  0.00     0.013 A 
HETATM   19 Br1  UNK     1      21.648  -9.752  35.113  1.00  0.00    -0.051 Br
HETATM   20  C16 UNK     1      19.668  -9.310  37.123  1.00  0.00     0.019 A 
HETATM   21  C15 UNK     1      18.769  -8.543  37.864  1.00  0.00     0.004 A 
HETATM   22  C13 UNK     1      18.633  -7.180  37.601  1.00  0.00     0.029 A 
ENDBRANCH  14  16
ENDBRANCH   4  12
TORSDOF 2
ENDMDL
MODEL 3
REMARK VINA RESULT:      -8.8      3.191      7.575
REMARK  2 active torsions:
REMARK  status: ('A' for Active; 'I' for Inactive)
REMARK       I    between atoms: C6_11  and  N1_5 
REMARK    1  A    between atoms: C9_14  and  N1_5 
REMARK    2  A    between atoms: C2_7  and  C6_11 
ROOT
HETATM    1  O1  UNK     1      19.225   6.649  31.354  1.00  0.00    -0.274 OA
HETATM    2  O3  UNK     1      19.730   5.175  29.684  1.00  0.00    -0.259 OA
HETATM    3  C1  UNK     1      17.843   5.925  33.218  1.00  0.00    -0.001 A 
HETATM    4  C2  UNK     1      18.377   4.358  31.449  1.00  0.00     0.108 A 
HETATM    5  C3  UNK     1      18.576   6.917  32.576  1.00  0.00     0.089 A 
HETATM    6  C4  UNK     1      17.758   4.606  32.609  1.00  0.00     0.037 A 
HETATM    7  C5  UNK     1      17.214   6.227  34.428  1.00  0.00     0.014 A 
HETATM    8  C7  UNK     1      19.163   5.398  30.747  1.00  0.00     0.304 A 
HETATM    9  C8  UNK     1      18.697   8.200  33.105  1.00  0.00     0.038 A 
HETATM   10  C10 UNK     1      17.325   7.510  34.972  1.00  0.00     0.001 A 
HETATM   11  C11 UNK     1      18.065   8.494  34.312  1.00  0.00     0.003 A 
ENDROOT
BRANCH   4  12
HETATM   12  C6  UNK     1      18.233   2.999  30.914  1.00  0.00     0.262 C 
HETATM   13  O2  UNK     1      17.114   2.577  30.625  1.00  0.00    -0.267 OA
HETATM   14  N1  UNK     1      19.456   2.352  30.807  1.00  0.00    -0.323 N 
HETATM   15  H4  UNK     1      20.297   2.836  31.111  1.00  0.00     0.169 HD
BRANCH  14  16
HETATM   16  C9  UNK     1      19.663   1.053  30.334  1.00  0.00     0.036 A 
HETATM   17  C12 UNK     1      20.047   0.045  31.215  1.00  0.00     0.048 A 
HETATM   18  C14 UNK     1      20.253  -1.251  30.742  1.00  0.00     0.013 A 
HETATM   19 Br1  UNK     1      20.774  -2.621  31.936  1.00  0.00    -0.051 Br
HETATM   20  C16 UNK     1      20.072  -1.537  29.389  1.00  0.00     0.019 A 
HETATM   21  C15 UNK     1      19.688  -0.526  28.508  1.00  0.00     0.004 A 
HETATM   22  C13 UNK     1      19.482   0.770  28.981  1.00  0.00     0.029 A 
ENDBRANCH  14  16
ENDBRANCH   4  12
TORSDOF 2
ENDMDL
MODEL 4
REMARK VINA RESULT:      -8.7      8.683     11.648
REMARK  2 active torsions:
REMARK  status: ('A' for Active; 'I' for Inactive)
REMARK       I    between atoms: C6_11  and  N1_5 
REMARK    1  A    between atoms: C9_14  and  N1_5 
REMARK    2  A    between atoms: C2_7  and  C6_11 
ROOT
HETATM    1  O1  UNK     1      19.706  -0.949  34.818  1.00  0.00    -0.274 OA
HETATM    2  O3  UNK     1      20.815  -2.815  34.104  1.00  0.00    -0.259 OA
HETATM    3  C1  UNK     1      18.491  -1.005  36.922  1.00  0.00    -0.001 A 
HETATM    4  C2  UNK     1      19.666  -2.986  36.170  1.00  0.00     0.108 A 
HETATM    5  C3  UNK     1      18.903  -0.315  35.787  1.00  0.00     0.089 A 
HETATM    6  C4  UNK     1      18.903  -2.390  37.094  1.00  0.00     0.037 A 
HETATM    7  C5  UNK     1      17.696  -0.343  37.861  1.00  0.00     0.014 A 
HETATM    8  C7  UNK     1      20.117  -2.272  34.954  1.00  0.00     0.304 A 
HETATM    9  C8  UNK     1      18.543   1.011  35.562  1.00  0.00     0.038 A 
HETATM   10  C10 UNK     1      17.326   0.988  37.650  1.00  0.00     0.001 A 
HETATM   11  C11 UNK     1      17.748   1.663  36.503  1.00  0.00     0.003 A 
ENDROOT
BRANCH   4  12
HETATM   12  C6  UNK     1      20.030  -4.383  36.432  1.00  0.00     0.262 C 
HETATM   13  O2  UNK     1      20.042  -5.190  35.504  1.00  0.00    -0.267 OA
HETATM   14  N1  UNK     1      20.325  -4.599  37.771  1.00  0.00    -0.323 N 
HETATM   15  H4  UNK     1      20.246  -3.823  38.423  1.00  0.00     0.169 HD
BRANCH  14  16
HETATM   16  C9  UNK     1      20.706  -5.816  38.345  1.00  0.00     0.036 A 
HETATM   17  C12 UNK     1      22.047  -6.195  38.343  1.00  0.00     0.048 A 
HETATM   18  C14 UNK     1      22.426  -7.409  38.916  1.00  0.00     0.013 A 
HETATM   19 Br1  UNK     1      24.244  -7.927  38.915  1.00  0.00    -0.051 Br
HETATM   20  C16 UNK     1      21.464  -8.241  39.490  1.00  0.00     0.019 A 
HETATM   21  C15 UNK     1      20.123  -7.858  39.491  1.00  0.00     0.004 A 
HETATM   22  C13 UNK     1      19.743  -6.645  38.918  1.00  0.00     0.029 A 
ENDBRANCH  14  16
ENDBRANCH   4  12
TORSDOF 2
ENDMDL
MODEL 5
REMARK VINA RESULT:      -8.7      1.564      2.583
REMARK  2 active torsions:
REMARK  status: ('A' for Active; 'I' for Inactive)
REMARK       I    between atoms: C6_11  and  N1_5 
REMARK    1  A    between atoms: C9_14  and  N1_5 
REMARK    2  A    between atoms: C2_7  and  C6_11 
ROOT
HETATM    1  O1  UNK     1      18.685   0.395  32.665  1.00  0.00    -0.274 OA
HETATM    2  O3  UNK     1      17.810   2.265  33.641  1.00  0.00    -0.259 OA
HETATM    3  C1  UNK     1      19.646   0.541  30.437  1.00  0.00    -0.001 A 
HETATM    4  C2  UNK     1      18.721   2.527  31.469  1.00  0.00     0.108 A 
HETATM    5  C3  UNK     1      19.319  -0.210  31.561  1.00  0.00     0.089 A 
HETATM    6  C4  UNK     1      19.323   1.959  30.418  1.00  0.00     0.037 A 
HETATM    7  C5  UNK     1      20.276  -0.093  29.362  1.00  0.00     0.014 A 
HETATM    8  C7  UNK     1      18.363   1.749  32.676  1.00  0.00     0.304 A 
HETATM    9  C8  UNK     1      19.601  -1.571  31.642  1.00  0.00     0.038 A 
HETATM   10  C10 UNK     1      20.564  -1.459  29.428  1.00  0.00     0.001 A 
HETATM   11  C11 UNK     1      20.228  -2.196  30.566  1.00  0.00     0.003 A 
ENDROOT
BRANCH   4  12
HETATM   12  C6  UNK     1      18.435   3.963  31.356  1.00  0.00     0.262 C 
HETATM   13  O2  UNK     1      18.350   4.477  30.242  1.00  0.00    -0.267 OA
HETATM   14  N1  UNK     1      18.296   4.562  32.600  1.00  0.00    -0.323 N 
HETATM   15  H4  UNK     1      18.418   3.996  33.435  1.00  0.00     0.169 HD
BRANCH  14  16
HETATM   16  C9  UNK     1      18.021   5.912  32.838  1.00  0.00     0.036 A 
HETATM   17  C12 UNK     1      18.993   6.729  33.412  1.00  0.00     0.048 A 
HETATM   18  C14 UNK     1      18.718   8.076  33.649  1.00  0.00     0.013 A 
HETATM   19 Br1  UNK     1      20.035   9.186  34.427  1.00  0.00    -0.051 Br
HETATM   20  C16 UNK     1      17.472   8.603  33.310  1.00  0.00     0.019 A 
HETATM   21  C15 UNK     1      16.501   7.783  32.735  1.00  0.00     0.004 A 
HETATM   22  C13 UNK     1      16.775   6.437  32.499  1.00  0.00     0.029 A 
ENDBRANCH  14  16
ENDBRANCH   4  12
TORSDOF 2
ENDMDL
MODEL 6
REMARK VINA RESULT:      -8.6      8.496     10.242
REMARK  2 active torsions:
REMARK  status: ('A' for Active; 'I' for Inactive)
REMARK       I    between atoms: C6_11  and  N1_5 
REMARK    1  A    between atoms: C9_14  and  N1_5 
REMARK    2  A    between atoms: C2_7  and  C6_11 
ROOT
HETATM    1  O1  UNK     1      20.103  -7.684  35.646  1.00  0.00    -0.274 OA
HETATM    2  O3  UNK     1      20.213  -5.791  34.372  1.00  0.00    -0.259 OA
HETATM    3  C1  UNK     1      19.953  -7.496  38.065  1.00  0.00    -0.001 A 
HETATM    4  C2  UNK     1      20.069  -5.486  36.717  1.00  0.00     0.108 A 
HETATM    5  C3  UNK     1      20.013  -8.282  36.919  1.00  0.00     0.089 A 
HETATM    6  C4  UNK     1      19.984  -6.047  37.929  1.00  0.00     0.037 A 
HETATM    7  C5  UNK     1      19.865  -8.125  39.310  1.00  0.00     0.014 A 
HETATM    8  C7  UNK     1      20.134  -6.302  35.484  1.00  0.00     0.304 A 
HETATM    9  C8  UNK     1      19.989  -9.673  36.981  1.00  0.00     0.038 A 
HETATM   10  C10 UNK     1      19.839  -9.520  39.388  1.00  0.00     0.001 A 
HETATM   11  C11 UNK     1      19.901 -10.292  38.226  1.00  0.00     0.003 A 
ENDROOT
BRANCH   4  12
HETATM   12  C6  UNK     1      20.093  -4.019  36.682  1.00  0.00     0.262 C 
HETATM   13  O2  UNK     1      21.172  -3.433  36.605  1.00  0.00    -0.267 OA
HETATM   14  N1  UNK     1      18.816  -3.479  36.745  1.00  0.00    -0.323 N 
HETATM   15  H4  UNK     1      18.020  -4.105  36.828  1.00  0.00     0.169 HD
BRANCH  14  16
HETATM   16  C9  UNK     1      18.496  -2.117  36.732  1.00  0.00     0.036 A 
HETATM   17  C12 UNK     1      18.535  -1.406  35.535  1.00  0.00     0.048 A 
HETATM   18  C14 UNK     1      18.216  -0.048  35.522  1.00  0.00     0.013 A 
HETATM   19 Br1  UNK     1      18.268   0.920  33.899  1.00  0.00    -0.051 Br
HETATM   20  C16 UNK     1      17.857   0.595  36.707  1.00  0.00     0.019 A 
HETATM   21  C15 UNK     1      17.819  -0.120  37.904  1.00  0.00     0.004 A 
HETATM   22  C13 UNK     1      18.138  -1.477  37.917  1.00  0.00     0.029 A 
ENDBRANCH  14  16
ENDBRANCH   4  12
TORSDOF 2
ENDMDL
MODEL 7
REMARK VINA RESULT:      -8.5      3.014      7.750
REMARK  2 active torsions:
REMARK  status: ('A' for Active; 'I' for Inactive)
REMARK       I    between atoms: C6_11  and  N1_5 
REMARK    1  A    between atoms: C9_14  and  N1_5 
REMARK    2  A    between atoms: C2_7  and  C6_11 
ROOT
HETATM    1  O1  UNK     1      16.913   7.813  32.867  1.00  0.00    -0.274 OA
HETATM    2  O3  UNK     1      15.814   6.008  32.001  1.00  0.00    -0.259 OA
HETATM    3  C1  UNK     1      19.233   7.590  33.556  1.00  0.00    -0.001 A 
HETATM    4  C2  UNK     1      18.071   5.672  32.637  1.00  0.00     0.108 A 
HETATM    5  C3  UNK     1      18.091   8.369  33.405  1.00  0.00     0.089 A 
HETATM    6  C4  UNK     1      19.193   6.193  33.148  1.00  0.00     0.037 A 
HETATM    7  C5  UNK     1      20.383   8.175  34.093  1.00  0.00     0.014 A 
HETATM    8  C7  UNK     1      16.844   6.482  32.468  1.00  0.00     0.304 A 
HETATM    9  C8  UNK     1      18.063   9.711  33.776  1.00  0.00     0.038 A 
HETATM   10  C10 UNK     1      20.371   9.521  34.470  1.00  0.00     0.001 A 
HETATM   11  C11 UNK     1      19.214  10.287  34.312  1.00  0.00     0.003 A 
ENDROOT
BRANCH   4  12
HETATM   12  C6  UNK     1      18.129   4.256  32.256  1.00  0.00     0.262 C 
HETATM   13  O2  UNK     1      17.911   3.392  33.103  1.00  0.00    -0.267 OA
HETATM   14  N1  UNK     1      18.439   4.095  30.913  1.00  0.00    -0.323 N 
HETATM   15  H4  UNK     1      18.612   4.919  30.345  1.00  0.00     0.169 HD
BRANCH  14  16
HETATM   16  C9  UNK     1      18.568   2.876  30.238  1.00  0.00     0.036 A 
HETATM   17  C12 UNK     1      19.347   1.859  30.784  1.00  0.00     0.048 A 
HETATM   18  C14 UNK     1      19.476   0.644  30.111  1.00  0.00     0.013 A 
HETATM   19 Br1  UNK     1      20.532  -0.738  30.849  1.00  0.00    -0.051 Br
HETATM   20  C16 UNK     1      18.823   0.449  28.893  1.00  0.00     0.019 A 
HETATM   21  C15 UNK     1      18.044   1.470  28.349  1.00  0.00     0.004 A 
HETATM   22  C13 UNK     1      17.916   2.684  29.022  1.00  0.00     0.029 A 
ENDBRANCH  14  16
ENDBRANCH   4  12
TORSDOF 2
ENDMDL
MODEL 8
REMARK VINA RESULT:      -8.5      3.140      7.880
REMARK  2 active torsions:
REMARK  status: ('A' for Active; 'I' for Inactive)
REMARK       I    between atoms: C6_11  and  N1_5 
REMARK    1  A    between atoms: C9_14  and  N1_5 
REMARK    2  A    between atoms: C2_7  and  C6_11 
ROOT
HETATM    1  O1  UNK     1      18.637   7.452  33.821  1.00  0.00    -0.274 OA
HETATM    2  O3  UNK     1      20.438   6.319  32.989  1.00  0.00    -0.259 OA
HETATM    3  C1  UNK     1      16.435   7.076  32.862  1.00  0.00    -0.001 A 
HETATM    4  C2  UNK     1      18.343   5.872  31.978  1.00  0.00     0.108 A 
HETATM    5  C3  UNK     1      17.254   7.720  33.784  1.00  0.00     0.089 A 
HETATM    6  C4  UNK     1      17.029   6.122  31.938  1.00  0.00     0.037 A 
HETATM    7  C5  UNK     1      15.069   7.367  32.856  1.00  0.00     0.014 A 
HETATM    8  C7  UNK     1      19.234   6.545  32.950  1.00  0.00     0.304 A 
HETATM    9  C8  UNK     1      16.749   8.643  34.696  1.00  0.00     0.038 A 
HETATM   10  C10 UNK     1      14.546   8.292  33.765  1.00  0.00     0.001 A 
HETATM   11  C11 UNK     1      15.385   8.928  34.683  1.00  0.00     0.003 A 
ENDROOT
BRANCH   4  12
HETATM   12  C6  UNK     1      18.847   4.895  31.006  1.00  0.00     0.262 C 
HETATM   13  O2  UNK     1      19.697   5.240  30.187  1.00  0.00    -0.267 OA
HETATM   14  N1  UNK     1      18.254   3.651  31.167  1.00  0.00    -0.323 N 
HETATM   15  H4  UNK     1      17.545   3.533  31.886  1.00  0.00     0.169 HD
BRANCH  14  16
HETATM   16  C9  UNK     1      18.515   2.509  30.404  1.00  0.00     0.036 A 
HETATM   17  C12 UNK     1      19.272   1.471  30.943  1.00  0.00     0.048 A 
HETATM   18  C14 UNK     1      19.532   0.332  30.181  1.00  0.00     0.013 A 
HETATM   19 Br1  UNK     1      20.559  -1.078  30.910  1.00  0.00    -0.051 Br
HETATM   20  C16 UNK     1      19.034   0.233  28.882  1.00  0.00     0.019 A 
HETATM   21  C15 UNK     1      18.277   1.273  28.344  1.00  0.00     0.004 A 
HETATM   22  C13 UNK     1      18.017   2.412  29.106  1.00  0.00     0.029 A 
ENDBRANCH  14  16
ENDBRANCH   4  12
TORSDOF 2
ENDMDL
MODEL 9
REMARK VINA RESULT:      -8.3      4.776      7.249
REMARK  2 active torsions:
REMARK  status: ('A' for Active; 'I' for Inactive)
REMARK       I    between atoms: C6_11  and  N1_5 
REMARK    1  A    between atoms: C9_14  and  N1_5 
REMARK    2  A    between atoms: C2_7  and  C6_11 
ROOT
HETATM    1  O1  UNK     1      19.023   2.529  30.679  1.00  0.00    -0.274 OA
HETATM    2  O3  UNK     1      18.797   0.370  31.390  1.00  0.00    -0.259 OA
HETATM    3  C1  UNK     1      18.357   4.352  32.143  1.00  0.00    -0.001 A 
HETATM    4  C2  UNK     1      18.118   2.064  32.902  1.00  0.00     0.108 A 
HETATM    5  C3  UNK     1      18.874   3.908  30.930  1.00  0.00     0.089 A 
HETATM    6  C4  UNK     1      17.974   3.371  33.147  1.00  0.00     0.037 A 
HETATM    7  C5  UNK     1      18.225   5.726  32.357  1.00  0.00     0.014 A 
HETATM    8  C7  UNK     1      18.665   1.567  31.619  1.00  0.00     0.304 A 
HETATM    9  C8  UNK     1      19.259   4.794  29.928  1.00  0.00     0.038 A 
HETATM   10  C10 UNK     1      18.607   6.629  31.360  1.00  0.00     0.001 A 
HETATM   11  C11 UNK     1      19.123   6.164  30.149  1.00  0.00     0.003 A 
ENDROOT
BRANCH   4  12
HETATM   12  C6  UNK     1      17.703   1.153  33.975  1.00  0.00     0.262 C 
HETATM   13  O2  UNK     1      16.508   0.918  34.142  1.00  0.00    -0.267 OA
HETATM   14  N1  UNK     1      18.790   0.661  34.685  1.00  0.00    -0.323 N 
HETATM   15  H4  UNK     1      19.724   0.973  34.433  1.00  0.00     0.169 HD
BRANCH  14  16
HETATM   16  C9  UNK     1      18.736  -0.226  35.765  1.00  0.00     0.036 A 
HETATM   17  C12 UNK     1      19.334  -1.480  35.663  1.00  0.00     0.048 A 
HETATM   18  C14 UNK     1      19.279  -2.365  36.740  1.00  0.00     0.013 A 
HETATM   19 Br1  UNK     1      20.089  -4.068  36.606  1.00  0.00    -0.051 Br
HETATM   20  C16 UNK     1      18.627  -1.994  37.917  1.00  0.00     0.019 A 
HETATM   21  C15 UNK     1      18.030  -0.737  38.015  1.00  0.00     0.004 A 
HETATM   22  C13 UNK     1      18.084   0.148  36.938  1.00  0.00     0.029 A 
ENDBRANCH  14  16
ENDBRANCH   4  12
TORSDOF 2
ENDMDL
MODEL 10
REMARK VINA RESULT:      -8.1     14.520     16.030
REMARK  2 active torsions:
REMARK  status: ('A' for Active; 'I' for Inactive)
REMARK       I    between atoms: C6_11  and  N1_5 
REMARK    1  A    between atoms: C9_14  and  N1_5 
REMARK    2  A    between atoms: C2_7  and  C6_11 
ROOT
HETATM    1  O1  UNK     1      27.975  -4.746  38.710  1.00  0.00    -0.274 OA
HETATM    2  O3  UNK     1      25.725  -5.065  38.939  1.00  0.00    -0.259 OA
HETATM    3  C1  UNK     1      29.451  -6.671  38.559  1.00  0.00    -0.001 A 
HETATM    4  C2  UNK     1      27.065  -7.014  38.801  1.00  0.00     0.108 A 
HETATM    5  C3  UNK     1      29.267  -5.293  38.578  1.00  0.00     0.089 A 
HETATM    6  C4  UNK     1      28.290  -7.539  38.676  1.00  0.00     0.037 A 
HETATM    7  C5  UNK     1      30.747  -7.176  38.427  1.00  0.00     0.014 A 
HETATM    8  C7  UNK     1      26.844  -5.550  38.824  1.00  0.00     0.304 A 
HETATM    9  C8  UNK     1      30.337  -4.407  38.471  1.00  0.00     0.038 A 
HETATM   10  C10 UNK     1      31.831  -6.300  38.318  1.00  0.00     0.001 A 
HETATM   11  C11 UNK     1      31.626  -4.919  38.340  1.00  0.00     0.003 A 
ENDROOT
BRANCH   4  12
HETATM   12  C6  UNK     1      25.957  -7.970  38.913  1.00  0.00     0.262 C 
HETATM   13  O2  UNK     1      26.171  -9.094  39.361  1.00  0.00    -0.267 OA
HETATM   14  N1  UNK     1      24.759  -7.427  38.468  1.00  0.00    -0.323 N 
HETATM   15  H4  UNK     1      24.754  -6.479  38.103  1.00  0.00     0.169 HD
BRANCH  14  16
HETATM   16  C9  UNK     1      23.520  -8.076  38.444  1.00  0.00     0.036 A 
HETATM   17  C12 UNK     1      23.119  -8.763  37.300  1.00  0.00     0.048 A 
HETATM   18  C14 UNK     1      21.883  -9.410  37.277  1.00  0.00     0.013 A 
HETATM   19 Br1  UNK     1      21.334 -10.343  35.727  1.00  0.00    -0.051 Br
HETATM   20  C16 UNK     1      21.052  -9.368  38.397  1.00  0.00     0.019 A 
HETATM   21  C15 UNK     1      21.457  -8.680  39.540  1.00  0.00     0.004 A 
HETATM   22  C13 UNK     1      22.693  -8.033  39.564  1.00  0.00     0.029 A 
ENDBRANCH  14  16
ENDBRANCH   4  12
TORSDOF 2
ENDMDL
