MODEL 1
REMARK VINA RESULT:      -9.3      0.000      0.000
REMARK  4 active torsions:
REMARK  status: ('A' for Active; 'I' for Inactive)
REMARK       I    between atoms: C10_17  and  N1_6 
REMARK    1  A    between atoms: C5_12  and  N1_6 
REMARK       I    between atoms: C8_15  and  N2_7 
REMARK    2  A    between atoms: C1_8  and  C3_10 
REMARK    3  A    between atoms: C2_9  and  C8_15 
REMARK    4  A    between atoms: C10_17  and  C9_16 
ROOT
HETATM    1  O3  UNK     1      21.287  -3.833  37.271  1.00  0.00    -0.267 OA
HETATM    2  N1  UNK     1      19.031  -3.733  36.587  1.00  0.00    -0.316 N 
HETATM    3  C10 UNK     1      20.221  -4.351  36.942  1.00  0.00     0.262 C 
HETATM    4  H3  UNK     1      18.231  -4.299  36.317  1.00  0.00     0.169 HD
ENDROOT
BRANCH   2   5
HETATM    5  C5  UNK     1      18.803  -2.354  36.532  1.00  0.00     0.093 A 
HETATM    6  C2  UNK     1      19.097  -1.451  35.561  1.00  0.00     0.072 A 
HETATM    7  C1  UNK     1      18.678  -0.141  35.933  1.00  0.00    -0.027 A 
HETATM    8  C4  UNK     1      18.086  -0.122  37.177  1.00  0.00    -0.012 A 
HETATM    9  S1  UNK     1      18.036  -1.678  37.889  1.00  0.00    -0.076 SA
HETATM   10  C7  UNK     1      17.521   1.027  37.920  1.00  0.00     0.057 C 
BRANCH   6  11
HETATM   11  C8  UNK     1      19.747  -1.801  34.322  1.00  0.00     0.252 C 
HETATM   12  O2  UNK     1      20.921  -2.210  34.261  1.00  0.00    -0.268 OA
HETATM   13  N2  UNK     1      18.998  -1.691  33.152  1.00  0.00    -0.366 N 
HETATM   14  H13 UNK     1      18.035  -1.371  33.156  1.00  0.00     0.159 HD
HETATM   15  H14 UNK     1      19.400  -1.930  32.252  1.00  0.00     0.159 HD
ENDBRANCH   6  11
BRANCH   7  16
HETATM   16  C3  UNK     1      18.857   1.063  35.083  1.00  0.00     0.036 C 
HETATM   17  C6  UNK     1      17.630   1.378  34.231  1.00  0.00     0.010 C 
ENDBRANCH   7  16
ENDBRANCH   2   5
BRANCH   3  18
HETATM   18  C9  UNK     1      20.114  -5.814  36.894  1.00  0.00     0.108 A 
HETATM   19  C12 UNK     1      19.995  -6.437  38.072  1.00  0.00     0.037 A 
HETATM   20  C11 UNK     1      19.883  -7.887  38.127  1.00  0.00    -0.001 A 
HETATM   21  C15 UNK     1      19.756  -8.579  39.334  1.00  0.00     0.014 A 
HETATM   22  C13 UNK     1      19.902  -8.609  36.938  1.00  0.00     0.089 A 
HETATM   23  C17 UNK     1      19.651  -9.973  39.333  1.00  0.00     0.001 A 
HETATM   24  C18 UNK     1      19.674 -10.681  38.129  1.00  0.00     0.003 A 
HETATM   25  C16 UNK     1      19.800  -9.999  36.921  1.00  0.00     0.038 A 
HETATM   26  O1  UNK     1      20.028  -7.947  35.701  1.00  0.00    -0.274 OA
HETATM   27  C14 UNK     1      20.137  -6.562  35.616  1.00  0.00     0.304 A 
HETATM   28  O4  UNK     1      20.247  -5.995  34.535  1.00  0.00    -0.259 OA
ENDBRANCH   3  18
TORSDOF 4
ENDMDL
MODEL 2
REMARK VINA RESULT:      -9.2      1.806      7.704
REMARK  4 active torsions:
REMARK  status: ('A' for Active; 'I' for Inactive)
REMARK       I    between atoms: C10_17  and  N1_6 
REMARK    1  A    between atoms: C5_12  and  N1_6 
REMARK       I    between atoms: C8_15  and  N2_7 
REMARK    2  A    between atoms: C1_8  and  C3_10 
REMARK    3  A    between atoms: C2_9  and  C8_15 
REMARK    4  A    between atoms: C10_17  and  C9_16 
ROOT
HETATM    1  O3  UNK     1      21.416  -4.276  36.892  1.00  0.00    -0.267 OA
HETATM    2  N1  UNK     1      19.168  -4.973  37.068  1.00  0.00    -0.316 N 
HETATM    3  C10 UNK     1      20.204  -4.083  36.821  1.00  0.00     0.262 C 
HETATM    4  H3  UNK     1      18.205  -4.659  36.985  1.00  0.00     0.169 HD
ENDROOT
BRANCH   2   5
HETATM    5  C5  UNK     1      19.306  -6.308  37.460  1.00  0.00     0.093 A 
HETATM    6  C2  UNK     1      18.976  -7.455  36.811  1.00  0.00     0.072 A 
HETATM    7  C1  UNK     1      19.298  -8.600  37.596  1.00  0.00    -0.027 A 
HETATM    8  C4  UNK     1      19.859  -8.256  38.807  1.00  0.00    -0.012 A 
HETATM    9  S1  UNK     1      19.994  -6.559  38.993  1.00  0.00    -0.076 SA
HETATM   10  C7  UNK     1      20.329  -9.139  39.897  1.00  0.00     0.057 C 
BRANCH   6  11
HETATM   11  C8  UNK     1      18.380  -7.481  35.498  1.00  0.00     0.252 C 
HETATM   12  O2  UNK     1      19.035  -7.331  34.451  1.00  0.00    -0.268 OA
HETATM   13  N2  UNK     1      17.008  -7.709  35.422  1.00  0.00    -0.366 N 
HETATM   14  H13 UNK     1      16.437  -7.844  36.250  1.00  0.00     0.159 HD
HETATM   15  H14 UNK     1      16.534  -7.745  34.525  1.00  0.00     0.159 HD
ENDBRANCH   6  11
BRANCH   7  16
HETATM   16  C3  UNK     1      19.061  -9.999  37.162  1.00  0.00     0.036 C 
HETATM   17  C6  UNK     1      20.339 -10.714  36.727  1.00  0.00     0.010 C 
ENDBRANCH   7  16
ENDBRANCH   2   5
BRANCH   3  18
HETATM   18  C9  UNK     1      19.705  -2.759  36.427  1.00  0.00     0.108 A 
HETATM   19  C12 UNK     1      19.013  -2.088  37.355  1.00  0.00     0.037 A 
HETATM   20  C11 UNK     1      18.477  -0.768  37.059  1.00  0.00    -0.001 A 
HETATM   21  C15 UNK     1      17.749  -0.032  37.997  1.00  0.00     0.014 A 
HETATM   22  C13 UNK     1      18.697  -0.220  35.799  1.00  0.00     0.089 A 
HETATM   23  C17 UNK     1      17.256   1.232  37.663  1.00  0.00     0.001 A 
HETATM   24  C18 UNK     1      17.486   1.766  36.392  1.00  0.00     0.003 A 
HETATM   25  C16 UNK     1      18.210   1.038  35.451  1.00  0.00     0.038 A 
HETATM   26  O1  UNK     1      19.426  -0.932  34.826  1.00  0.00    -0.274 OA
HETATM   27  C14 UNK     1      19.951  -2.196  35.080  1.00  0.00     0.304 A 
HETATM   28  O4  UNK     1      20.583  -2.808  34.227  1.00  0.00    -0.259 OA
ENDBRANCH   3  18
TORSDOF 4
ENDMDL
MODEL 3
REMARK VINA RESULT:      -9.1      8.384     10.485
REMARK  4 active torsions:
REMARK  status: ('A' for Active; 'I' for Inactive)
REMARK       I    between atoms: C10_17  and  N1_6 
REMARK    1  A    between atoms: C5_12  and  N1_6 
REMARK       I    between atoms: C8_15  and  N2_7 
REMARK    2  A    between atoms: C1_8  and  C3_10 
REMARK    3  A    between atoms: C2_9  and  C8_15 
REMARK    4  A    between atoms: C10_17  and  C9_16 
ROOT
HETATM    1  O3  UNK     1      17.572   3.712  32.858  1.00  0.00    -0.267 OA
HETATM    2  N1  UNK     1      19.086   5.075  31.665  1.00  0.00    -0.316 N 
HETATM    3  C10 UNK     1      18.386   3.912  31.957  1.00  0.00     0.262 C 
HETATM    4  H3  UNK     1      19.746   5.082  30.892  1.00  0.00     0.169 HD
ENDROOT
BRANCH   2   5
HETATM    5  C5  UNK     1      19.000   6.285  32.360  1.00  0.00     0.093 A 
HETATM    6  C2  UNK     1      17.995   7.196  32.420  1.00  0.00     0.072 A 
HETATM    7  C1  UNK     1      18.345   8.292  33.262  1.00  0.00    -0.027 A 
HETATM    8  C4  UNK     1      19.607   8.150  33.798  1.00  0.00    -0.012 A 
HETATM    9  S1  UNK     1      20.363   6.702  33.286  1.00  0.00    -0.076 SA
HETATM   10  C7  UNK     1      20.336   9.058  34.712  1.00  0.00     0.057 C 
BRANCH   6  11
HETATM   11  C8  UNK     1      16.745   7.048  31.716  1.00  0.00     0.252 C 
HETATM   12  O2  UNK     1      15.785   6.397  32.165  1.00  0.00    -0.268 OA
HETATM   13  N2  UNK     1      16.622   7.693  30.487  1.00  0.00    -0.366 N 
HETATM   14  H13 UNK     1      17.377   8.241  30.088  1.00  0.00     0.159 HD
HETATM   15  H14 UNK     1      15.764   7.631  29.949  1.00  0.00     0.159 HD
ENDBRANCH   6  11
BRANCH   7  16
HETATM   16  C3  UNK     1      17.457   9.450  33.533  1.00  0.00     0.036 C 
HETATM   17  C6  UNK     1      16.439   9.175  34.637  1.00  0.00     0.010 C 
ENDBRANCH   7  16
ENDBRANCH   2   5
BRANCH   3  18
HETATM   18  C9  UNK     1      18.714   2.827  31.026  1.00  0.00     0.108 A 
HETATM   19  C12 UNK     1      19.103   1.672  31.577  1.00  0.00     0.037 A 
HETATM   20  C11 UNK     1      19.450   0.537  30.735  1.00  0.00    -0.001 A 
HETATM   21  C15 UNK     1      19.860  -0.688  31.267  1.00  0.00     0.014 A 
HETATM   22  C13 UNK     1      19.371   0.676  29.353  1.00  0.00     0.089 A 
HETATM   23  C17 UNK     1      20.182  -1.748  30.415  1.00  0.00     0.001 A 
HETATM   24  C18 UNK     1      20.098  -1.590  29.030  1.00  0.00     0.003 A 
HETATM   25  C16 UNK     1      19.690  -0.371  28.490  1.00  0.00     0.038 A 
HETATM   26  O1  UNK     1      18.961   1.895  28.778  1.00  0.00    -0.274 OA
HETATM   27  C14 UNK     1      18.622   2.998  29.558  1.00  0.00     0.304 A 
HETATM   28  O4  UNK     1      18.268   4.055  29.048  1.00  0.00    -0.259 OA
ENDBRANCH   3  18
TORSDOF 4
ENDMDL
MODEL 4
REMARK VINA RESULT:      -8.9     18.684     20.967
REMARK  4 active torsions:
REMARK  status: ('A' for Active; 'I' for Inactive)
REMARK       I    between atoms: C10_17  and  N1_6 
REMARK    1  A    between atoms: C5_12  and  N1_6 
REMARK       I    between atoms: C8_15  and  N2_7 
REMARK    2  A    between atoms: C1_8  and  C3_10 
REMARK    3  A    between atoms: C2_9  and  C8_15 
REMARK    4  A    between atoms: C10_17  and  C9_16 
ROOT
HETATM    1  O3  UNK     1      16.919  -1.750  16.989  1.00  0.00    -0.267 OA
HETATM    2  N1  UNK     1      19.103  -0.933  16.631  1.00  0.00    -0.316 N 
HETATM    3  C10 UNK     1      17.999  -1.741  16.401  1.00  0.00     0.262 C 
HETATM    4  H3  UNK     1      19.942  -1.056  16.069  1.00  0.00     0.169 HD
ENDROOT
BRANCH   2   5
HETATM    5  C5  UNK     1      19.208   0.061  17.609  1.00  0.00     0.093 A 
HETATM    6  C2  UNK     1      19.354   1.406  17.486  1.00  0.00     0.072 A 
HETATM    7  C1  UNK     1      19.417   2.034  18.764  1.00  0.00    -0.027 A 
HETATM    8  C4  UNK     1      19.315   1.124  19.794  1.00  0.00    -0.012 A 
HETATM    9  S1  UNK     1      19.145  -0.480  19.219  1.00  0.00    -0.076 SA
HETATM   10  C7  UNK     1      19.336   1.367  21.254  1.00  0.00     0.057 C 
BRANCH   6  11
HETATM   11  C8  UNK     1      19.429   2.084  16.216  1.00  0.00     0.252 C 
HETATM   12  O2  UNK     1      19.926   1.567  15.198  1.00  0.00    -0.268 OA
HETATM   13  N2  UNK     1      18.894   3.368  16.142  1.00  0.00    -0.366 N 
HETATM   14  H13 UNK     1      18.473   3.823  16.944  1.00  0.00     0.159 HD
HETATM   15  H14 UNK     1      18.912   3.891  15.273  1.00  0.00     0.159 HD
ENDBRANCH   6  11
BRANCH   7  16
HETATM   16  C3  UNK     1      19.572   3.497  18.965  1.00  0.00     0.036 C 
HETATM   17  C6  UNK     1      21.007   3.978  18.763  1.00  0.00     0.010 C 
ENDBRANCH   7  16
ENDBRANCH   2   5
BRANCH   3  18
HETATM   18  C9  UNK     1      18.228  -2.679  15.295  1.00  0.00     0.108 A 
HETATM   19  C12 UNK     1      17.946  -3.963  15.542  1.00  0.00     0.037 A 
HETATM   20  C11 UNK     1      18.140  -4.969  14.508  1.00  0.00    -0.001 A 
HETATM   21  C15 UNK     1      17.859  -6.320  14.721  1.00  0.00     0.014 A 
HETATM   22  C13 UNK     1      18.624  -4.571  13.266  1.00  0.00     0.089 A 
HETATM   23  C17 UNK     1      18.063  -7.247  13.695  1.00  0.00     0.001 A 
HETATM   24  C18 UNK     1      18.550  -6.829  12.454  1.00  0.00     0.003 A 
HETATM   25  C16 UNK     1      18.834  -5.483  12.233  1.00  0.00     0.038 A 
HETATM   26  O1  UNK     1      18.920  -3.217  13.013  1.00  0.00    -0.274 OA
HETATM   27  C14 UNK     1      18.743  -2.233  13.981  1.00  0.00     0.304 A 
HETATM   28  O4  UNK     1      19.005  -1.058  13.752  1.00  0.00    -0.259 OA
ENDBRANCH   3  18
TORSDOF 4
ENDMDL
MODEL 5
REMARK VINA RESULT:      -8.7      2.223      7.962
REMARK  4 active torsions:
REMARK  status: ('A' for Active; 'I' for Inactive)
REMARK       I    between atoms: C10_17  and  N1_6 
REMARK    1  A    between atoms: C5_12  and  N1_6 
REMARK       I    between atoms: C8_15  and  N2_7 
REMARK    2  A    between atoms: C1_8  and  C3_10 
REMARK    3  A    between atoms: C2_9  and  C8_15 
REMARK    4  A    between atoms: C10_17  and  C9_16 
ROOT
HETATM    1  O3  UNK     1      21.436  -4.394  37.197  1.00  0.00    -0.267 OA
HETATM    2  N1  UNK     1      19.899  -5.524  35.807  1.00  0.00    -0.316 N 
HETATM    3  C10 UNK     1      20.490  -4.423  36.411  1.00  0.00     0.262 C 
HETATM    4  H3  UNK     1      19.103  -5.391  35.188  1.00  0.00     0.169 HD
ENDROOT
BRANCH   2   5
HETATM    5  C5  UNK     1      20.274  -6.860  35.982  1.00  0.00     0.093 A 
HETATM    6  C2  UNK     1      20.222  -7.651  37.084  1.00  0.00     0.072 A 
HETATM    7  C1  UNK     1      20.713  -8.959  36.800  1.00  0.00    -0.027 A 
HETATM    8  C4  UNK     1      21.113  -9.088  35.488  1.00  0.00    -0.012 A 
HETATM    9  S1  UNK     1      20.897  -7.637  34.605  1.00  0.00    -0.076 SA
HETATM   10  C7  UNK     1      21.675 -10.272  34.800  1.00  0.00     0.057 C 
BRANCH   6  11
HETATM   11  C8  UNK     1      19.728  -7.202  38.362  1.00  0.00     0.252 C 
HETATM   12  O2  UNK     1      18.547  -7.352  38.725  1.00  0.00    -0.268 OA
HETATM   13  N2  UNK     1      20.638  -6.596  39.224  1.00  0.00    -0.366 N 
HETATM   14  H13 UNK     1      21.612  -6.461  38.972  1.00  0.00     0.159 HD
HETATM   15  H14 UNK     1      20.351  -6.266  40.139  1.00  0.00     0.159 HD
ENDBRANCH   6  11
BRANCH   7  16
HETATM   16  C3  UNK     1      20.783 -10.056  37.798  1.00  0.00     0.036 C 
HETATM   17  C6  UNK     1      19.517 -10.908  37.838  1.00  0.00     0.010 C 
ENDBRANCH   7  16
ENDBRANCH   2   5
BRANCH   3  18
HETATM   18  C9  UNK     1      19.848  -3.166  36.007  1.00  0.00     0.108 A 
HETATM   19  C12 UNK     1      19.073  -2.577  36.925  1.00  0.00     0.037 A 
HETATM   20  C11 UNK     1      18.393  -1.327  36.618  1.00  0.00    -0.001 A 
HETATM   21  C15 UNK     1      17.576  -0.676  37.546  1.00  0.00     0.014 A 
HETATM   22  C13 UNK     1      18.562  -0.762  35.358  1.00  0.00     0.089 A 
HETATM   23  C17 UNK     1      16.945   0.522  37.202  1.00  0.00     0.001 A 
HETATM   24  C18 UNK     1      17.125   1.075  35.932  1.00  0.00     0.003 A 
HETATM   25  C16 UNK     1      17.938   0.432  35.000  1.00  0.00     0.038 A 
HETATM   26  O1  UNK     1      19.378  -1.388  34.396  1.00  0.00    -0.274 OA
HETATM   27  C14 UNK     1      20.041  -2.583  34.661  1.00  0.00     0.304 A 
HETATM   28  O4  UNK     1      20.748  -3.121  33.816  1.00  0.00    -0.259 OA
ENDBRANCH   3  18
TORSDOF 4
ENDMDL
MODEL 6
REMARK VINA RESULT:      -8.7      2.547      7.783
REMARK  4 active torsions:
REMARK  status: ('A' for Active; 'I' for Inactive)
REMARK       I    between atoms: C10_17  and  N1_6 
REMARK    1  A    between atoms: C5_12  and  N1_6 
REMARK       I    between atoms: C8_15  and  N2_7 
REMARK    2  A    between atoms: C1_8  and  C3_10 
REMARK    3  A    between atoms: C2_9  and  C8_15 
REMARK    4  A    between atoms: C10_17  and  C9_16 
ROOT
HETATM    1  O3  UNK     1      20.139  -2.604  37.501  1.00  0.00    -0.267 OA
HETATM    2  N1  UNK     1      19.899  -4.508  36.128  1.00  0.00    -0.316 N 
HETATM    3  C10 UNK     1      19.937  -3.151  36.419  1.00  0.00     0.262 C 
HETATM    4  H3  UNK     1      19.699  -4.813  35.179  1.00  0.00     0.169 HD
ENDROOT
BRANCH   2   5
HETATM    5  C5  UNK     1      20.088  -5.551  37.039  1.00  0.00     0.093 A 
HETATM    6  C2  UNK     1      19.294  -6.611  37.342  1.00  0.00     0.072 A 
HETATM    7  C1  UNK     1      19.892  -7.432  38.341  1.00  0.00    -0.027 A 
HETATM    8  C4  UNK     1      21.117  -6.947  38.744  1.00  0.00    -0.012 A 
HETATM    9  S1  UNK     1      21.540  -5.507  37.920  1.00  0.00    -0.076 SA
HETATM   10  C7  UNK     1      22.050  -7.501  39.751  1.00  0.00     0.057 C 
BRANCH   6  11
HETATM   11  C8  UNK     1      18.016  -6.850  36.716  1.00  0.00     0.252 C 
HETATM   12  O2  UNK     1      17.038  -6.094  36.858  1.00  0.00    -0.268 OA
HETATM   13  N2  UNK     1      17.903  -7.974  35.901  1.00  0.00    -0.366 N 
HETATM   14  H13 UNK     1      18.677  -8.612  35.751  1.00  0.00     0.159 HD
HETATM   15  H14 UNK     1      17.031  -8.189  35.429  1.00  0.00     0.159 HD
ENDBRANCH   6  11
BRANCH   7  16
HETATM   16  C3  UNK     1      19.272  -8.667  38.883  1.00  0.00     0.036 C 
HETATM   17  C6  UNK     1      19.809  -9.940  38.233  1.00  0.00     0.010 C 
ENDBRANCH   7  16
ENDBRANCH   2   5
BRANCH   3  18
HETATM   18  C9  UNK     1      19.696  -2.329  35.227  1.00  0.00     0.108 A 
HETATM   19  C12 UNK     1      20.309  -2.722  34.104  1.00  0.00     0.037 A 
HETATM   20  C11 UNK     1      20.133  -1.970  32.871  1.00  0.00    -0.001 A 
HETATM   21  C15 UNK     1      20.752  -2.343  31.675  1.00  0.00     0.014 A 
HETATM   22  C13 UNK     1      19.320  -0.841  32.881  1.00  0.00     0.089 A 
HETATM   23  C17 UNK     1      20.550  -1.588  30.518  1.00  0.00     0.001 A 
HETATM   24  C18 UNK     1      19.731  -0.457  30.547  1.00  0.00     0.003 A 
HETATM   25  C16 UNK     1      19.110  -0.077  31.735  1.00  0.00     0.038 A 
HETATM   26  O1  UNK     1      18.678  -0.433  34.067  1.00  0.00    -0.274 OA
HETATM   27  C14 UNK     1      18.827  -1.131  35.262  1.00  0.00     0.304 A 
HETATM   28  O4  UNK     1      18.265  -0.767  36.288  1.00  0.00    -0.259 OA
ENDBRANCH   3  18
TORSDOF 4
ENDMDL
MODEL 7
REMARK VINA RESULT:      -8.7      8.207     10.215
REMARK  4 active torsions:
REMARK  status: ('A' for Active; 'I' for Inactive)
REMARK       I    between atoms: C10_17  and  N1_6 
REMARK    1  A    between atoms: C5_12  and  N1_6 
REMARK       I    between atoms: C8_15  and  N2_7 
REMARK    2  A    between atoms: C1_8  and  C3_10 
REMARK    3  A    between atoms: C2_9  and  C8_15 
REMARK    4  A    between atoms: C10_17  and  C9_16 
ROOT
HETATM    1  O3  UNK     1      17.790   3.280  33.172  1.00  0.00    -0.267 OA
HETATM    2  N1  UNK     1      18.184   4.857  31.461  1.00  0.00    -0.316 N 
HETATM    3  C10 UNK     1      18.144   3.595  32.037  1.00  0.00     0.262 C 
HETATM    4  H3  UNK     1      18.522   4.964  30.508  1.00  0.00     0.169 HD
ENDROOT
BRANCH   2   5
HETATM    5  C5  UNK     1      17.821   6.057  32.080  1.00  0.00     0.093 A 
HETATM    6  C2  UNK     1      18.453   6.777  33.043  1.00  0.00     0.072 A 
HETATM    7  C1  UNK     1      17.712   7.948  33.377  1.00  0.00    -0.027 A 
HETATM    8  C4  UNK     1      16.550   8.052  32.644  1.00  0.00    -0.012 A 
HETATM    9  S1  UNK     1      16.356   6.742  31.559  1.00  0.00    -0.076 SA
HETATM   10  C7  UNK     1      15.514   9.108  32.689  1.00  0.00     0.057 C 
BRANCH   6  11
HETATM   11  C8  UNK     1      19.710   6.386  33.631  1.00  0.00     0.252 C 
HETATM   12  O2  UNK     1      20.808   6.829  33.247  1.00  0.00    -0.268 OA
HETATM   13  N2  UNK     1      19.668   5.486  34.693  1.00  0.00    -0.366 N 
HETATM   14  H13 UNK     1      18.794   5.106  35.044  1.00  0.00     0.159 HD
HETATM   15  H14 UNK     1      20.519   5.179  35.152  1.00  0.00     0.159 HD
ENDBRANCH   6  11
BRANCH   7  16
HETATM   16  C3  UNK     1      18.141   8.941  34.393  1.00  0.00     0.036 C 
HETATM   17  C6  UNK     1      18.895  10.125  33.790  1.00  0.00     0.010 C 
ENDBRANCH   7  16
ENDBRANCH   2   5
BRANCH   3  18
HETATM   18  C9  UNK     1      18.595   2.553  31.106  1.00  0.00     0.108 A 
HETATM   19  C12 UNK     1      18.986   1.398  31.655  1.00  0.00     0.037 A 
HETATM   20  C11 UNK     1      19.451   0.305  30.814  1.00  0.00    -0.001 A 
HETATM   21  C15 UNK     1      19.868  -0.918  31.345  1.00  0.00     0.014 A 
HETATM   22  C13 UNK     1      19.483   0.485  29.435  1.00  0.00     0.089 A 
HETATM   23  C17 UNK     1      20.306  -1.936  30.493  1.00  0.00     0.001 A 
HETATM   24  C18 UNK     1      20.332  -1.737  29.111  1.00  0.00     0.003 A 
HETATM   25  C16 UNK     1      19.918  -0.520  28.574  1.00  0.00     0.038 A 
HETATM   26  O1  UNK     1      19.071   1.705  28.863  1.00  0.00    -0.274 OA
HETATM   27  C14 UNK     1      18.620   2.767  29.641  1.00  0.00     0.304 A 
HETATM   28  O4  UNK     1      18.265   3.825  29.134  1.00  0.00    -0.259 OA
ENDBRANCH   3  18
TORSDOF 4
ENDMDL
MODEL 8
REMARK VINA RESULT:      -8.3     18.850     21.870
REMARK  4 active torsions:
REMARK  status: ('A' for Active; 'I' for Inactive)
REMARK       I    between atoms: C10_17  and  N1_6 
REMARK    1  A    between atoms: C5_12  and  N1_6 
REMARK       I    between atoms: C8_15  and  N2_7 
REMARK    2  A    between atoms: C1_8  and  C3_10 
REMARK    3  A    between atoms: C2_9  and  C8_15 
REMARK    4  A    between atoms: C10_17  and  C9_16 
ROOT
HETATM    1  O3  UNK     1      17.625  -2.183  16.013  1.00  0.00    -0.267 OA
HETATM    2  N1  UNK     1      19.731  -1.771  15.030  1.00  0.00    -0.316 N 
HETATM    3  C10 UNK     1      18.686  -1.568  15.922  1.00  0.00     0.262 C 
HETATM    4  H3  UNK     1      20.545  -1.163  15.064  1.00  0.00     0.169 HD
ENDROOT
BRANCH   2   5
HETATM    5  C5  UNK     1      19.781  -2.745  14.029  1.00  0.00     0.093 A 
HETATM    6  C2  UNK     1      20.288  -4.005  14.051  1.00  0.00     0.072 A 
HETATM    7  C1  UNK     1      20.120  -4.649  12.791  1.00  0.00    -0.027 A 
HETATM    8  C4  UNK     1      19.490  -3.835  11.875  1.00  0.00    -0.012 A 
HETATM    9  S1  UNK     1      19.104  -2.303  12.534  1.00  0.00    -0.076 SA
HETATM   10  C7  UNK     1      19.130  -4.124  10.468  1.00  0.00     0.057 C 
BRANCH   6  11
HETATM   11  C8  UNK     1      20.909  -4.591  15.214  1.00  0.00     0.252 C 
HETATM   12  O2  UNK     1      22.086  -4.361  15.545  1.00  0.00    -0.268 OA
HETATM   13  N2  UNK     1      20.128  -5.433  16.001  1.00  0.00    -0.366 N 
HETATM   14  H13 UNK     1      19.161  -5.642  15.773  1.00  0.00     0.159 HD
HETATM   15  H14 UNK     1      20.507  -5.869  16.835  1.00  0.00     0.159 HD
ENDBRANCH   6  11
BRANCH   7  16
HETATM   16  C3  UNK     1      20.568  -6.033  12.498  1.00  0.00     0.036 C 
HETATM   17  C6  UNK     1      19.486  -7.079  12.760  1.00  0.00     0.010 C 
ENDBRANCH   7  16
ENDBRANCH   2   5
BRANCH   3  18
HETATM   18  C9  UNK     1      18.960  -0.458  16.843  1.00  0.00     0.108 A 
HETATM   19  C12 UNK     1      18.964  -0.759  18.146  1.00  0.00     0.037 A 
HETATM   20  C11 UNK     1      19.225   0.274  19.137  1.00  0.00    -0.001 A 
HETATM   21  C15 UNK     1      19.240   0.005  20.508  1.00  0.00     0.014 A 
HETATM   22  C13 UNK     1      19.468   1.574  18.705  1.00  0.00     0.089 A 
HETATM   23  C17 UNK     1      19.496   1.033  21.419  1.00  0.00     0.001 A 
HETATM   24  C18 UNK     1      19.737   2.333  20.967  1.00  0.00     0.003 A 
HETATM   25  C16 UNK     1      19.724   2.609  19.602  1.00  0.00     0.038 A 
HETATM   26  O1  UNK     1      19.462   1.884  17.331  1.00  0.00    -0.274 OA
HETATM   27  C14 UNK     1      19.217   0.918  16.360  1.00  0.00     0.304 A 
HETATM   28  O4  UNK     1      19.212   1.198  15.167  1.00  0.00    -0.259 OA
ENDBRANCH   3  18
TORSDOF 4
ENDMDL
MODEL 9
REMARK VINA RESULT:      -8.3     19.230     22.183
REMARK  4 active torsions:
REMARK  status: ('A' for Active; 'I' for Inactive)
REMARK       I    between atoms: C10_17  and  N1_6 
REMARK    1  A    between atoms: C5_12  and  N1_6 
REMARK       I    between atoms: C8_15  and  N2_7 
REMARK    2  A    between atoms: C1_8  and  C3_10 
REMARK    3  A    between atoms: C2_9  and  C8_15 
REMARK    4  A    between atoms: C10_17  and  C9_16 
ROOT
HETATM    1  O3  UNK     1      17.681  -2.311  15.964  1.00  0.00    -0.267 OA
HETATM    2  N1  UNK     1      19.911  -2.069  15.229  1.00  0.00    -0.316 N 
HETATM    3  C10 UNK     1      18.777  -1.752  15.962  1.00  0.00     0.262 C 
HETATM    4  H3  UNK     1      20.746  -1.496  15.321  1.00  0.00     0.169 HD
ENDROOT
BRANCH   2   5
HETATM    5  C5  UNK     1      20.034  -3.122  14.316  1.00  0.00     0.093 A 
HETATM    6  C2  UNK     1      20.005  -3.117  12.958  1.00  0.00     0.072 A 
HETATM    7  C1  UNK     1      20.173  -4.432  12.436  1.00  0.00    -0.027 A 
HETATM    8  C4  UNK     1      20.320  -5.370  13.435  1.00  0.00    -0.012 A 
HETATM    9  S1  UNK     1      20.256  -4.664  14.993  1.00  0.00    -0.076 SA
HETATM   10  C7  UNK     1      20.516  -6.832  13.315  1.00  0.00     0.057 C 
BRANCH   6  11
HETATM   11  C8  UNK     1      19.829  -1.921  12.171  1.00  0.00     0.252 C 
HETATM   12  O2  UNK     1      18.760  -1.283  12.134  1.00  0.00    -0.268 OA
HETATM   13  N2  UNK     1      20.926  -1.463  11.446  1.00  0.00    -0.366 N 
HETATM   14  H13 UNK     1      21.818  -1.947  11.455  1.00  0.00     0.159 HD
HETATM   15  H14 UNK     1      20.864  -0.623  10.880  1.00  0.00     0.159 HD
ENDBRANCH   6  11
BRANCH   7  16
HETATM   16  C3  UNK     1      20.189  -4.757  10.987  1.00  0.00     0.036 C 
HETATM   17  C6  UNK     1      18.801  -5.068  10.431  1.00  0.00     0.010 C 
ENDBRANCH   7  16
ENDBRANCH   2   5
BRANCH   3  18
HETATM   18  C9  UNK     1      18.993  -0.585  16.827  1.00  0.00     0.108 A 
HETATM   19  C12 UNK     1      18.993  -0.818  18.144  1.00  0.00     0.037 A 
HETATM   20  C11 UNK     1      19.199   0.276  19.082  1.00  0.00    -0.001 A 
HETATM   21  C15 UNK     1      19.208   0.080  20.465  1.00  0.00     0.014 A 
HETATM   22  C13 UNK     1      19.392   1.561  18.585  1.00  0.00     0.089 A 
HETATM   23  C17 UNK     1      19.409   1.163  21.324  1.00  0.00     0.001 A 
HETATM   24  C18 UNK     1      19.601   2.447  20.807  1.00  0.00     0.003 A 
HETATM   25  C16 UNK     1      19.594   2.652  19.429  1.00  0.00     0.038 A 
HETATM   26  O1  UNK     1      19.390   1.799  17.197  1.00  0.00    -0.274 OA
HETATM   27  C14 UNK     1      19.197   0.773  16.275  1.00  0.00     0.304 A 
HETATM   28  O4  UNK     1      19.196   0.991  15.069  1.00  0.00    -0.259 OA
ENDBRANCH   3  18
TORSDOF 4
ENDMDL
MODEL 10
REMARK VINA RESULT:      -8.2      7.025     12.428
REMARK  4 active torsions:
REMARK  status: ('A' for Active; 'I' for Inactive)
REMARK       I    between atoms: C10_17  and  N1_6 
REMARK    1  A    between atoms: C5_12  and  N1_6 
REMARK       I    between atoms: C8_15  and  N2_7 
REMARK    2  A    between atoms: C1_8  and  C3_10 
REMARK    3  A    between atoms: C2_9  and  C8_15 
REMARK    4  A    between atoms: C10_17  and  C9_16 
ROOT
HETATM    1  O3  UNK     1      19.656   5.332  31.682  1.00  0.00    -0.267 OA
HETATM    2  N1  UNK     1      17.932   3.880  32.381  1.00  0.00    -0.316 N 
HETATM    3  C10 UNK     1      18.598   5.091  32.262  1.00  0.00     0.262 C 
HETATM    4  H3  UNK     1      17.067   3.832  32.914  1.00  0.00     0.169 HD
ENDROOT
BRANCH   2   5
HETATM    5  C5  UNK     1      18.347   2.655  31.850  1.00  0.00     0.093 A 
HETATM    6  C2  UNK     1      18.481   1.439  32.441  1.00  0.00     0.072 A 
HETATM    7  C1  UNK     1      18.938   0.462  31.508  1.00  0.00    -0.027 A 
HETATM    8  C4  UNK     1      19.128   0.996  30.252  1.00  0.00    -0.012 A 
HETATM    9  S1  UNK     1      18.756   2.667  30.201  1.00  0.00    -0.076 SA
HETATM   10  C7  UNK     1      19.590   0.324  29.017  1.00  0.00     0.057 C 
BRANCH   6  11
HETATM   11  C8  UNK     1      18.188   1.195  33.832  1.00  0.00     0.252 C 
HETATM   12  O2  UNK     1      19.037   1.308  34.735  1.00  0.00    -0.268 OA
HETATM   13  N2  UNK     1      16.882   0.840  34.159  1.00  0.00    -0.366 N 
HETATM   14  H13 UNK     1      16.157   0.745  33.456  1.00  0.00     0.159 HD
HETATM   15  H14 UNK     1      16.615   0.663  35.122  1.00  0.00     0.159 HD
ENDBRANCH   6  11
BRANCH   7  16
HETATM   16  C3  UNK     1      19.180  -0.962  31.847  1.00  0.00     0.036 C 
HETATM   17  C6  UNK     1      20.632  -1.386  31.640  1.00  0.00     0.010 C 
ENDBRANCH   7  16
ENDBRANCH   2   5
BRANCH   3  18
HETATM   18  C9  UNK     1      17.883   6.178  32.941  1.00  0.00     0.108 A 
HETATM   19  C12 UNK     1      16.665   6.470  32.471  1.00  0.00     0.037 A 
HETATM   20  C11 UNK     1      15.879   7.533  33.078  1.00  0.00    -0.001 A 
HETATM   21  C15 UNK     1      14.603   7.871  32.620  1.00  0.00     0.014 A 
HETATM   22  C13 UNK     1      16.416   8.238  34.151  1.00  0.00     0.089 A 
HETATM   23  C17 UNK     1      13.889   8.900  33.239  1.00  0.00     0.001 A 
HETATM   24  C18 UNK     1      14.444   9.597  34.314  1.00  0.00     0.003 A 
HETATM   25  C16 UNK     1      15.716   9.267  34.777  1.00  0.00     0.038 A 
HETATM   26  O1  UNK     1      17.699   7.926  34.641  1.00  0.00    -0.274 OA
HETATM   27  C14 UNK     1      18.475   6.915  34.082  1.00  0.00     0.304 A 
HETATM   28  O4  UNK     1      19.591   6.652  34.514  1.00  0.00    -0.259 OA
ENDBRANCH   3  18
TORSDOF 4
ENDMDL
