MODEL 1
REMARK VINA RESULT:      -7.9      0.000      0.000
REMARK  3 active torsions:
REMARK  status: ('A' for Active; 'I' for Inactive)
REMARK    1  A    between atoms: C1_8  and  N1_5 
REMARK       I    between atoms: C5_12  and  N1_5 
REMARK    2  A    between atoms: C1_8  and  C2_9 
REMARK    3  A    between atoms: C5_12  and  C6_13 
ROOT
HETATM    1 Br1  UNK     1      19.143   2.042  21.053  1.00  0.00    -0.051 Br
HETATM    2  O1  UNK     1      19.227   0.788  15.117  1.00  0.00    -0.274 OA
HETATM    3  O3  UNK     1      19.089  -0.719  13.405  1.00  0.00    -0.259 OA
HETATM    4  C6  UNK     1      18.869  -1.582  15.600  1.00  0.00     0.108 A 
HETATM    5  C9  UNK     1      19.017   0.018  17.414  1.00  0.00     0.000 A 
HETATM    6  C10 UNK     1      18.846  -1.338  16.916  1.00  0.00     0.037 A 
HETATM    7  C12 UNK     1      19.203   1.051  16.500  1.00  0.00     0.089 A 
HETATM    8  C13 UNK     1      19.067  -0.499  14.611  1.00  0.00     0.304 A 
HETATM    9  C14 UNK     1      18.998   0.319  18.778  1.00  0.00     0.033 A 
HETATM   10  C15 UNK     1      19.372   2.372  16.911  1.00  0.00     0.039 A 
HETATM   11  C16 UNK     1      19.167   1.639  19.204  1.00  0.00     0.011 A 
HETATM   12  C17 UNK     1      19.353   2.663  18.274  1.00  0.00     0.022 A 
ENDROOT
BRANCH   4  13
HETATM   13  C5  UNK     1      18.689  -2.982  15.197  1.00  0.00     0.259 C 
HETATM   14  O2  UNK     1      17.541  -3.386  14.979  1.00  0.00    -0.267 OA
HETATM   15  N1  UNK     1      19.836  -3.772  15.070  1.00  0.00    -0.348 N 
HETATM   16  C8  UNK     1      21.174  -3.249  15.338  1.00  0.00     0.153 C 
BRANCH  15  17
HETATM   17  C1  UNK     1      19.776  -5.169  14.662  1.00  0.00     0.167 C 
BRANCH  17  18
HETATM   18  C2  UNK     1      20.137  -5.349  13.216  1.00  0.00     0.003 A 
HETATM   19  C3  UNK     1      20.754  -6.420  12.657  1.00  0.00     0.035 A 
HETATM   20  N2  UNK     1      20.854  -6.114  11.331  1.00  0.00    -0.278 N 
HETATM   21  C7  UNK     1      21.254  -7.686  13.225  1.00  0.00     0.070 C 
HETATM   22  C11 UNK     1      21.437  -6.931  10.293  1.00  0.00     0.179 C 
HETATM   23  N3  UNK     1      20.340  -4.914  11.011  1.00  0.00    -0.184 NA
HETATM   24  C4  UNK     1      19.900  -4.449  12.183  1.00  0.00     0.149 A 
ENDBRANCH  17  18
ENDBRANCH  15  17
ENDBRANCH   4  13
TORSDOF 3
ENDMDL
MODEL 2
REMARK VINA RESULT:      -7.8     17.732     21.642
REMARK  3 active torsions:
REMARK  status: ('A' for Active; 'I' for Inactive)
REMARK    1  A    between atoms: C1_8  and  N1_5 
REMARK       I    between atoms: C5_12  and  N1_5 
REMARK    2  A    between atoms: C1_8  and  C2_9 
REMARK    3  A    between atoms: C5_12  and  C6_13 
ROOT
HETATM    1 Br1  UNK     1      15.775  15.105  36.096  1.00  0.00    -0.051 Br
HETATM    2  O1  UNK     1      14.267   9.367  34.829  1.00  0.00    -0.274 OA
HETATM    3  O3  UNK     1      14.754   7.354  33.862  1.00  0.00    -0.259 OA
HETATM    4  C6  UNK     1      16.379   9.062  33.636  1.00  0.00     0.108 A 
HETATM    5  C9  UNK     1      15.860  11.196  34.661  1.00  0.00     0.000 A 
HETATM    6  C10 UNK     1      16.741  10.324  33.899  1.00  0.00     0.037 A 
HETATM    7  C12 UNK     1      14.642  10.695  35.109  1.00  0.00     0.089 A 
HETATM    8  C13 UNK     1      15.089   8.509  34.102  1.00  0.00     0.304 A 
HETATM    9  C14 UNK     1      16.197  12.518  34.960  1.00  0.00     0.033 A 
HETATM   10  C15 UNK     1      13.753  11.477  35.844  1.00  0.00     0.039 A 
HETATM   11  C16 UNK     1      15.315  13.314  35.696  1.00  0.00     0.011 A 
HETATM   12  C17 UNK     1      14.097  12.796  36.137  1.00  0.00     0.022 A 
ENDROOT
BRANCH   4  13
HETATM   13  C5  UNK     1      17.334   8.263  32.860  1.00  0.00     0.259 C 
HETATM   14  O2  UNK     1      17.139   8.132  31.646  1.00  0.00    -0.267 OA
HETATM   15  N1  UNK     1      18.420   7.707  33.544  1.00  0.00    -0.348 N 
HETATM   16  C8  UNK     1      18.610   7.889  34.981  1.00  0.00     0.153 C 
BRANCH  15  17
HETATM   17  C1  UNK     1      19.436   6.908  32.870  1.00  0.00     0.167 C 
BRANCH  17  18
HETATM   18  C2  UNK     1      18.917   5.555  32.476  1.00  0.00     0.003 A 
HETATM   19  C3  UNK     1      18.961   4.993  31.243  1.00  0.00     0.035 A 
HETATM   20  N2  UNK     1      18.376   3.770  31.395  1.00  0.00    -0.278 N 
HETATM   21  C7  UNK     1      19.488   5.473  29.952  1.00  0.00     0.070 C 
HETATM   22  C11 UNK     1      18.174   2.771  30.371  1.00  0.00     0.179 C 
HETATM   23  N3  UNK     1      17.961   3.518  32.648  1.00  0.00    -0.184 NA
HETATM   24  C4  UNK     1      18.300   4.628  33.308  1.00  0.00     0.149 A 
ENDBRANCH  17  18
ENDBRANCH  15  17
ENDBRANCH   4  13
TORSDOF 3
ENDMDL
MODEL 3
REMARK VINA RESULT:      -7.6     12.079     13.678
REMARK  3 active torsions:
REMARK  status: ('A' for Active; 'I' for Inactive)
REMARK    1  A    between atoms: C1_8  and  N1_5 
REMARK       I    between atoms: C5_12  and  N1_5 
REMARK    2  A    between atoms: C1_8  and  C2_9 
REMARK    3  A    between atoms: C5_12  and  C6_13 
ROOT
HETATM    1 Br1  UNK     1      15.255  13.508  11.248  1.00  0.00    -0.051 Br
HETATM    2  O1  UNK     1      17.420   8.050   9.721  1.00  0.00    -0.274 OA
HETATM    3  O3  UNK     1      17.074   5.850   9.208  1.00  0.00    -0.259 OA
HETATM    4  C6  UNK     1      15.149   7.145   9.687  1.00  0.00     0.108 A 
HETATM    5  C9  UNK     1      15.519   9.477  10.232  1.00  0.00     0.000 A 
HETATM    6  C10 UNK     1      14.640   8.336  10.024  1.00  0.00     0.037 A 
HETATM    7  C12 UNK     1      16.891   9.306  10.074  1.00  0.00     0.089 A 
HETATM    8  C13 UNK     1      16.604   6.941   9.515  1.00  0.00     0.304 A 
HETATM    9  C14 UNK     1      15.032  10.739  10.583  1.00  0.00     0.033 A 
HETATM   10  C15 UNK     1      17.786  10.357  10.258  1.00  0.00     0.039 A 
HETATM   11  C16 UNK     1      15.919  11.802  10.771  1.00  0.00     0.011 A 
HETATM   12  C17 UNK     1      17.292  11.613  10.609  1.00  0.00     0.022 A 
ENDROOT
BRANCH   4  13
HETATM   13  C5  UNK     1      14.182   6.057   9.500  1.00  0.00     0.259 C 
HETATM   14  O2  UNK     1      13.967   5.294  10.450  1.00  0.00    -0.267 OA
HETATM   15  N1  UNK     1      13.549   5.958   8.257  1.00  0.00    -0.348 N 
HETATM   16  C8  UNK     1      13.835   6.883   7.163  1.00  0.00     0.153 C 
BRANCH  15  17
HETATM   17  C1  UNK     1      12.563   4.926   7.967  1.00  0.00     0.167 C 
BRANCH  17  18
HETATM   18  C2  UNK     1      11.166   5.380   8.280  1.00  0.00     0.003 A 
HETATM   19  C3  UNK     1      10.300   5.994   7.435  1.00  0.00     0.035 A 
HETATM   20  N2  UNK     1       9.173   6.197   8.176  1.00  0.00    -0.278 N 
HETATM   21  C7  UNK     1      10.415   6.406   6.023  1.00  0.00     0.070 C 
HETATM   22  C11 UNK     1       7.946   6.820   7.737  1.00  0.00     0.179 C 
HETATM   23  N3  UNK     1       9.267   5.752   9.440  1.00  0.00    -0.184 NA
HETATM   24  C4  UNK     1      10.503   5.248   9.494  1.00  0.00     0.149 A 
ENDBRANCH  17  18
ENDBRANCH  15  17
ENDBRANCH   4  13
TORSDOF 3
ENDMDL
MODEL 4
REMARK VINA RESULT:      -7.6     13.187     15.045
REMARK  3 active torsions:
REMARK  status: ('A' for Active; 'I' for Inactive)
REMARK    1  A    between atoms: C1_8  and  N1_5 
REMARK       I    between atoms: C5_12  and  N1_5 
REMARK    2  A    between atoms: C1_8  and  C2_9 
REMARK    3  A    between atoms: C5_12  and  C6_13 
ROOT
HETATM    1 Br1  UNK     1      16.955  11.850   8.155  1.00  0.00    -0.051 Br
HETATM    2  O1  UNK     1      14.196   6.963  10.460  1.00  0.00    -0.274 OA
HETATM    3  O3  UNK     1      12.465   5.470  10.447  1.00  0.00    -0.259 OA
HETATM    4  C6  UNK     1      12.405   7.180   8.809  1.00  0.00     0.108 A 
HETATM    5  C9  UNK     1      14.240   8.763   8.826  1.00  0.00     0.000 A 
HETATM    6  C10 UNK     1      12.989   8.262   8.278  1.00  0.00     0.037 A 
HETATM    7  C12 UNK     1      14.815   8.099   9.905  1.00  0.00     0.089 A 
HETATM    8  C13 UNK     1      12.998   6.460   9.957  1.00  0.00     0.304 A 
HETATM    9  C14 UNK     1      14.885   9.886   8.302  1.00  0.00     0.033 A 
HETATM   10  C15 UNK     1      16.012   8.527  10.475  1.00  0.00     0.039 A 
HETATM   11  C16 UNK     1      16.086  10.327   8.865  1.00  0.00     0.011 A 
HETATM   12  C17 UNK     1      16.649   9.650   9.948  1.00  0.00     0.022 A 
ENDROOT
BRANCH   4  13
HETATM   13  C5  UNK     1      11.145   6.753   8.188  1.00  0.00     0.259 C 
HETATM   14  O2  UNK     1      11.178   5.821   7.377  1.00  0.00    -0.267 OA
HETATM   15  N1  UNK     1       9.977   7.423   8.567  1.00  0.00    -0.348 N 
HETATM   16  C8  UNK     1       9.987   8.520   9.532  1.00  0.00     0.153 C 
BRANCH  15  17
HETATM   17  C1  UNK     1       8.670   7.072   8.026  1.00  0.00     0.167 C 
BRANCH  17  18
HETATM   18  C2  UNK     1       7.694   6.708   9.106  1.00  0.00     0.003 A 
HETATM   19  C3  UNK     1       7.764   5.643   9.943  1.00  0.00     0.035 A 
HETATM   20  N2  UNK     1       6.661   5.749  10.739  1.00  0.00    -0.278 N 
HETATM   21  C7  UNK     1       8.743   4.548  10.076  1.00  0.00     0.070 C 
HETATM   22  C11 UNK     1       6.269   4.856  11.804  1.00  0.00     0.179 C 
HETATM   23  N3  UNK     1       5.892   6.816  10.461  1.00  0.00    -0.184 NA
HETATM   24  C4  UNK     1       6.539   7.402   9.450  1.00  0.00     0.149 A 
ENDBRANCH  17  18
ENDBRANCH  15  17
ENDBRANCH   4  13
TORSDOF 3
ENDMDL
MODEL 5
REMARK VINA RESULT:      -7.6     18.780     21.221
REMARK  3 active torsions:
REMARK  status: ('A' for Active; 'I' for Inactive)
REMARK    1  A    between atoms: C1_8  and  N1_5 
REMARK       I    between atoms: C5_12  and  N1_5 
REMARK    2  A    between atoms: C1_8  and  C2_9 
REMARK    3  A    between atoms: C5_12  and  C6_13 
ROOT
HETATM    1 Br1  UNK     1      20.526  -1.601  29.986  1.00  0.00    -0.051 Br
HETATM    2  O1  UNK     1      18.612  -1.257  35.733  1.00  0.00    -0.274 OA
HETATM    3  O3  UNK     1      18.569  -2.083  37.864  1.00  0.00    -0.259 OA
HETATM    4  C6  UNK     1      19.868  -3.281  36.286  1.00  0.00     0.108 A 
HETATM    5  C9  UNK     1      19.911  -2.403  34.027  1.00  0.00     0.000 A 
HETATM    6  C10 UNK     1      20.307  -3.385  35.026  1.00  0.00     0.037 A 
HETATM    7  C12 UNK     1      19.071  -1.360  34.406  1.00  0.00     0.089 A 
HETATM    8  C13 UNK     1      18.974  -2.181  36.710  1.00  0.00     0.304 A 
HETATM    9  C14 UNK     1      20.346  -2.472  32.701  1.00  0.00     0.033 A 
HETATM   10  C15 UNK     1      18.655  -0.388  33.500  1.00  0.00     0.039 A 
HETATM   11  C16 UNK     1      19.936  -1.503  31.781  1.00  0.00     0.011 A 
HETATM   12  C17 UNK     1      19.093  -0.464  32.178  1.00  0.00     0.022 A 
ENDROOT
BRANCH   4  13
HETATM   13  C5  UNK     1      20.322  -4.319  37.218  1.00  0.00     0.259 C 
HETATM   14  O2  UNK     1      21.345  -4.107  37.880  1.00  0.00    -0.267 OA
HETATM   15  N1  UNK     1      19.556  -5.486  37.311  1.00  0.00    -0.348 N 
HETATM   16  C8  UNK     1      18.353  -5.693  36.508  1.00  0.00     0.153 C 
BRANCH  15  17
HETATM   17  C1  UNK     1      19.906  -6.575  38.213  1.00  0.00     0.167 C 
BRANCH  17  18
HETATM   18  C2  UNK     1      20.671  -7.661  37.513  1.00  0.00     0.003 A 
HETATM   19  C3  UNK     1      20.197  -8.870  37.122  1.00  0.00     0.035 A 
HETATM   20  N2  UNK     1      21.259  -9.490  36.532  1.00  0.00    -0.278 N 
HETATM   21  C7  UNK     1      18.868  -9.500  37.241  1.00  0.00     0.070 C 
HETATM   22  C11 UNK     1      21.278 -10.809  35.944  1.00  0.00     0.179 C 
HETATM   23  N3  UNK     1      22.382  -8.751  36.523  1.00  0.00    -0.184 NA
HETATM   24  C4  UNK     1      22.007  -7.623  37.132  1.00  0.00     0.149 A 
ENDBRANCH  17  18
ENDBRANCH  15  17
ENDBRANCH   4  13
TORSDOF 3
ENDMDL
MODEL 6
REMARK VINA RESULT:      -7.5     12.495     14.393
REMARK  3 active torsions:
REMARK  status: ('A' for Active; 'I' for Inactive)
REMARK    1  A    between atoms: C1_8  and  N1_5 
REMARK       I    between atoms: C5_12  and  N1_5 
REMARK    2  A    between atoms: C1_8  and  C2_9 
REMARK    3  A    between atoms: C5_12  and  C6_13 
ROOT
HETATM    1 Br1  UNK     1      16.598  13.725   6.962  1.00  0.00    -0.051 Br
HETATM    2  O1  UNK     1      16.891   8.630  10.243  1.00  0.00    -0.274 OA
HETATM    3  O3  UNK     1      15.916   6.721  11.037  1.00  0.00    -0.259 OA
HETATM    4  C6  UNK     1      14.581   8.097   9.645  1.00  0.00     0.108 A 
HETATM    5  C9  UNK     1      15.617  10.121   8.806  1.00  0.00     0.000 A 
HETATM    6  C10 UNK     1      14.484   9.214   8.914  1.00  0.00     0.037 A 
HETATM    7  C12 UNK     1      16.796   9.806   9.474  1.00  0.00     0.089 A 
HETATM    8  C13 UNK     1      15.824   7.744  10.364  1.00  0.00     0.304 A 
HETATM    9  C14 UNK     1      15.562  11.296   8.052  1.00  0.00     0.033 A 
HETATM   10  C15 UNK     1      17.917  10.631   9.411  1.00  0.00     0.039 A 
HETATM   11  C16 UNK     1      16.679  12.133   7.981  1.00  0.00     0.011 A 
HETATM   12  C17 UNK     1      17.853  11.802   8.658  1.00  0.00     0.022 A 
ENDROOT
BRANCH   4  13
HETATM   13  C5  UNK     1      13.384   7.249   9.693  1.00  0.00     0.259 C 
HETATM   14  O2  UNK     1      12.463   7.576  10.450  1.00  0.00    -0.267 OA
HETATM   15  N1  UNK     1      13.355   6.123   8.864  1.00  0.00    -0.348 N 
HETATM   16  C8  UNK     1      14.469   5.775   7.985  1.00  0.00     0.153 C 
BRANCH  15  17
HETATM   17  C1  UNK     1      12.213   5.219   8.821  1.00  0.00     0.167 C 
BRANCH  17  18
HETATM   18  C2  UNK     1      11.162   5.688   7.855  1.00  0.00     0.003 A 
HETATM   19  C3  UNK     1       9.861   5.950   8.132  1.00  0.00     0.035 A 
HETATM   20  N2  UNK     1       9.324   6.347   6.943  1.00  0.00    -0.278 N 
HETATM   21  C7  UNK     1       9.075   5.870   9.377  1.00  0.00     0.070 C 
HETATM   22  C11 UNK     1       7.956   6.743   6.696  1.00  0.00     0.179 C 
HETATM   23  N3  UNK     1      10.202   6.354   5.925  1.00  0.00    -0.184 NA
HETATM   24  C4  UNK     1      11.336   5.945   6.500  1.00  0.00     0.149 A 
ENDBRANCH  17  18
ENDBRANCH  15  17
ENDBRANCH   4  13
TORSDOF 3
ENDMDL
MODEL 7
REMARK VINA RESULT:      -7.4     20.100     21.465
REMARK  3 active torsions:
REMARK  status: ('A' for Active; 'I' for Inactive)
REMARK    1  A    between atoms: C1_8  and  N1_5 
REMARK       I    between atoms: C5_12  and  N1_5 
REMARK    2  A    between atoms: C1_8  and  C2_9 
REMARK    3  A    between atoms: C5_12  and  C6_13 
ROOT
HETATM    1 Br1  UNK     1      26.474  -8.499  38.283  1.00  0.00    -0.051 Br
HETATM    2  O1  UNK     1      31.304  -5.738  35.861  1.00  0.00    -0.274 OA
HETATM    3  O3  UNK     1      32.400  -4.888  34.045  1.00  0.00    -0.259 OA
HETATM    4  C6  UNK     1      30.270  -5.846  33.648  1.00  0.00     0.108 A 
HETATM    5  C9  UNK     1      29.110  -6.747  35.575  1.00  0.00     0.000 A 
HETATM    6  C10 UNK     1      29.191  -6.457  34.151  1.00  0.00     0.037 A 
HETATM    7  C12 UNK     1      30.171  -6.380  36.397  1.00  0.00     0.089 A 
HETATM    8  C13 UNK     1      31.409  -5.447  34.503  1.00  0.00     0.304 A 
HETATM    9  C14 UNK     1      28.003  -7.381  36.144  1.00  0.00     0.033 A 
HETATM   10  C15 UNK     1      30.155  -6.628  37.768  1.00  0.00     0.039 A 
HETATM   11  C16 UNK     1      27.974  -7.638  37.517  1.00  0.00     0.011 A 
HETATM   12  C17 UNK     1      29.047  -7.262  38.328  1.00  0.00     0.022 A 
ENDROOT
BRANCH   4  13
HETATM   13  C5  UNK     1      30.258  -5.597  32.201  1.00  0.00     0.259 C 
HETATM   14  O2  UNK     1      29.621  -4.626  31.778  1.00  0.00    -0.267 OA
HETATM   15  N1  UNK     1      30.985  -6.473  31.388  1.00  0.00    -0.348 N 
HETATM   16  C8  UNK     1      31.724  -7.609  31.933  1.00  0.00     0.153 C 
BRANCH  15  17
HETATM   17  C1  UNK     1      31.054  -6.312  29.941  1.00  0.00     0.167 C 
BRANCH  17  18
HETATM   18  C2  UNK     1      30.653  -7.565  29.217  1.00  0.00     0.003 A 
HETATM   19  C3  UNK     1      29.447  -8.184  29.267  1.00  0.00     0.035 A 
HETATM   20  N2  UNK     1      29.573  -9.264  28.443  1.00  0.00    -0.278 N 
HETATM   21  C7  UNK     1      28.202  -7.876  29.996  1.00  0.00     0.070 C 
HETATM   22  C11 UNK     1      28.564 -10.254  28.147  1.00  0.00     0.179 C 
HETATM   23  N3  UNK     1      30.785  -9.372  27.872  1.00  0.00    -0.184 NA
HETATM   24  C4  UNK     1      31.445  -8.317  28.357  1.00  0.00     0.149 A 
ENDBRANCH  17  18
ENDBRANCH  15  17
ENDBRANCH   4  13
TORSDOF 3
ENDMDL
MODEL 8
REMARK VINA RESULT:      -7.4     23.958     25.251
REMARK  3 active torsions:
REMARK  status: ('A' for Active; 'I' for Inactive)
REMARK    1  A    between atoms: C1_8  and  N1_5 
REMARK       I    between atoms: C5_12  and  N1_5 
REMARK    2  A    between atoms: C1_8  and  C2_9 
REMARK    3  A    between atoms: C5_12  and  C6_13 
ROOT
HETATM    1 Br1  UNK     1      27.683  -9.879  39.082  1.00  0.00    -0.051 Br
HETATM    2  O1  UNK     1      30.062  -4.398  38.031  1.00  0.00    -0.274 OA
HETATM    3  O3  UNK     1      31.484  -3.042  36.863  1.00  0.00    -0.259 OA
HETATM    4  C6  UNK     1      31.454  -5.330  36.250  1.00  0.00     0.108 A 
HETATM    5  C9  UNK     1      29.947  -6.766  37.491  1.00  0.00     0.000 A 
HETATM    6  C10 UNK     1      30.949  -6.552  36.457  1.00  0.00     0.037 A 
HETATM    7  C12 UNK     1      29.526  -5.681  38.254  1.00  0.00     0.089 A 
HETATM    8  C13 UNK     1      31.022  -4.163  37.050  1.00  0.00     0.304 A 
HETATM    9  C14 UNK     1      29.391  -8.023  37.741  1.00  0.00     0.033 A 
HETATM   10  C15 UNK     1      28.570  -5.818  39.258  1.00  0.00     0.039 A 
HETATM   11  C16 UNK     1      28.431  -8.175  38.745  1.00  0.00     0.011 A 
HETATM   12  C17 UNK     1      28.021  -7.076  39.502  1.00  0.00     0.022 A 
ENDROOT
BRANCH   4  13
HETATM   13  C5  UNK     1      32.460  -5.217  35.187  1.00  0.00     0.259 C 
HETATM   14  O2  UNK     1      32.077  -4.931  34.046  1.00  0.00    -0.267 OA
HETATM   15  N1  UNK     1      33.798  -5.427  35.536  1.00  0.00    -0.348 N 
HETATM   16  C8  UNK     1      34.203  -5.763  36.899  1.00  0.00     0.153 C 
BRANCH  15  17
HETATM   17  C1  UNK     1      34.879  -5.325  34.564  1.00  0.00     0.167 C 
BRANCH  17  18
HETATM   18  C2  UNK     1      35.502  -6.661  34.276  1.00  0.00     0.003 A 
HETATM   19  C3  UNK     1      34.938  -7.694  33.602  1.00  0.00     0.035 A 
HETATM   20  N2  UNK     1      35.890  -8.671  33.597  1.00  0.00    -0.278 N 
HETATM   21  C7  UNK     1      33.617  -7.863  32.968  1.00  0.00     0.070 C 
HETATM   22  C11 UNK     1      35.787  -9.983  33.002  1.00  0.00     0.179 C 
HETATM   23  N3  UNK     1      37.026  -8.324  34.227  1.00  0.00    -0.184 NA
HETATM   24  C4  UNK     1      36.775  -7.080  34.643  1.00  0.00     0.149 A 
ENDBRANCH  17  18
ENDBRANCH  15  17
ENDBRANCH   4  13
TORSDOF 3
ENDMDL
MODEL 9
REMARK VINA RESULT:      -7.4     18.208     21.014
REMARK  3 active torsions:
REMARK  status: ('A' for Active; 'I' for Inactive)
REMARK    1  A    between atoms: C1_8  and  N1_5 
REMARK       I    between atoms: C5_12  and  N1_5 
REMARK    2  A    between atoms: C1_8  and  C2_9 
REMARK    3  A    between atoms: C5_12  and  C6_13 
ROOT
HETATM    1 Br1  UNK     1      17.929  -0.769  37.642  1.00  0.00    -0.051 Br
HETATM    2  O1  UNK     1      18.643   1.275  31.975  1.00  0.00    -0.274 OA
HETATM    3  O3  UNK     1      18.615   2.992  30.466  1.00  0.00    -0.259 OA
HETATM    4  C6  UNK     1      18.082   3.540  32.708  1.00  0.00     0.108 A 
HETATM    5  C9  UNK     1      18.111   1.718  34.306  1.00  0.00     0.000 A 
HETATM    6  C10 UNK     1      17.916   3.120  33.968  1.00  0.00     0.037 A 
HETATM    7  C12 UNK     1      18.471   0.828  33.299  1.00  0.00     0.089 A 
HETATM    8  C13 UNK     1      18.463   2.611  31.622  1.00  0.00     0.304 A 
HETATM    9  C14 UNK     1      17.951   1.236  35.608  1.00  0.00     0.033 A 
HETATM   10  C15 UNK     1      18.673  -0.526  33.556  1.00  0.00     0.039 A 
HETATM   11  C16 UNK     1      18.150  -0.120  35.879  1.00  0.00     0.011 A 
HETATM   12  C17 UNK     1      18.510  -0.999  34.857  1.00  0.00     0.022 A 
ENDROOT
BRANCH   4  13
HETATM   13  C5  UNK     1      17.862   4.971  32.467  1.00  0.00     0.259 C 
HETATM   14  O2  UNK     1      16.842   5.313  31.859  1.00  0.00    -0.267 OA
HETATM   15  N1  UNK     1      18.820   5.865  32.958  1.00  0.00    -0.348 N 
HETATM   16  C8  UNK     1      20.011   5.414  33.672  1.00  0.00     0.153 C 
BRANCH  15  17
HETATM   17  C1  UNK     1      18.695   7.307  32.788  1.00  0.00     0.167 C 
BRANCH  17  18
HETATM   18  C2  UNK     1      17.588   7.877  33.628  1.00  0.00     0.003 A 
HETATM   19  C3  UNK     1      16.415   8.395  33.187  1.00  0.00     0.035 A 
HETATM   20  N2  UNK     1      15.751   8.771  34.317  1.00  0.00    -0.278 N 
HETATM   21  C7  UNK     1      15.855   8.575  31.834  1.00  0.00     0.070 C 
HETATM   22  C11 UNK     1      14.444   9.382  34.395  1.00  0.00     0.179 C 
HETATM   23  N3  UNK     1      16.428   8.525  35.452  1.00  0.00    -0.184 NA
HETATM   24  C4  UNK     1      17.562   7.972  35.014  1.00  0.00     0.149 A 
ENDBRANCH  17  18
ENDBRANCH  15  17
ENDBRANCH   4  13
TORSDOF 3
ENDMDL
MODEL 10
REMARK VINA RESULT:      -7.3     24.554     25.939
REMARK  3 active torsions:
REMARK  status: ('A' for Active; 'I' for Inactive)
REMARK    1  A    between atoms: C1_8  and  N1_5 
REMARK       I    between atoms: C5_12  and  N1_5 
REMARK    2  A    between atoms: C1_8  and  C2_9 
REMARK    3  A    between atoms: C5_12  and  C6_13 
ROOT
HETATM    1 Br1  UNK     1      23.882  -7.711  38.996  1.00  0.00    -0.051 Br
HETATM    2  O1  UNK     1      29.754  -9.175  38.572  1.00  0.00    -0.274 OA
HETATM    3  O3  UNK     1      31.936  -8.562  38.279  1.00  0.00    -0.259 OA
HETATM    4  C6  UNK     1      30.330  -6.822  38.240  1.00  0.00     0.108 A 
HETATM    5  C9  UNK     1      28.016  -7.475  38.549  1.00  0.00     0.000 A 
HETATM    6  C10 UNK     1      29.042  -6.467  38.328  1.00  0.00     0.037 A 
HETATM    7  C12 UNK     1      28.398  -8.808  38.667  1.00  0.00     0.089 A 
HETATM    8  C13 UNK     1      30.757  -8.233  38.361  1.00  0.00     0.304 A 
HETATM    9  C14 UNK     1      26.661  -7.149  38.650  1.00  0.00     0.033 A 
HETATM   10  C15 UNK     1      27.466  -9.821  38.880  1.00  0.00     0.039 A 
HETATM   11  C16 UNK     1      25.716  -8.156  38.863  1.00  0.00     0.011 A 
HETATM   12  C17 UNK     1      26.116  -9.488  38.978  1.00  0.00     0.022 A 
ENDROOT
BRANCH   4  13
HETATM   13  C5  UNK     1      31.288  -5.734  38.015  1.00  0.00     0.259 C 
HETATM   14  O2  UNK     1      31.788  -5.180  39.000  1.00  0.00    -0.267 OA
HETATM   15  N1  UNK     1      31.588  -5.399  36.690  1.00  0.00    -0.348 N 
HETATM   16  C8  UNK     1      30.972  -6.082  35.556  1.00  0.00     0.153 C 
BRANCH  15  17
HETATM   17  C1  UNK     1      32.536  -4.345  36.352  1.00  0.00     0.167 C 
BRANCH  17  18
HETATM   18  C2  UNK     1      33.729  -4.879  35.612  1.00  0.00     0.003 A 
HETATM   19  C3  UNK     1      34.601  -5.822  36.046  1.00  0.00     0.035 A 
HETATM   20  N2  UNK     1      35.496  -5.968  35.027  1.00  0.00    -0.278 N 
HETATM   21  C7  UNK     1      34.686  -6.594  37.300  1.00  0.00     0.070 C 
HETATM   22  C11 UNK     1      36.632  -6.859  34.988  1.00  0.00     0.179 C 
HETATM   23  N3  UNK     1      35.248  -5.175  33.970  1.00  0.00    -0.184 NA
HETATM   24  C4  UNK     1      34.154  -4.506  34.342  1.00  0.00     0.149 A 
ENDBRANCH  17  18
ENDBRANCH  15  17
ENDBRANCH   4  13
TORSDOF 3
ENDMDL
