MODEL 1
REMARK VINA RESULT:      -9.7      0.000      0.000
REMARK  7 active torsions:
REMARK  status: ('A' for Active; 'I' for Inactive)
REMARK    1  A    between atoms: C15_23  and  O3_4 
REMARK    2  A    between atoms: C23_31  and  O3_4 
REMARK    3  A    between atoms: C5_13  and  N1_6 
REMARK    4  A    between atoms: C6_14  and  N2_7 
REMARK    5  A    between atoms: C16_24  and  N3_8 
REMARK       I    between atoms: C9_17  and  N3_8 
REMARK    6  A    between atoms: C5_13  and  C7_15 
REMARK    7  A    between atoms: C6_14  and  C9_17 
ROOT
HETATM    1  N1  UNK     1      19.239  -3.010  36.260  1.00  0.00     0.096 N 
HETATM    2  N2  UNK     1      18.377  -0.395  35.380  1.00  0.00     0.100 N 
HETATM    3  C1  UNK     1      19.962  -2.282  35.211  1.00  0.00     0.303 C 
HETATM    4  C2  UNK     1      18.592  -2.070  37.184  1.00  0.00     0.303 C 
HETATM    5  C3  UNK     1      19.022  -1.336  34.457  1.00  0.00     0.303 C 
HETATM    6  C4  UNK     1      17.652  -1.123  36.429  1.00  0.00     0.303 C 
ENDROOT
BRANCH   1   7
HETATM    7  C5  UNK     1      20.138  -3.910  36.982  1.00  0.00     0.312 C 
BRANCH   7   8
HETATM    8  C7  UNK     1      19.751  -5.340  36.819  1.00  0.00    -0.011 A 
HETATM    9  C10 UNK     1      18.593  -5.681  36.235  1.00  0.00     0.092 A 
HETATM   10  C13 UNK     1      18.168  -7.080  36.053  1.00  0.00     0.288 A 
HETATM   11  O1  UNK     1      19.031  -8.059  36.520  1.00  0.00    -0.275 OA
HETATM   12  O4  UNK     1      17.101  -7.354  35.514  1.00  0.00    -0.260 OA
HETATM   13  C11 UNK     1      20.254  -7.730  37.137  1.00  0.00     0.090 A 
HETATM   14  C8  UNK     1      20.644  -6.400  37.304  1.00  0.00     0.009 A 
HETATM   15  C14 UNK     1      21.042  -8.798  37.570  1.00  0.00     0.041 A 
HETATM   16  C12 UNK     1      21.874  -6.158  37.929  1.00  0.00     0.051 A 
HETATM   17  C15 UNK     1      22.675  -7.218  38.367  1.00  0.00     0.069 A 
HETATM   18  C17 UNK     1      22.260  -8.536  38.188  1.00  0.00     0.039 A 
BRANCH  17  19
HETATM   19  O3  UNK     1      23.868  -6.960  38.973  1.00  0.00    -0.351 OA
BRANCH  19  20
HETATM   20  C23 UNK     1      24.880  -7.959  38.861  1.00  0.00     0.171 C 
HETATM   21  C25 UNK     1      26.217  -7.283  38.641  1.00  0.00     0.034 C 
ENDBRANCH  19  20
ENDBRANCH  17  19
ENDBRANCH   7   8
ENDBRANCH   1   7
BRANCH   2  22
HETATM   22  C6  UNK     1      17.480   0.506  34.660  1.00  0.00     0.375 C 
BRANCH  22  23
HETATM   23  C9  UNK     1      18.222   1.784  34.307  1.00  0.00     0.250 C 
HETATM   24  O2  UNK     1      19.091   2.265  35.028  1.00  0.00    -0.271 OA
HETATM   25  N3  UNK     1      17.771   2.282  33.087  1.00  0.00    -0.325 N 
HETATM   26  H15 UNK     1      17.046   1.750  32.613  1.00  0.00     0.169 HD
BRANCH  25  27
HETATM   27  C16 UNK     1      18.209   3.449  32.416  1.00  0.00     0.042 A 
HETATM   28  C18 UNK     1      18.597   3.399  31.076  1.00  0.00    -0.035 A 
HETATM   29  C20 UNK     1      19.027   4.559  30.432  1.00  0.00     0.011 A 
HETATM   30  C21 UNK     1      18.566   2.117  30.309  1.00  0.00     0.050 C 
HETATM   31  C24 UNK     1      19.067   5.768  31.125  1.00  0.00     0.024 A 
HETATM   32  C22 UNK     1      18.679   5.818  32.464  1.00  0.00     0.036 A 
HETATM   33  C19 UNK     1      18.249   4.659  33.109  1.00  0.00     0.053 A 
HETATM   34 Cl1  UNK     1      18.728   7.311  33.319  1.00  0.00    -0.084 Cl
ENDBRANCH  25  27
ENDBRANCH  22  23
ENDBRANCH   2  22
TORSDOF 7
ENDMDL
MODEL 2
REMARK VINA RESULT:      -9.5      5.821      8.609
REMARK  7 active torsions:
REMARK  status: ('A' for Active; 'I' for Inactive)
REMARK    1  A    between atoms: C15_23  and  O3_4 
REMARK    2  A    between atoms: C23_31  and  O3_4 
REMARK    3  A    between atoms: C5_13  and  N1_6 
REMARK    4  A    between atoms: C6_14  and  N2_7 
REMARK    5  A    between atoms: C16_24  and  N3_8 
REMARK       I    between atoms: C9_17  and  N3_8 
REMARK    6  A    between atoms: C5_13  and  C7_15 
REMARK    7  A    between atoms: C6_14  and  C9_17 
ROOT
HETATM    1  N1  UNK     1      18.889   3.656  31.309  1.00  0.00     0.096 N 
HETATM    2  N2  UNK     1      19.238   6.325  32.363  1.00  0.00     0.100 N 
HETATM    3  C1  UNK     1      18.019   4.177  32.369  1.00  0.00     0.303 C 
HETATM    4  C2  UNK     1      19.379   4.752  30.464  1.00  0.00     0.303 C 
HETATM    5  C3  UNK     1      18.751   5.229  33.209  1.00  0.00     0.303 C 
HETATM    6  C4  UNK     1      20.111   5.804  31.303  1.00  0.00     0.303 C 
ENDROOT
BRANCH   1   7
HETATM    7  C5  UNK     1      18.188   2.654  30.507  1.00  0.00     0.312 C 
BRANCH   7   8
HETATM    8  C7  UNK     1      18.914   1.353  30.473  1.00  0.00    -0.011 A 
HETATM    9  C10 UNK     1      19.569   0.955  29.374  1.00  0.00     0.092 A 
HETATM   10  C13 UNK     1      20.300  -0.321  29.292  1.00  0.00     0.288 A 
HETATM   11  O1  UNK     1      20.285  -1.120  30.425  1.00  0.00    -0.275 OA
HETATM   12  O4  UNK     1      20.888  -0.653  28.269  1.00  0.00    -0.260 OA
HETATM   13  C11 UNK     1      19.604  -0.728  31.595  1.00  0.00     0.090 A 
HETATM   14  C8  UNK     1      18.915   0.485  31.657  1.00  0.00     0.009 A 
HETATM   15  C14 UNK     1      19.656  -1.613  32.673  1.00  0.00     0.041 A 
HETATM   16  C12 UNK     1      18.263   0.800  32.856  1.00  0.00     0.051 A 
HETATM   17  C15 UNK     1      18.306  -0.076  33.946  1.00  0.00     0.069 A 
HETATM   18  C17 UNK     1      19.001  -1.280  33.855  1.00  0.00     0.039 A 
BRANCH  17  19
HETATM   19  O3  UNK     1      17.665   0.250  35.103  1.00  0.00    -0.351 OA
BRANCH  19  20
HETATM   20  C23 UNK     1      16.239   0.205  35.089  1.00  0.00     0.171 C 
HETATM   21  C25 UNK     1      15.719   0.633  36.444  1.00  0.00     0.034 C 
ENDBRANCH  19  20
ENDBRANCH  17  19
ENDBRANCH   7   8
ENDBRANCH   1   7
BRANCH   2  22
HETATM   22  C6  UNK     1      19.937   7.327  33.164  1.00  0.00     0.375 C 
BRANCH  22  23
HETATM   23  C9  UNK     1      18.954   7.993  34.112  1.00  0.00     0.250 C 
HETATM   24  O2  UNK     1      19.063   7.926  35.333  1.00  0.00    -0.271 OA
HETATM   25  N3  UNK     1      17.966   8.660  33.391  1.00  0.00    -0.325 N 
HETATM   26  H15 UNK     1      18.032   8.622  32.378  1.00  0.00     0.169 HD
BRANCH  25  27
HETATM   27  C16 UNK     1      16.874   9.399  33.904  1.00  0.00     0.042 A 
HETATM   28  C18 UNK     1      15.626   8.800  34.083  1.00  0.00    -0.035 A 
HETATM   29  C20 UNK     1      14.561   9.545  34.589  1.00  0.00     0.011 A 
HETATM   30  C21 UNK     1      15.402   7.364  33.738  1.00  0.00     0.050 C 
HETATM   31  C24 UNK     1      14.744  10.888  34.918  1.00  0.00     0.024 A 
HETATM   32  C22 UNK     1      15.991  11.487  34.739  1.00  0.00     0.036 A 
HETATM   33  C19 UNK     1      17.056  10.743  34.233  1.00  0.00     0.053 A 
HETATM   34 Cl1  UNK     1      16.214  13.144  35.145  1.00  0.00    -0.084 Cl
ENDBRANCH  25  27
ENDBRANCH  22  23
ENDBRANCH   2  22
TORSDOF 7
ENDMDL
MODEL 3
REMARK VINA RESULT:      -8.8      3.712     11.628
REMARK  7 active torsions:
REMARK  status: ('A' for Active; 'I' for Inactive)
REMARK    1  A    between atoms: C15_23  and  O3_4 
REMARK    2  A    between atoms: C23_31  and  O3_4 
REMARK    3  A    between atoms: C5_13  and  N1_6 
REMARK    4  A    between atoms: C6_14  and  N2_7 
REMARK    5  A    between atoms: C16_24  and  N3_8 
REMARK       I    between atoms: C9_17  and  N3_8 
REMARK    6  A    between atoms: C5_13  and  C7_15 
REMARK    7  A    between atoms: C6_14  and  C9_17 
ROOT
HETATM    1  N1  UNK     1      17.958   1.291  35.275  1.00  0.00     0.096 N 
HETATM    2  N2  UNK     1      18.470  -1.283  36.486  1.00  0.00     0.100 N 
HETATM    3  C1  UNK     1      17.657   1.040  36.689  1.00  0.00     0.303 C 
HETATM    4  C2  UNK     1      19.076   0.449  34.832  1.00  0.00     0.303 C 
HETATM    5  C3  UNK     1      17.351  -0.442  36.928  1.00  0.00     0.303 C 
HETATM    6  C4  UNK     1      18.771  -1.034  35.070  1.00  0.00     0.303 C 
ENDROOT
BRANCH   1   7
HETATM    7  C5  UNK     1      18.253   2.705  35.049  1.00  0.00     0.312 C 
BRANCH   7   8
HETATM    8  C7  UNK     1      18.265   3.053  33.600  1.00  0.00    -0.011 A 
HETATM    9  C10 UNK     1      18.268   2.098  32.660  1.00  0.00     0.092 A 
HETATM   10  C13 UNK     1      18.280   2.392  31.217  1.00  0.00     0.288 A 
HETATM   11  O1  UNK     1      18.288   3.730  30.854  1.00  0.00    -0.275 OA
HETATM   12  O4  UNK     1      18.283   1.492  30.384  1.00  0.00    -0.260 OA
HETATM   13  C11 UNK     1      18.285   4.756  31.821  1.00  0.00     0.090 A 
HETATM   14  C8  UNK     1      18.275   4.462  33.185  1.00  0.00     0.009 A 
HETATM   15  C14 UNK     1      18.297   6.066  31.340  1.00  0.00     0.041 A 
HETATM   16  C12 UNK     1      18.274   5.538  34.081  1.00  0.00     0.051 A 
HETATM   17  C15 UNK     1      18.284   6.857  33.615  1.00  0.00     0.069 A 
HETATM   18  C17 UNK     1      18.296   7.121  32.247  1.00  0.00     0.039 A 
BRANCH  17  19
HETATM   19  O3  UNK     1      18.283   7.890  34.503  1.00  0.00    -0.351 OA
BRANCH  19  20
HETATM   20  C23 UNK     1      18.809   9.136  34.049  1.00  0.00     0.171 C 
HETATM   21  C25 UNK     1      20.249   9.257  34.499  1.00  0.00     0.034 C 
ENDBRANCH  19  20
ENDBRANCH  17  19
ENDBRANCH   7   8
ENDBRANCH   1   7
BRANCH   2  22
HETATM   22  C6  UNK     1      18.177  -2.697  36.713  1.00  0.00     0.375 C 
BRANCH  22  23
HETATM   23  C9  UNK     1      19.478  -3.460  36.899  1.00  0.00     0.250 C 
HETATM   24  O2  UNK     1      20.567  -2.900  36.979  1.00  0.00    -0.271 OA
HETATM   25  N3  UNK     1      19.229  -4.829  36.963  1.00  0.00    -0.325 N 
HETATM   26  H15 UNK     1      18.259  -5.124  36.888  1.00  0.00     0.169 HD
BRANCH  25  27
HETATM   27  C16 UNK     1      20.172  -5.871  37.130  1.00  0.00     0.042 A 
HETATM   28  C18 UNK     1      20.383  -6.813  36.122  1.00  0.00    -0.035 A 
HETATM   29  C20 UNK     1      21.316  -7.833  36.305  1.00  0.00     0.011 A 
HETATM   30  C21 UNK     1      19.620  -6.755  34.838  1.00  0.00     0.050 C 
HETATM   31  C24 UNK     1      22.040  -7.910  37.494  1.00  0.00     0.024 A 
HETATM   32  C22 UNK     1      21.830  -6.969  38.502  1.00  0.00     0.036 A 
HETATM   33  C19 UNK     1      20.897  -5.949  38.319  1.00  0.00     0.053 A 
HETATM   34 Cl1  UNK     1      22.724  -7.066  39.969  1.00  0.00    -0.084 Cl
ENDBRANCH  25  27
ENDBRANCH  22  23
ENDBRANCH   2  22
TORSDOF 7
ENDMDL
MODEL 4
REMARK VINA RESULT:      -8.8      8.771     12.180
REMARK  7 active torsions:
REMARK  status: ('A' for Active; 'I' for Inactive)
REMARK    1  A    between atoms: C15_23  and  O3_4 
REMARK    2  A    between atoms: C23_31  and  O3_4 
REMARK    3  A    between atoms: C5_13  and  N1_6 
REMARK    4  A    between atoms: C6_14  and  N2_7 
REMARK    5  A    between atoms: C16_24  and  N3_8 
REMARK       I    between atoms: C9_17  and  N3_8 
REMARK    6  A    between atoms: C5_13  and  C7_15 
REMARK    7  A    between atoms: C6_14  and  C9_17 
ROOT
HETATM    1  N1  UNK     1      26.772  -9.326  37.494  1.00  0.00     0.096 N 
HETATM    2  N2  UNK     1      29.606  -8.777  37.631  1.00  0.00     0.100 N 
HETATM    3  C1  UNK     1      27.444  -9.105  38.779  1.00  0.00     0.303 C 
HETATM    4  C2  UNK     1      27.459  -8.594  36.423  1.00  0.00     0.303 C 
HETATM    5  C3  UNK     1      28.920  -9.511  38.700  1.00  0.00     0.303 C 
HETATM    6  C4  UNK     1      28.935  -9.000  36.344  1.00  0.00     0.303 C 
ENDROOT
BRANCH   1   7
HETATM    7  C5  UNK     1      25.365  -8.935  37.571  1.00  0.00     0.312 C 
BRANCH   7   8
HETATM    8  C7  UNK     1      24.484  -9.853  36.795  1.00  0.00    -0.011 A 
HETATM    9  C10 UNK     1      24.945 -11.019  36.321  1.00  0.00     0.092 A 
HETATM   10  C13 UNK     1      24.113 -11.958  35.549  1.00  0.00     0.288 A 
HETATM   11  O1  UNK     1      22.797 -11.583  35.323  1.00  0.00    -0.275 OA
HETATM   12  O4  UNK     1      24.569 -13.016  35.132  1.00  0.00    -0.260 OA
HETATM   13  C11 UNK     1      22.285 -10.363  35.808  1.00  0.00     0.090 A 
HETATM   14  C8  UNK     1      23.085  -9.483  36.538  1.00  0.00     0.009 A 
HETATM   15  C14 UNK     1      20.947 -10.089  35.518  1.00  0.00     0.041 A 
HETATM   16  C12 UNK     1      22.501  -8.291  36.983  1.00  0.00     0.051 A 
HETATM   17  C15 UNK     1      21.161  -8.001  36.701  1.00  0.00     0.069 A 
HETATM   18  C17 UNK     1      20.385  -8.899  35.970  1.00  0.00     0.039 A 
BRANCH  17  19
HETATM   19  O3  UNK     1      20.612  -6.836  37.143  1.00  0.00    -0.351 OA
BRANCH  19  20
HETATM   20  C23 UNK     1      19.505  -6.940  38.038  1.00  0.00     0.171 C 
HETATM   21  C25 UNK     1      20.021  -6.959  39.460  1.00  0.00     0.034 C 
ENDBRANCH  19  20
ENDBRANCH  17  19
ENDBRANCH   7   8
ENDBRANCH   1   7
BRANCH   2  22
HETATM   22  C6  UNK     1      31.013  -9.166  37.555  1.00  0.00     0.375 C 
BRANCH  22  23
HETATM   23  C9  UNK     1      31.882  -7.920  37.532  1.00  0.00     0.250 C 
HETATM   24  O2  UNK     1      32.975  -7.866  38.086  1.00  0.00    -0.271 OA
HETATM   25  N3  UNK     1      31.255  -6.908  36.809  1.00  0.00    -0.325 N 
HETATM   26  H15 UNK     1      30.348  -7.126  36.404  1.00  0.00     0.169 HD
BRANCH  25  27
HETATM   27  C16 UNK     1      31.736  -5.601  36.558  1.00  0.00     0.042 A 
HETATM   28  C18 UNK     1      31.124  -4.490  37.140  1.00  0.00    -0.035 A 
HETATM   29  C20 UNK     1      31.612  -3.209  36.880  1.00  0.00     0.011 A 
HETATM   30  C21 UNK     1      29.943  -4.642  38.043  1.00  0.00     0.050 C 
HETATM   31  C24 UNK     1      32.712  -3.039  36.040  1.00  0.00     0.024 A 
HETATM   32  C22 UNK     1      33.324  -4.150  35.458  1.00  0.00     0.036 A 
HETATM   33  C19 UNK     1      32.836  -5.430  35.717  1.00  0.00     0.053 A 
HETATM   34 Cl1  UNK     1      34.681  -3.939  34.421  1.00  0.00    -0.084 Cl
ENDBRANCH  25  27
ENDBRANCH  22  23
ENDBRANCH   2  22
TORSDOF 7
ENDMDL
MODEL 5
REMARK VINA RESULT:      -8.7     26.122     29.917
REMARK  7 active torsions:
REMARK  status: ('A' for Active; 'I' for Inactive)
REMARK    1  A    between atoms: C15_23  and  O3_4 
REMARK    2  A    between atoms: C23_31  and  O3_4 
REMARK    3  A    between atoms: C5_13  and  N1_6 
REMARK    4  A    between atoms: C6_14  and  N2_7 
REMARK    5  A    between atoms: C16_24  and  N3_8 
REMARK       I    between atoms: C9_17  and  N3_8 
REMARK    6  A    between atoms: C5_13  and  C7_15 
REMARK    7  A    between atoms: C6_14  and  C9_17 
ROOT
HETATM    1  N1  UNK     1      16.769   9.580   9.545  1.00  0.00     0.096 N 
HETATM    2  N2  UNK     1      15.062   7.253   9.716  1.00  0.00     0.100 N 
HETATM    3  C1  UNK     1      15.308   9.706   9.565  1.00  0.00     0.303 C 
HETATM    4  C2  UNK     1      17.189   8.378  10.276  1.00  0.00     0.303 C 
HETATM    5  C3  UNK     1      14.643   8.454   8.984  1.00  0.00     0.303 C 
HETATM    6  C4  UNK     1      16.525   7.125   9.695  1.00  0.00     0.303 C 
ENDROOT
BRANCH   1   7
HETATM    7  C5  UNK     1      17.402  10.774  10.103  1.00  0.00     0.312 C 
BRANCH   7   8
HETATM    8  C7  UNK     1      18.407  11.364   9.173  1.00  0.00    -0.011 A 
HETATM    9  C10 UNK     1      18.127  11.544   7.875  1.00  0.00     0.092 A 
HETATM   10  C13 UNK     1      19.087  12.121   6.919  1.00  0.00     0.288 A 
HETATM   11  O1  UNK     1      20.327  12.483   7.423  1.00  0.00    -0.275 OA
HETATM   12  O4  UNK     1      18.796  12.270   5.737  1.00  0.00    -0.260 OA
HETATM   13  C11 UNK     1      20.649  12.305   8.784  1.00  0.00     0.090 A 
HETATM   14  C8  UNK     1      19.729  11.756   9.678  1.00  0.00     0.009 A 
HETATM   15  C14 UNK     1      21.927  12.704   9.179  1.00  0.00     0.041 A 
HETATM   16  C12 UNK     1      20.128  11.611  11.013  1.00  0.00     0.051 A 
HETATM   17  C15 UNK     1      21.405  12.007  11.425  1.00  0.00     0.069 A 
HETATM   18  C17 UNK     1      22.304  12.552  10.510  1.00  0.00     0.039 A 
BRANCH  17  19
HETATM   19  O3  UNK     1      21.774  11.858  12.728  1.00  0.00    -0.351 OA
BRANCH  19  20
HETATM   20  C23 UNK     1      20.989  12.538  13.705  1.00  0.00     0.171 C 
HETATM   21  C25 UNK     1      21.406  12.073  15.084  1.00  0.00     0.034 C 
ENDBRANCH  19  20
ENDBRANCH  17  19
ENDBRANCH   7   8
ENDBRANCH   1   7
BRANCH   2  22
HETATM   22  C6  UNK     1      14.429   6.059   9.161  1.00  0.00     0.375 C 
BRANCH  22  23
HETATM   23  C9  UNK     1      12.946   6.073   9.490  1.00  0.00     0.250 C 
HETATM   24  O2  UNK     1      12.523   6.237  10.630  1.00  0.00    -0.271 OA
HETATM   25  N3  UNK     1      12.193   5.882   8.333  1.00  0.00    -0.325 N 
HETATM   26  H15 UNK     1      12.707   5.771   7.464  1.00  0.00     0.169 HD
BRANCH  25  27
HETATM   27  C16 UNK     1      10.784   5.831   8.219  1.00  0.00     0.042 A 
HETATM   28  C18 UNK     1      10.150   6.171   7.023  1.00  0.00    -0.035 A 
HETATM   29  C20 UNK     1       8.760   6.116   6.930  1.00  0.00     0.011 A 
HETATM   30  C21 UNK     1      10.937   6.602   5.828  1.00  0.00     0.050 C 
HETATM   31  C24 UNK     1       8.003   5.718   8.031  1.00  0.00     0.024 A 
HETATM   32  C22 UNK     1       8.635   5.377   9.227  1.00  0.00     0.036 A 
HETATM   33  C19 UNK     1      10.025   5.433   9.320  1.00  0.00     0.053 A 
HETATM   34 Cl1  UNK     1       7.699   4.886  10.585  1.00  0.00    -0.084 Cl
ENDBRANCH  25  27
ENDBRANCH  22  23
ENDBRANCH   2  22
TORSDOF 7
ENDMDL
MODEL 6
REMARK VINA RESULT:      -8.7      8.353     11.530
REMARK  7 active torsions:
REMARK  status: ('A' for Active; 'I' for Inactive)
REMARK    1  A    between atoms: C15_23  and  O3_4 
REMARK    2  A    between atoms: C23_31  and  O3_4 
REMARK    3  A    between atoms: C5_13  and  N1_6 
REMARK    4  A    between atoms: C6_14  and  N2_7 
REMARK    5  A    between atoms: C16_24  and  N3_8 
REMARK       I    between atoms: C9_17  and  N3_8 
REMARK    6  A    between atoms: C5_13  and  C7_15 
REMARK    7  A    between atoms: C6_14  and  C9_17 
ROOT
HETATM    1  N1  UNK     1      25.494  -8.379  38.328  1.00  0.00     0.096 N 
HETATM    2  N2  UNK     1      28.358  -8.463  37.943  1.00  0.00     0.100 N 
HETATM    3  C1  UNK     1      26.313  -9.441  38.923  1.00  0.00     0.303 C 
HETATM    4  C2  UNK     1      26.280  -7.148  38.181  1.00  0.00     0.303 C 
HETATM    5  C3  UNK     1      27.572  -9.694  38.088  1.00  0.00     0.303 C 
HETATM    6  C4  UNK     1      27.540  -7.400  37.345  1.00  0.00     0.303 C 
ENDROOT
BRANCH   1   7
HETATM    7  C5  UNK     1      24.295  -8.137  39.129  1.00  0.00     0.312 C 
BRANCH   7   8
HETATM    8  C7  UNK     1      23.141  -7.697  38.294  1.00  0.00    -0.011 A 
HETATM    9  C10 UNK     1      22.496  -6.551  38.554  1.00  0.00     0.092 A 
HETATM   10  C13 UNK     1      21.351  -6.076  37.758  1.00  0.00     0.288 A 
HETATM   11  O1  UNK     1      20.953  -6.877  36.699  1.00  0.00    -0.275 OA
HETATM   12  O4  UNK     1      20.785  -5.022  38.026  1.00  0.00    -0.260 OA
HETATM   13  C11 UNK     1      21.613  -8.086  36.402  1.00  0.00     0.090 A 
HETATM   14  C8  UNK     1      22.696  -8.525  37.165  1.00  0.00     0.009 A 
HETATM   15  C14 UNK     1      21.124  -8.813  35.314  1.00  0.00     0.041 A 
HETATM   16  C12 UNK     1      23.295  -9.739  36.805  1.00  0.00     0.051 A 
HETATM   17  C15 UNK     1      22.818 -10.478  35.717  1.00  0.00     0.069 A 
HETATM   18  C17 UNK     1      21.734 -10.016  34.973  1.00  0.00     0.039 A 
BRANCH  17  19
HETATM   19  O3  UNK     1      23.415 -11.655  35.384  1.00  0.00    -0.351 OA
BRANCH  19  20
HETATM   20  C23 UNK     1      24.639 -11.972  36.044  1.00  0.00     0.171 C 
HETATM   21  C25 UNK     1      24.695 -13.464  36.291  1.00  0.00     0.034 C 
ENDBRANCH  19  20
ENDBRANCH  17  19
ENDBRANCH   7   8
ENDBRANCH   1   7
BRANCH   2  22
HETATM   22  C6  UNK     1      29.558  -8.704  37.145  1.00  0.00     0.375 C 
BRANCH  22  23
HETATM   23  C9  UNK     1      30.575  -7.609  37.417  1.00  0.00     0.250 C 
HETATM   24  O2  UNK     1      31.237  -7.563  38.449  1.00  0.00    -0.271 OA
HETATM   25  N3  UNK     1      30.625  -6.721  36.345  1.00  0.00    -0.325 N 
HETATM   26  H15 UNK     1      30.011  -6.914  35.558  1.00  0.00     0.169 HD
BRANCH  25  27
HETATM   27  C16 UNK     1      31.441  -5.572  36.213  1.00  0.00     0.042 A 
HETATM   28  C18 UNK     1      31.113  -4.383  36.866  1.00  0.00    -0.035 A 
HETATM   29  C20 UNK     1      31.930  -3.261  36.723  1.00  0.00     0.011 A 
HETATM   30  C21 UNK     1      29.892  -4.282  37.722  1.00  0.00     0.050 C 
HETATM   31  C24 UNK     1      33.074  -3.329  35.929  1.00  0.00     0.024 A 
HETATM   32  C22 UNK     1      33.402  -4.517  35.276  1.00  0.00     0.036 A 
HETATM   33  C19 UNK     1      32.586  -5.638  35.419  1.00  0.00     0.053 A 
HETATM   34 Cl1  UNK     1      34.815  -4.598  34.297  1.00  0.00    -0.084 Cl
ENDBRANCH  25  27
ENDBRANCH  22  23
ENDBRANCH   2  22
TORSDOF 7
ENDMDL
MODEL 7
REMARK VINA RESULT:      -8.7      4.087     10.937
REMARK  7 active torsions:
REMARK  status: ('A' for Active; 'I' for Inactive)
REMARK    1  A    between atoms: C15_23  and  O3_4 
REMARK    2  A    between atoms: C23_31  and  O3_4 
REMARK    3  A    between atoms: C5_13  and  N1_6 
REMARK    4  A    between atoms: C6_14  and  N2_7 
REMARK    5  A    between atoms: C16_24  and  N3_8 
REMARK       I    between atoms: C9_17  and  N3_8 
REMARK    6  A    between atoms: C5_13  and  C7_15 
REMARK    7  A    between atoms: C6_14  and  C9_17 
ROOT
HETATM    1  N1  UNK     1      18.835  -1.034  35.127  1.00  0.00     0.096 N 
HETATM    2  N2  UNK     1      19.859  -3.101  36.868  1.00  0.00     0.100 N 
HETATM    3  C1  UNK     1      19.728  -2.082  34.622  1.00  0.00     0.303 C 
HETATM    4  C2  UNK     1      18.049  -1.533  36.262  1.00  0.00     0.303 C 
HETATM    5  C3  UNK     1      20.645  -2.601  35.734  1.00  0.00     0.303 C 
HETATM    6  C4  UNK     1      18.966  -2.051  37.375  1.00  0.00     0.303 C 
ENDROOT
BRANCH   1   7
HETATM    7  C5  UNK     1      17.958  -0.542  34.065  1.00  0.00     0.312 C 
BRANCH   7   8
HETATM    8  C7  UNK     1      18.657  -0.462  32.751  1.00  0.00    -0.011 A 
HETATM    9  C10 UNK     1      19.261  -1.535  32.222  1.00  0.00     0.092 A 
HETATM   10  C13 UNK     1      19.964  -1.505  30.928  1.00  0.00     0.288 A 
HETATM   11  O1  UNK     1      19.980  -0.292  30.256  1.00  0.00    -0.275 OA
HETATM   12  O4  UNK     1      20.506  -2.508  30.475  1.00  0.00    -0.260 OA
HETATM   13  C11 UNK     1      19.353   0.853  30.788  1.00  0.00     0.090 A 
HETATM   14  C8  UNK     1      18.691   0.809  32.016  1.00  0.00     0.009 A 
HETATM   15  C14 UNK     1      19.435   2.019  30.025  1.00  0.00     0.041 A 
HETATM   16  C12 UNK     1      18.096   1.991  32.475  1.00  0.00     0.051 A 
HETATM   17  C15 UNK     1      18.168   3.168  31.722  1.00  0.00     0.069 A 
HETATM   18  C17 UNK     1      18.837   3.183  30.499  1.00  0.00     0.039 A 
BRANCH  17  19
HETATM   19  O3  UNK     1      17.583   4.307  32.187  1.00  0.00    -0.351 OA
BRANCH  19  20
HETATM   20  C23 UNK     1      18.187   4.932  33.317  1.00  0.00     0.171 C 
HETATM   21  C25 UNK     1      18.951   6.154  32.855  1.00  0.00     0.034 C 
ENDBRANCH  19  20
ENDBRANCH  17  19
ENDBRANCH   7   8
ENDBRANCH   1   7
BRANCH   2  22
HETATM   22  C6  UNK     1      20.735  -3.594  37.929  1.00  0.00     0.375 C 
BRANCH  22  23
HETATM   23  C9  UNK     1      20.940  -5.090  37.762  1.00  0.00     0.250 C 
HETATM   24  O2  UNK     1      22.045  -5.589  37.571  1.00  0.00    -0.271 OA
HETATM   25  N3  UNK     1      19.721  -5.758  37.862  1.00  0.00    -0.325 N 
HETATM   26  H15 UNK     1      18.898  -5.188  38.032  1.00  0.00     0.169 HD
BRANCH  25  27
HETATM   27  C16 UNK     1      19.490  -7.150  37.762  1.00  0.00     0.042 A 
HETATM   28  C18 UNK     1      19.025  -7.715  36.573  1.00  0.00    -0.035 A 
HETATM   29  C20 UNK     1      18.802  -9.089  36.494  1.00  0.00     0.011 A 
HETATM   30  C21 UNK     1      18.755  -6.870  35.370  1.00  0.00     0.050 C 
HETATM   31  C24 UNK     1      19.044  -9.900  37.603  1.00  0.00     0.024 A 
HETATM   32  C22 UNK     1      19.509  -9.336  38.792  1.00  0.00     0.036 A 
HETATM   33  C19 UNK     1      19.732  -7.962  38.871  1.00  0.00     0.053 A 
HETATM   34 Cl1  UNK     1      19.808 -10.338  40.159  1.00  0.00    -0.084 Cl
ENDBRANCH  25  27
ENDBRANCH  22  23
ENDBRANCH   2  22
TORSDOF 7
ENDMDL
MODEL 8
REMARK VINA RESULT:      -8.6      6.312     10.914
REMARK  7 active torsions:
REMARK  status: ('A' for Active; 'I' for Inactive)
REMARK    1  A    between atoms: C15_23  and  O3_4 
REMARK    2  A    between atoms: C23_31  and  O3_4 
REMARK    3  A    between atoms: C5_13  and  N1_6 
REMARK    4  A    between atoms: C6_14  and  N2_7 
REMARK    5  A    between atoms: C16_24  and  N3_8 
REMARK       I    between atoms: C9_17  and  N3_8 
REMARK    6  A    between atoms: C5_13  and  C7_15 
REMARK    7  A    between atoms: C6_14  and  C9_17 
ROOT
HETATM    1  N1  UNK     1      23.557  -8.545  38.630  1.00  0.00     0.096 N 
HETATM    2  N2  UNK     1      26.099  -8.759  37.270  1.00  0.00     0.100 N 
HETATM    3  C1  UNK     1      24.735  -7.805  39.095  1.00  0.00     0.303 C 
HETATM    4  C2  UNK     1      23.630  -8.767  37.180  1.00  0.00     0.303 C 
HETATM    5  C3  UNK     1      26.025  -8.540  38.719  1.00  0.00     0.303 C 
HETATM    6  C4  UNK     1      24.921  -9.503  36.804  1.00  0.00     0.303 C 
ENDROOT
BRANCH   1   7
HETATM    7  C5  UNK     1      22.326  -7.841  38.986  1.00  0.00     0.312 C 
BRANCH   7   8
HETATM    8  C7  UNK     1      21.116  -8.501  38.419  1.00  0.00    -0.011 A 
HETATM    9  C10 UNK     1      20.729  -9.713  38.838  1.00  0.00     0.092 A 
HETATM   10  C13 UNK     1      19.542 -10.405  38.307  1.00  0.00     0.288 A 
HETATM   11  O1  UNK     1      18.818  -9.739  37.330  1.00  0.00    -0.275 OA
HETATM   12  O4  UNK     1      19.218 -11.515  38.715  1.00  0.00    -0.260 OA
HETATM   13  C11 UNK     1      19.201  -8.464  36.870  1.00  0.00     0.090 A 
HETATM   14  C8  UNK     1      20.329  -7.820  37.382  1.00  0.00     0.009 A 
HETATM   15  C14 UNK     1      18.399  -7.889  35.883  1.00  0.00     0.041 A 
HETATM   16  C12 UNK     1      20.643  -6.555  36.870  1.00  0.00     0.051 A 
HETATM   17  C15 UNK     1      19.848  -5.966  35.881  1.00  0.00     0.069 A 
HETATM   18  C17 UNK     1      18.728  -6.632  35.387  1.00  0.00     0.039 A 
BRANCH  17  19
HETATM   19  O3  UNK     1      20.171  -4.734  35.396  1.00  0.00    -0.351 OA
BRANCH  19  20
HETATM   20  C23 UNK     1      19.899  -3.615  36.238  1.00  0.00     0.171 C 
HETATM   21  C25 UNK     1      20.368  -2.353  35.546  1.00  0.00     0.034 C 
ENDBRANCH  19  20
ENDBRANCH  17  19
ENDBRANCH   7   8
ENDBRANCH   1   7
BRANCH   2  22
HETATM   22  C6  UNK     1      27.329  -9.462  36.913  1.00  0.00     0.375 C 
BRANCH  22  23
HETATM   23  C9  UNK     1      28.528  -8.618  37.311  1.00  0.00     0.250 C 
HETATM   24  O2  UNK     1      29.423  -9.040  38.035  1.00  0.00    -0.271 OA
HETATM   25  N3  UNK     1      28.438  -7.352  36.736  1.00  0.00    -0.325 N 
HETATM   26  H15 UNK     1      27.628  -7.170  36.150  1.00  0.00     0.169 HD
BRANCH  25  27
HETATM   27  C16 UNK     1      29.351  -6.279  36.863  1.00  0.00     0.042 A 
HETATM   28  C18 UNK     1      29.187  -5.314  37.858  1.00  0.00    -0.035 A 
HETATM   29  C20 UNK     1      30.098  -4.263  37.968  1.00  0.00     0.011 A 
HETATM   30  C21 UNK     1      28.043  -5.379  38.817  1.00  0.00     0.050 C 
HETATM   31  C24 UNK     1      31.174  -4.178  37.084  1.00  0.00     0.024 A 
HETATM   32  C22 UNK     1      31.339  -5.142  36.090  1.00  0.00     0.036 A 
HETATM   33  C19 UNK     1      30.428  -6.193  35.981  1.00  0.00     0.053 A 
HETATM   34 Cl1  UNK     1      32.667  -5.037  35.002  1.00  0.00    -0.084 Cl
ENDBRANCH  25  27
ENDBRANCH  22  23
ENDBRANCH   2  22
TORSDOF 7
ENDMDL
MODEL 9
REMARK VINA RESULT:      -8.6     12.542     16.910
REMARK  7 active torsions:
REMARK  status: ('A' for Active; 'I' for Inactive)
REMARK    1  A    between atoms: C15_23  and  O3_4 
REMARK    2  A    between atoms: C23_31  and  O3_4 
REMARK    3  A    between atoms: C5_13  and  N1_6 
REMARK    4  A    between atoms: C6_14  and  N2_7 
REMARK    5  A    between atoms: C16_24  and  N3_8 
REMARK       I    between atoms: C9_17  and  N3_8 
REMARK    6  A    between atoms: C5_13  and  C7_15 
REMARK    7  A    between atoms: C6_14  and  C9_17 
ROOT
HETATM    1  N1  UNK     1      32.368  -5.730  35.906  1.00  0.00     0.096 N 
HETATM    2  N2  UNK     1      35.018  -6.343  34.928  1.00  0.00     0.100 N 
HETATM    3  C1  UNK     1      33.415  -4.705  35.849  1.00  0.00     0.303 C 
HETATM    4  C2  UNK     1      32.581  -6.739  34.861  1.00  0.00     0.303 C 
HETATM    5  C3  UNK     1      34.806  -5.336  35.974  1.00  0.00     0.303 C 
HETATM    6  C4  UNK     1      33.971  -7.371  34.986  1.00  0.00     0.303 C 
ENDROOT
BRANCH   1   7
HETATM    7  C5  UNK     1      31.042  -5.127  35.783  1.00  0.00     0.312 C 
BRANCH   7   8
HETATM    8  C7  UNK     1      30.246  -5.257  37.036  1.00  0.00    -0.011 A 
HETATM    9  C10 UNK     1      30.299  -4.318  37.990  1.00  0.00     0.092 A 
HETATM   10  C13 UNK     1      29.531  -4.404  39.244  1.00  0.00     0.288 A 
HETATM   11  O1  UNK     1      28.729  -5.522  39.409  1.00  0.00    -0.275 OA
HETATM   12  O4  UNK     1      29.605  -3.524  40.095  1.00  0.00    -0.260 OA
HETATM   13  C11 UNK     1      28.654  -6.526  38.423  1.00  0.00     0.090 A 
HETATM   14  C8  UNK     1      29.388  -6.432  37.239  1.00  0.00     0.009 A 
HETATM   15  C14 UNK     1      27.816  -7.608  38.696  1.00  0.00     0.041 A 
HETATM   16  C12 UNK     1      29.259  -7.472  36.310  1.00  0.00     0.051 A 
HETATM   17  C15 UNK     1      28.422  -8.564  36.570  1.00  0.00     0.069 A 
HETATM   18  C17 UNK     1      27.702  -8.632  37.761  1.00  0.00     0.039 A 
BRANCH  17  19
HETATM   19  O3  UNK     1      28.311  -9.565  35.654  1.00  0.00    -0.351 OA
BRANCH  19  20
HETATM   20  C23 UNK     1      29.461  -9.848  34.858  1.00  0.00     0.171 C 
HETATM   21  C25 UNK     1      29.015 -10.203  33.456  1.00  0.00     0.034 C 
ENDBRANCH  19  20
ENDBRANCH  17  19
ENDBRANCH   7   8
ENDBRANCH   1   7
BRANCH   2  22
HETATM   22  C6  UNK     1      36.344  -6.946  35.049  1.00  0.00     0.375 C 
BRANCH  22  23
HETATM   23  C9  UNK     1      36.684  -7.684  33.765  1.00  0.00     0.250 C 
HETATM   24  O2  UNK     1      36.692  -7.134  32.669  1.00  0.00    -0.271 OA
HETATM   25  N3  UNK     1      36.972  -9.019  34.039  1.00  0.00    -0.325 N 
HETATM   26  H15 UNK     1      36.927  -9.309  35.012  1.00  0.00     0.169 HD
BRANCH  25  27
HETATM   27  C16 UNK     1      37.332 -10.031  33.117  1.00  0.00     0.042 A 
HETATM   28  C18 UNK     1      36.377 -10.918  32.620  1.00  0.00    -0.035 A 
HETATM   29  C20 UNK     1      36.751 -11.909  31.712  1.00  0.00     0.011 A 
HETATM   30  C21 UNK     1      34.947 -10.832  33.044  1.00  0.00     0.050 C 
HETATM   31  C24 UNK     1      38.080 -12.012  31.301  1.00  0.00     0.024 A 
HETATM   32  C22 UNK     1      39.035 -11.125  31.797  1.00  0.00     0.036 A 
HETATM   33  C19 UNK     1      38.661 -10.134  32.705  1.00  0.00     0.053 A 
HETATM   34 Cl1  UNK     1      40.674 -11.253  31.288  1.00  0.00    -0.084 Cl
ENDBRANCH  25  27
ENDBRANCH  22  23
ENDBRANCH   2  22
TORSDOF 7
ENDMDL
MODEL 10
REMARK VINA RESULT:      -8.3      8.333     12.539
REMARK  7 active torsions:
REMARK  status: ('A' for Active; 'I' for Inactive)
REMARK    1  A    between atoms: C15_23  and  O3_4 
REMARK    2  A    between atoms: C23_31  and  O3_4 
REMARK    3  A    between atoms: C5_13  and  N1_6 
REMARK    4  A    between atoms: C6_14  and  N2_7 
REMARK    5  A    between atoms: C16_24  and  N3_8 
REMARK       I    between atoms: C9_17  and  N3_8 
REMARK    6  A    between atoms: C5_13  and  C7_15 
REMARK    7  A    between atoms: C6_14  and  C9_17 
ROOT
HETATM    1  N1  UNK     1      29.642  -8.636  37.530  1.00  0.00     0.096 N 
HETATM    2  N2  UNK     1      26.754  -8.707  37.614  1.00  0.00     0.100 N 
HETATM    3  C1  UNK     1      28.833  -7.756  36.680  1.00  0.00     0.303 C 
HETATM    4  C2  UNK     1      28.923  -8.954  38.770  1.00  0.00     0.303 C 
HETATM    5  C3  UNK     1      27.473  -8.392  36.374  1.00  0.00     0.303 C 
HETATM    6  C4  UNK     1      27.563  -9.590  38.465  1.00  0.00     0.303 C 
ENDROOT
BRANCH   1   7
HETATM    7  C5  UNK     1      30.939  -8.026  37.823  1.00  0.00     0.312 C 
BRANCH   7   8
HETATM    8  C7  UNK     1      30.863  -6.539  37.870  1.00  0.00    -0.011 A 
HETATM    9  C10 UNK     1      30.047  -5.914  38.730  1.00  0.00     0.092 A 
HETATM   10  C13 UNK     1      29.937  -4.448  38.812  1.00  0.00     0.288 A 
HETATM   11  O1  UNK     1      30.731  -3.714  37.945  1.00  0.00    -0.275 OA
HETATM   12  O4  UNK     1      29.178  -3.911  39.613  1.00  0.00    -0.260 OA
HETATM   13  C11 UNK     1      31.599  -4.343  37.030  1.00  0.00     0.090 A 
HETATM   14  C8  UNK     1      31.691  -5.735  36.962  1.00  0.00     0.009 A 
HETATM   15  C14 UNK     1      32.349  -3.505  36.203  1.00  0.00     0.041 A 
HETATM   16  C12 UNK     1      32.576  -6.282  36.025  1.00  0.00     0.051 A 
HETATM   17  C15 UNK     1      33.336  -5.454  35.190  1.00  0.00     0.069 A 
HETATM   18  C17 UNK     1      33.222  -4.068  35.278  1.00  0.00     0.039 A 
BRANCH  17  19
HETATM   19  O3  UNK     1      34.191  -6.006  34.284  1.00  0.00    -0.351 OA
BRANCH  19  20
HETATM   20  C23 UNK     1      34.839  -7.220  34.661  1.00  0.00     0.171 C 
HETATM   21  C25 UNK     1      36.321  -6.958  34.821  1.00  0.00     0.034 C 
ENDBRANCH  19  20
ENDBRANCH  17  19
ENDBRANCH   7   8
ENDBRANCH   1   7
BRANCH   2  22
HETATM   22  C6  UNK     1      25.457  -9.315  37.322  1.00  0.00     0.375 C 
BRANCH  22  23
HETATM   23  C9  UNK     1      24.347  -8.379  37.771  1.00  0.00     0.250 C 
HETATM   24  O2  UNK     1      24.570  -7.295  38.300  1.00  0.00    -0.271 OA
HETATM   25  N3  UNK     1      23.103  -8.937  37.487  1.00  0.00    -0.325 N 
HETATM   26  H15 UNK     1      23.099  -9.846  37.034  1.00  0.00     0.169 HD
BRANCH  25  27
HETATM   27  C16 UNK     1      21.828  -8.381  37.749  1.00  0.00     0.042 A 
HETATM   28  C18 UNK     1      21.347  -8.278  39.055  1.00  0.00    -0.035 A 
HETATM   29  C20 UNK     1      20.088  -7.728  39.294  1.00  0.00     0.011 A 
HETATM   30  C21 UNK     1      22.159  -8.753  40.217  1.00  0.00     0.050 C 
HETATM   31  C24 UNK     1      19.310  -7.279  38.227  1.00  0.00     0.024 A 
HETATM   32  C22 UNK     1      19.790  -7.382  36.921  1.00  0.00     0.036 A 
HETATM   33  C19 UNK     1      21.049  -7.932  36.683  1.00  0.00     0.053 A 
HETATM   34 Cl1  UNK     1      18.829  -6.827  35.606  1.00  0.00    -0.084 Cl
ENDBRANCH  25  27
ENDBRANCH  22  23
ENDBRANCH   2  22
TORSDOF 7
ENDMDL
