MODEL 1
REMARK VINA RESULT:      -9.6      0.000      0.000
REMARK  8 active torsions:
REMARK  status: ('A' for Active; 'I' for Inactive)
REMARK    1  A    between atoms: C16_22  and  O1_1 
REMARK    2  A    between atoms: C20_26  and  O1_1 
REMARK    3  A    between atoms: C23_29  and  N1_6 
REMARK    4  A    between atoms: C1_7  and  C2_8 
REMARK    5  A    between atoms: C10_16  and  C7_13 
REMARK    6  A    between atoms: C11_17  and  C13_19 
REMARK    7  A    between atoms: C12_18  and  C13_19 
REMARK    8  A    between atoms: C19_25  and  C20_26 
ROOT
HETATM    1  C12 UNK     1      19.449   5.698  32.357  1.00  0.00     0.014 A 
HETATM    2  C14 UNK     1      19.615   5.521  30.999  1.00  0.00     0.018 A 
HETATM    3  C15 UNK     1      18.639   4.872  33.112  1.00  0.00     0.018 A 
HETATM    4  C16 UNK     1      18.118   3.627  31.106  1.00  0.00     0.079 A 
HETATM    5  C17 UNK     1      18.942   4.476  30.367  1.00  0.00     0.038 A 
HETATM    6  C18 UNK     1      17.965   3.826  32.479  1.00  0.00     0.038 A 
ENDROOT
BRANCH   1   7
HETATM    7  C13 UNK     1      20.164   6.809  33.030  1.00  0.00     0.182 C 
HETATM    8  O2  UNK     1      21.387   6.868  32.975  1.00  0.00    -0.288 OA
BRANCH   7   9
HETATM    9  C11 UNK     1      19.346   7.803  33.781  1.00  0.00     0.056 C 
HETATM   10  C10 UNK     1      18.250   8.354  33.214  1.00  0.00     0.015 C 
BRANCH  10  11
HETATM   11  C7  UNK     1      17.387   9.342  33.842  1.00  0.00    -0.036 A 
HETATM   12  C8  UNK     1      17.797  10.673  33.926  1.00  0.00     0.012 A 
HETATM   13  C5  UNK     1      16.970  11.622  34.527  1.00  0.00     0.008 A 
HETATM   14  C2  UNK     1      15.733  11.238  35.046  1.00  0.00    -0.055 A 
HETATM   15  C6  UNK     1      15.324   9.907  34.962  1.00  0.00     0.008 A 
HETATM   16  C9  UNK     1      16.151   8.960  34.360  1.00  0.00     0.012 A 
BRANCH  14  17
HETATM   17  C1  UNK     1      14.847  12.252  35.689  1.00  0.00     0.010 C 
HETATM   18  C3  UNK     1      15.642  13.336  36.441  1.00  0.00     0.015 C 
HETATM   19  C4  UNK     1      13.811  11.614  36.633  1.00  0.00     0.015 C 
ENDBRANCH  14  17
ENDBRANCH  10  11
ENDBRANCH   7   9
ENDBRANCH   1   7
BRANCH   4  20
HETATM   20  O1  UNK     1      17.460   2.608  30.490  1.00  0.00    -0.275 OA
BRANCH  20  21
HETATM   21  C20 UNK     1      18.215   1.932  29.530  1.00  0.00     0.298 C 
HETATM   22  O3  UNK     1      18.273   2.214  28.342  1.00  0.00    -0.259 OA
BRANCH  21  23
HETATM   23  C19 UNK     1      18.948   0.789  30.132  1.00  0.00     0.040 A 
HETATM   24  C21 UNK     1      18.676   0.436  31.437  1.00  0.00     0.020 A 
HETATM   25  C24 UNK     1      19.364  -0.637  32.003  1.00  0.00     0.037 A 
HETATM   26  C23 UNK     1      20.310  -1.334  31.250  1.00  0.00     0.102 A 
HETATM   27  C25 UNK     1      20.567  -0.957  29.932  1.00  0.00     0.037 A 
HETATM   28  C22 UNK     1      19.878   0.116  29.366  1.00  0.00     0.020 A 
BRANCH  26  29
HETATM   29  N1  UNK     1      21.010  -2.426  31.826  1.00  0.00    -0.116 N 
HETATM   30  O4  UNK     1      21.496  -2.299  32.975  1.00  0.00    -0.532 OA
HETATM   31  O5  UNK     1      21.124  -3.490  31.169  1.00  0.00    -0.532 OA
ENDBRANCH  26  29
ENDBRANCH  21  23
ENDBRANCH  20  21
ENDBRANCH   4  20
TORSDOF 8
ENDMDL
MODEL 2
REMARK VINA RESULT:      -9.3     22.527     24.274
REMARK  8 active torsions:
REMARK  status: ('A' for Active; 'I' for Inactive)
REMARK    1  A    between atoms: C16_22  and  O1_1 
REMARK    2  A    between atoms: C20_26  and  O1_1 
REMARK    3  A    between atoms: C23_29  and  N1_6 
REMARK    4  A    between atoms: C1_7  and  C2_8 
REMARK    5  A    between atoms: C10_16  and  C7_13 
REMARK    6  A    between atoms: C11_17  and  C13_19 
REMARK    7  A    between atoms: C12_18  and  C13_19 
REMARK    8  A    between atoms: C19_25  and  C20_26 
ROOT
HETATM    1  C12 UNK     1      16.597   9.847   9.922  1.00  0.00     0.014 A 
HETATM    2  C14 UNK     1      17.404   8.729   9.851  1.00  0.00     0.018 A 
HETATM    3  C15 UNK     1      15.277   9.776  10.324  1.00  0.00     0.018 A 
HETATM    4  C16 UNK     1      15.540   7.389  10.607  1.00  0.00     0.079 A 
HETATM    5  C17 UNK     1      16.870   7.488  10.196  1.00  0.00     0.038 A 
HETATM    6  C18 UNK     1      14.744   8.533  10.670  1.00  0.00     0.038 A 
ENDROOT
BRANCH   1   7
HETATM    7  C13 UNK     1      17.164  11.167   9.554  1.00  0.00     0.182 C 
HETATM    8  O2  UNK     1      16.416  12.075   9.209  1.00  0.00    -0.288 OA
BRANCH   7   9
HETATM    9  C11 UNK     1      18.645  11.318   9.593  1.00  0.00     0.056 C 
HETATM   10  C10 UNK     1      19.240  11.963  10.621  1.00  0.00     0.015 C 
BRANCH  10  11
HETATM   11  C7  UNK     1      20.671  12.185  10.757  1.00  0.00    -0.036 A 
HETATM   12  C8  UNK     1      21.483  12.214   9.624  1.00  0.00     0.012 A 
HETATM   13  C5  UNK     1      22.855  12.428   9.754  1.00  0.00     0.008 A 
HETATM   14  C2  UNK     1      23.415  12.611  11.018  1.00  0.00    -0.055 A 
HETATM   15  C6  UNK     1      22.602  12.582  12.152  1.00  0.00     0.008 A 
HETATM   16  C9  UNK     1      21.230  12.369  12.021  1.00  0.00     0.012 A 
BRANCH  14  17
HETATM   17  C1  UNK     1      24.882  12.841  11.159  1.00  0.00     0.010 C 
HETATM   18  C3  UNK     1      25.704  11.557  10.931  1.00  0.00     0.015 C 
HETATM   19  C4  UNK     1      25.254  13.465  12.517  1.00  0.00     0.015 C 
ENDBRANCH  14  17
ENDBRANCH  10  11
ENDBRANCH   7   9
ENDBRANCH   1   7
BRANCH   4  20
HETATM   20  O1  UNK     1      15.018   6.178  10.942  1.00  0.00    -0.275 OA
BRANCH  20  21
HETATM   21  C20 UNK     1      14.938   5.272   9.883  1.00  0.00     0.298 C 
HETATM   22  O3  UNK     1      15.755   4.399   9.630  1.00  0.00    -0.259 OA
BRANCH  21  23
HETATM   23  C19 UNK     1      13.720   5.508   9.066  1.00  0.00     0.040 A 
HETATM   24  C21 UNK     1      13.857   6.073   7.815  1.00  0.00     0.020 A 
HETATM   25  C24 UNK     1      12.713   6.295   7.047  1.00  0.00     0.037 A 
HETATM   26  C23 UNK     1      11.458   5.946   7.548  1.00  0.00     0.102 A 
HETATM   27  C25 UNK     1      11.348   5.377   8.817  1.00  0.00     0.037 A 
HETATM   28  C22 UNK     1      12.491   5.155   9.584  1.00  0.00     0.020 A 
BRANCH  26  29
HETATM   29  N1  UNK     1      10.295   6.172   6.767  1.00  0.00    -0.116 N 
HETATM   30  O4  UNK     1      10.382   6.879   5.735  1.00  0.00    -0.532 OA
HETATM   31  O5  UNK     1       9.209   5.657   7.130  1.00  0.00    -0.532 OA
ENDBRANCH  26  29
ENDBRANCH  21  23
ENDBRANCH  20  21
ENDBRANCH   4  20
TORSDOF 8
ENDMDL
MODEL 3
REMARK VINA RESULT:      -9.3     22.448     24.208
REMARK  8 active torsions:
REMARK  status: ('A' for Active; 'I' for Inactive)
REMARK    1  A    between atoms: C16_22  and  O1_1 
REMARK    2  A    between atoms: C20_26  and  O1_1 
REMARK    3  A    between atoms: C23_29  and  N1_6 
REMARK    4  A    between atoms: C1_7  and  C2_8 
REMARK    5  A    between atoms: C10_16  and  C7_13 
REMARK    6  A    between atoms: C11_17  and  C13_19 
REMARK    7  A    between atoms: C12_18  and  C13_19 
REMARK    8  A    between atoms: C19_25  and  C20_26 
ROOT
HETATM    1  C12 UNK     1      16.547   9.873  10.144  1.00  0.00     0.014 A 
HETATM    2  C14 UNK     1      15.283   9.784  10.690  1.00  0.00     0.018 A 
HETATM    3  C15 UNK     1      17.309   8.753   9.869  1.00  0.00     0.018 A 
HETATM    4  C16 UNK     1      15.506   7.378  10.707  1.00  0.00     0.079 A 
HETATM    5  C17 UNK     1      14.757   8.525  10.975  1.00  0.00     0.038 A 
HETATM    6  C18 UNK     1      16.782   7.493  10.155  1.00  0.00     0.038 A 
ENDROOT
BRANCH   1   7
HETATM    7  C13 UNK     1      17.107  11.212   9.841  1.00  0.00     0.182 C 
HETATM    8  O2  UNK     1      16.352  12.148   9.604  1.00  0.00    -0.288 OA
BRANCH   7   9
HETATM    9  C11 UNK     1      18.590  11.350   9.808  1.00  0.00     0.056 C 
HETATM   10  C10 UNK     1      19.241  11.978  10.813  1.00  0.00     0.015 C 
BRANCH  10  11
HETATM   11  C7  UNK     1      20.678  12.186  10.881  1.00  0.00    -0.036 A 
HETATM   12  C8  UNK     1      21.429  12.261   9.708  1.00  0.00     0.012 A 
HETATM   13  C5  UNK     1      22.807  12.462   9.773  1.00  0.00     0.008 A 
HETATM   14  C2  UNK     1      23.436  12.586  11.012  1.00  0.00    -0.055 A 
HETATM   15  C6  UNK     1      22.685  12.511  12.185  1.00  0.00     0.008 A 
HETATM   16  C9  UNK     1      21.306  12.311  12.120  1.00  0.00     0.012 A 
BRANCH  14  17
HETATM   17  C1  UNK     1      24.910  12.801  11.083  1.00  0.00     0.010 C 
HETATM   18  C3  UNK     1      25.706  11.493  10.907  1.00  0.00     0.015 C 
HETATM   19  C4  UNK     1      25.342  13.504  12.384  1.00  0.00     0.015 C 
ENDBRANCH  14  17
ENDBRANCH  10  11
ENDBRANCH   7   9
ENDBRANCH   1   7
BRANCH   4  20
HETATM   20  O1  UNK     1      14.994   6.149  10.987  1.00  0.00    -0.275 OA
BRANCH  20  21
HETATM   21  C20 UNK     1      14.944   5.283   9.892  1.00  0.00     0.298 C 
HETATM   22  O3  UNK     1      15.780   4.437   9.615  1.00  0.00    -0.259 OA
BRANCH  21  23
HETATM   23  C19 UNK     1      13.730   5.526   9.072  1.00  0.00     0.040 A 
HETATM   24  C21 UNK     1      12.496   5.199   9.595  1.00  0.00     0.020 A 
HETATM   25  C24 UNK     1      11.355   5.426   8.824  1.00  0.00     0.037 A 
HETATM   26  C23 UNK     1      11.474   5.977   7.548  1.00  0.00     0.102 A 
HETATM   27  C25 UNK     1      12.734   6.299   7.042  1.00  0.00     0.037 A 
HETATM   28  C22 UNK     1      13.874   6.072   7.813  1.00  0.00     0.020 A 
BRANCH  26  29
HETATM   29  N1  UNK     1      10.314   6.208   6.764  1.00  0.00    -0.116 N 
HETATM   30  O4  UNK     1      10.397   6.953   5.758  1.00  0.00    -0.532 OA
HETATM   31  O5  UNK     1       9.235   5.660   7.098  1.00  0.00    -0.532 OA
ENDBRANCH  26  29
ENDBRANCH  21  23
ENDBRANCH  20  21
ENDBRANCH   4  20
TORSDOF 8
ENDMDL
MODEL 4
REMARK VINA RESULT:      -9.2     22.451     24.221
REMARK  8 active torsions:
REMARK  status: ('A' for Active; 'I' for Inactive)
REMARK    1  A    between atoms: C16_22  and  O1_1 
REMARK    2  A    between atoms: C20_26  and  O1_1 
REMARK    3  A    between atoms: C23_29  and  N1_6 
REMARK    4  A    between atoms: C1_7  and  C2_8 
REMARK    5  A    between atoms: C10_16  and  C7_13 
REMARK    6  A    between atoms: C11_17  and  C13_19 
REMARK    7  A    between atoms: C12_18  and  C13_19 
REMARK    8  A    between atoms: C19_25  and  C20_26 
ROOT
HETATM    1  C12 UNK     1      16.547   9.872  10.158  1.00  0.00     0.014 A 
HETATM    2  C14 UNK     1      17.291   8.745   9.872  1.00  0.00     0.018 A 
HETATM    3  C15 UNK     1      15.285   9.797  10.715  1.00  0.00     0.018 A 
HETATM    4  C16 UNK     1      15.481   7.387  10.717  1.00  0.00     0.079 A 
HETATM    5  C17 UNK     1      16.753   7.491  10.154  1.00  0.00     0.038 A 
HETATM    6  C18 UNK     1      14.746   8.541  10.997  1.00  0.00     0.038 A 
ENDROOT
BRANCH   1   7
HETATM    7  C13 UNK     1      17.119  11.207   9.857  1.00  0.00     0.182 C 
HETATM    8  O2  UNK     1      16.372  12.147   9.610  1.00  0.00    -0.288 OA
BRANCH   7   9
HETATM    9  C11 UNK     1      18.603  11.335   9.841  1.00  0.00     0.056 C 
HETATM   10  C10 UNK     1      19.239  12.044  10.800  1.00  0.00     0.015 C 
BRANCH  10  11
HETATM   11  C7  UNK     1      20.676  12.251  10.877  1.00  0.00    -0.036 A 
HETATM   12  C8  UNK     1      21.304  12.331  12.120  1.00  0.00     0.012 A 
HETATM   13  C5  UNK     1      22.682  12.529  12.194  1.00  0.00     0.008 A 
HETATM   14  C2  UNK     1      23.433  12.648  11.024  1.00  0.00    -0.055 A 
HETATM   15  C6  UNK     1      22.805  12.568   9.781  1.00  0.00     0.008 A 
HETATM   16  C9  UNK     1      21.426  12.369   9.708  1.00  0.00     0.012 A 
BRANCH  14  17
HETATM   17  C1  UNK     1      24.908  12.859  11.102  1.00  0.00     0.010 C 
HETATM   18  C3  UNK     1      25.702  11.562  10.854  1.00  0.00     0.015 C 
HETATM   19  C4  UNK     1      25.343  13.492  12.436  1.00  0.00     0.015 C 
ENDBRANCH  14  17
ENDBRANCH  10  11
ENDBRANCH   7   9
ENDBRANCH   1   7
BRANCH   4  20
HETATM   20  O1  UNK     1      14.954   6.163  10.991  1.00  0.00    -0.275 OA
BRANCH  20  21
HETATM   21  C20 UNK     1      14.911   5.296   9.898  1.00  0.00     0.298 C 
HETATM   22  O3  UNK     1      15.749   4.449   9.627  1.00  0.00    -0.259 OA
BRANCH  21  23
HETATM   23  C19 UNK     1      13.703   5.539   9.068  1.00  0.00     0.040 A 
HETATM   24  C21 UNK     1      13.859   6.065   7.802  1.00  0.00     0.020 A 
HETATM   25  C24 UNK     1      12.725   6.293   7.023  1.00  0.00     0.037 A 
HETATM   26  C23 UNK     1      11.460   5.990   7.527  1.00  0.00     0.102 A 
HETATM   27  C25 UNK     1      11.329   5.459   8.810  1.00  0.00     0.037 A 
HETATM   28  C22 UNK     1      12.463   5.231   9.589  1.00  0.00     0.020 A 
BRANCH  26  29
HETATM   29  N1  UNK     1      10.306   6.222   6.733  1.00  0.00    -0.116 N 
HETATM   30  O4  UNK     1       9.221   5.688   7.065  1.00  0.00    -0.532 OA
HETATM   31  O5  UNK     1      10.402   6.958   5.721  1.00  0.00    -0.532 OA
ENDBRANCH  26  29
ENDBRANCH  21  23
ENDBRANCH  20  21
ENDBRANCH   4  20
TORSDOF 8
ENDMDL
MODEL 5
REMARK VINA RESULT:      -9.0      6.193      9.245
REMARK  8 active torsions:
REMARK  status: ('A' for Active; 'I' for Inactive)
REMARK    1  A    between atoms: C16_22  and  O1_1 
REMARK    2  A    between atoms: C20_26  and  O1_1 
REMARK    3  A    between atoms: C23_29  and  N1_6 
REMARK    4  A    between atoms: C1_7  and  C2_8 
REMARK    5  A    between atoms: C10_16  and  C7_13 
REMARK    6  A    between atoms: C11_17  and  C13_19 
REMARK    7  A    between atoms: C12_18  and  C13_19 
REMARK    8  A    between atoms: C19_25  and  C20_26 
ROOT
HETATM    1  C12 UNK     1      18.292  -1.326  36.092  1.00  0.00     0.014 A 
HETATM    2  C14 UNK     1      17.911  -2.395  36.877  1.00  0.00     0.018 A 
HETATM    3  C15 UNK     1      19.402  -1.377  35.270  1.00  0.00     0.018 A 
HETATM    4  C16 UNK     1      19.795  -3.642  36.020  1.00  0.00     0.079 A 
HETATM    5  C17 UNK     1      18.670  -3.564  36.841  1.00  0.00     0.038 A 
HETATM    6  C18 UNK     1      20.161  -2.548  35.235  1.00  0.00     0.038 A 
ENDROOT
BRANCH   1   7
HETATM    7  C13 UNK     1      17.486  -0.082  36.130  1.00  0.00     0.182 C 
HETATM    8  O2  UNK     1      16.809   0.174  37.120  1.00  0.00    -0.288 OA
BRANCH   7   9
HETATM    9  C11 UNK     1      17.513   0.797  34.927  1.00  0.00     0.056 C 
HETATM   10  C10 UNK     1      18.209   1.956  34.943  1.00  0.00     0.015 C 
BRANCH  10  11
HETATM   11  C7  UNK     1      18.295   2.898  33.839  1.00  0.00    -0.036 A 
HETATM   12  C8  UNK     1      18.234   2.439  32.523  1.00  0.00     0.012 A 
HETATM   13  C5  UNK     1      18.315   3.342  31.464  1.00  0.00     0.008 A 
HETATM   14  C2  UNK     1      18.459   4.706  31.722  1.00  0.00    -0.055 A 
HETATM   15  C6  UNK     1      18.520   5.165  33.037  1.00  0.00     0.008 A 
HETATM   16  C9  UNK     1      18.438   4.261  34.096  1.00  0.00     0.012 A 
BRANCH  14  17
HETATM   17  C1  UNK     1      18.545   5.674  30.590  1.00  0.00     0.010 C 
HETATM   18  C3  UNK     1      19.993   5.892  30.110  1.00  0.00     0.015 C 
HETATM   19  C4  UNK     1      17.895   7.030  30.922  1.00  0.00     0.015 C 
ENDBRANCH  14  17
ENDBRANCH  10  11
ENDBRANCH   7   9
ENDBRANCH   1   7
BRANCH   4  20
HETATM   20  O1  UNK     1      20.537  -4.782  35.986  1.00  0.00    -0.275 OA
BRANCH  20  21
HETATM   21  C20 UNK     1      20.980  -5.218  37.236  1.00  0.00     0.298 C 
HETATM   22  O3  UNK     1      21.630  -4.556  38.031  1.00  0.00    -0.259 OA
BRANCH  21  23
HETATM   23  C19 UNK     1      20.573  -6.624  37.488  1.00  0.00     0.040 A 
HETATM   24  C21 UNK     1      20.211  -7.415  36.418  1.00  0.00     0.020 A 
HETATM   25  C24 UNK     1      19.828  -8.736  36.655  1.00  0.00     0.037 A 
HETATM   26  C23 UNK     1      19.817  -9.235  37.958  1.00  0.00     0.102 A 
HETATM   27  C25 UNK     1      20.187  -8.414  39.023  1.00  0.00     0.037 A 
HETATM   28  C22 UNK     1      20.570  -7.094  38.786  1.00  0.00     0.020 A 
BRANCH  26  29
HETATM   29  N1  UNK     1      19.427 -10.579  38.199  1.00  0.00    -0.116 N 
HETATM   30  O4  UNK     1      19.141 -10.929  39.369  1.00  0.00    -0.532 OA
HETATM   31  O5  UNK     1      19.378 -11.380  37.234  1.00  0.00    -0.532 OA
ENDBRANCH  26  29
ENDBRANCH  21  23
ENDBRANCH  20  21
ENDBRANCH   4  20
TORSDOF 8
ENDMDL
MODEL 6
REMARK VINA RESULT:      -8.8      4.177      6.824
REMARK  8 active torsions:
REMARK  status: ('A' for Active; 'I' for Inactive)
REMARK    1  A    between atoms: C16_22  and  O1_1 
REMARK    2  A    between atoms: C20_26  and  O1_1 
REMARK    3  A    between atoms: C23_29  and  N1_6 
REMARK    4  A    between atoms: C1_7  and  C2_8 
REMARK    5  A    between atoms: C10_16  and  C7_13 
REMARK    6  A    between atoms: C11_17  and  C13_19 
REMARK    7  A    between atoms: C12_18  and  C13_19 
REMARK    8  A    between atoms: C19_25  and  C20_26 
ROOT
HETATM    1  C12 UNK     1      19.482  -0.082  31.251  1.00  0.00     0.014 A 
HETATM    2  C14 UNK     1      20.569  -0.878  30.950  1.00  0.00     0.018 A 
HETATM    3  C15 UNK     1      18.710  -0.289  32.378  1.00  0.00     0.018 A 
HETATM    4  C16 UNK     1      20.137  -2.153  32.957  1.00  0.00     0.079 A 
HETATM    5  C17 UNK     1      20.899  -1.924  31.811  1.00  0.00     0.038 A 
HETATM    6  C18 UNK     1      19.041  -1.336  33.240  1.00  0.00     0.038 A 
ENDROOT
BRANCH   1   7
HETATM    7  C13 UNK     1      19.129   1.030  30.336  1.00  0.00     0.182 C 
HETATM    8  O2  UNK     1      19.383   0.937  29.140  1.00  0.00    -0.288 OA
BRANCH   7   9
HETATM    9  C11 UNK     1      18.499   2.242  30.931  1.00  0.00     0.056 C 
HETATM   10  C10 UNK     1      19.055   3.461  30.747  1.00  0.00     0.015 C 
BRANCH  10  11
HETATM   11  C7  UNK     1      18.541   4.707  31.292  1.00  0.00    -0.036 A 
HETATM   12  C8  UNK     1      17.974   4.731  32.566  1.00  0.00     0.012 A 
HETATM   13  C5  UNK     1      17.482   5.927  33.089  1.00  0.00     0.008 A 
HETATM   14  C2  UNK     1      17.555   7.098  32.335  1.00  0.00    -0.055 A 
HETATM   15  C6  UNK     1      18.121   7.074  31.061  1.00  0.00     0.008 A 
HETATM   16  C9  UNK     1      18.614   5.879  30.539  1.00  0.00     0.012 A 
BRANCH  14  17
HETATM   17  C1  UNK     1      17.029   8.378  32.893  1.00  0.00     0.010 C 
HETATM   18  C3  UNK     1      18.107   9.179  33.649  1.00  0.00     0.015 C 
HETATM   19  C4  UNK     1      15.803   8.166  33.801  1.00  0.00     0.015 C 
ENDBRANCH  14  17
ENDBRANCH  10  11
ENDBRANCH   7   9
ENDBRANCH   1   7
BRANCH   4  20
HETATM   20  O1  UNK     1      20.457  -3.174  33.796  1.00  0.00    -0.275 OA
BRANCH  20  21
HETATM   21  C20 UNK     1      20.479  -2.825  35.147  1.00  0.00     0.298 C 
HETATM   22  O3  UNK     1      20.642  -1.697  35.589  1.00  0.00    -0.259 OA
BRANCH  21  23
HETATM   23  C19 UNK     1      20.289  -4.017  36.013  1.00  0.00     0.040 A 
HETATM   24  C21 UNK     1      20.653  -3.940  37.341  1.00  0.00     0.020 A 
HETATM   25  C24 UNK     1      20.475  -5.059  38.155  1.00  0.00     0.037 A 
HETATM   26  C23 UNK     1      19.937  -6.231  37.621  1.00  0.00     0.102 A 
HETATM   27  C25 UNK     1      19.577  -6.283  36.275  1.00  0.00     0.037 A 
HETATM   28  C22 UNK     1      19.755  -5.163  35.461  1.00  0.00     0.020 A 
BRANCH  26  29
HETATM   29  N1  UNK     1      19.757  -7.369  38.449  1.00  0.00    -0.116 N 
HETATM   30  O4  UNK     1      18.761  -8.108  38.260  1.00  0.00    -0.532 OA
HETATM   31  O5  UNK     1      20.599  -7.607  39.349  1.00  0.00    -0.532 OA
ENDBRANCH  26  29
ENDBRANCH  21  23
ENDBRANCH  20  21
ENDBRANCH   4  20
TORSDOF 8
ENDMDL
MODEL 7
REMARK VINA RESULT:      -8.8     23.151     25.241
REMARK  8 active torsions:
REMARK  status: ('A' for Active; 'I' for Inactive)
REMARK    1  A    between atoms: C16_22  and  O1_1 
REMARK    2  A    between atoms: C20_26  and  O1_1 
REMARK    3  A    between atoms: C23_29  and  N1_6 
REMARK    4  A    between atoms: C1_7  and  C2_8 
REMARK    5  A    between atoms: C10_16  and  C7_13 
REMARK    6  A    between atoms: C11_17  and  C13_19 
REMARK    7  A    between atoms: C12_18  and  C13_19 
REMARK    8  A    between atoms: C19_25  and  C20_26 
ROOT
HETATM    1  C12 UNK     1      16.845   9.532  10.096  1.00  0.00     0.014 A 
HETATM    2  C14 UNK     1      17.491   8.329   9.898  1.00  0.00     0.018 A 
HETATM    3  C15 UNK     1      15.552   9.601  10.575  1.00  0.00     0.018 A 
HETATM    4  C16 UNK     1      15.509   7.186  10.676  1.00  0.00     0.079 A 
HETATM    5  C17 UNK     1      16.816   7.144  10.190  1.00  0.00     0.038 A 
HETATM    6  C18 UNK     1      14.877   8.415  10.868  1.00  0.00     0.038 A 
ENDROOT
BRANCH   1   7
HETATM    7  C13 UNK     1      17.562  10.793   9.785  1.00  0.00     0.182 C 
HETATM    8  O2  UNK     1      18.788  10.813   9.792  1.00  0.00    -0.288 OA
BRANCH   7   9
HETATM    9  C11 UNK     1      16.741  12.004   9.504  1.00  0.00     0.056 C 
HETATM   10  C10 UNK     1      16.485  12.375   8.229  1.00  0.00     0.015 C 
BRANCH  10  11
HETATM   11  C7  UNK     1      15.713  13.543   7.835  1.00  0.00    -0.036 A 
HETATM   12  C8  UNK     1      14.565  13.893   8.546  1.00  0.00     0.012 A 
HETATM   13  C5  UNK     1      13.825  15.013   8.169  1.00  0.00     0.008 A 
HETATM   14  C2  UNK     1      14.233  15.783   7.079  1.00  0.00    -0.055 A 
HETATM   15  C6  UNK     1      15.381  15.433   6.369  1.00  0.00     0.008 A 
HETATM   16  C9  UNK     1      16.121  14.313   6.746  1.00  0.00     0.012 A 
BRANCH  14  17
HETATM   17  C1  UNK     1      13.442  16.982   6.675  1.00  0.00     0.010 C 
HETATM   18  C3  UNK     1      13.925  18.268   7.371  1.00  0.00     0.015 C 
HETATM   19  C4  UNK     1      11.931  16.797   6.908  1.00  0.00     0.015 C 
ENDBRANCH  14  17
ENDBRANCH  10  11
ENDBRANCH   7   9
ENDBRANCH   1   7
BRANCH   4  20
HETATM   20  O1  UNK     1      14.850   6.031  10.960  1.00  0.00    -0.275 OA
BRANCH  20  21
HETATM   21  C20 UNK     1      14.769   5.136   9.891  1.00  0.00     0.298 C 
HETATM   22  O3  UNK     1      15.569   4.246   9.645  1.00  0.00    -0.259 OA
BRANCH  21  23
HETATM   23  C19 UNK     1      13.572   5.408   9.053  1.00  0.00     0.040 A 
HETATM   24  C21 UNK     1      13.743   6.010   7.824  1.00  0.00     0.020 A 
HETATM   25  C24 UNK     1      12.619   6.266   7.037  1.00  0.00     0.037 A 
HETATM   26  C23 UNK     1      11.350   5.914   7.498  1.00  0.00     0.102 A 
HETATM   27  C25 UNK     1      11.205   5.307   8.745  1.00  0.00     0.037 A 
HETATM   28  C22 UNK     1      12.328   5.051   9.532  1.00  0.00     0.020 A 
BRANCH  26  29
HETATM   29  N1  UNK     1      10.207   6.175   6.697  1.00  0.00    -0.116 N 
HETATM   30  O4  UNK     1      10.322   6.923   5.698  1.00  0.00    -0.532 OA
HETATM   31  O5  UNK     1       9.112   5.648   7.011  1.00  0.00    -0.532 OA
ENDBRANCH  26  29
ENDBRANCH  21  23
ENDBRANCH  20  21
ENDBRANCH   4  20
TORSDOF 8
ENDMDL
MODEL 8
REMARK VINA RESULT:      -8.7      5.683      8.825
REMARK  8 active torsions:
REMARK  status: ('A' for Active; 'I' for Inactive)
REMARK    1  A    between atoms: C16_22  and  O1_1 
REMARK    2  A    between atoms: C20_26  and  O1_1 
REMARK    3  A    between atoms: C23_29  and  N1_6 
REMARK    4  A    between atoms: C1_7  and  C2_8 
REMARK    5  A    between atoms: C10_16  and  C7_13 
REMARK    6  A    between atoms: C11_17  and  C13_19 
REMARK    7  A    between atoms: C12_18  and  C13_19 
REMARK    8  A    between atoms: C19_25  and  C20_26 
ROOT
HETATM    1  C12 UNK     1      18.584  -0.893  36.447  1.00  0.00     0.014 A 
HETATM    2  C14 UNK     1      18.681  -1.678  37.579  1.00  0.00     0.018 A 
HETATM    3  C15 UNK     1      19.153  -1.266  35.245  1.00  0.00     0.018 A 
HETATM    4  C16 UNK     1      19.958  -3.285  36.304  1.00  0.00     0.079 A 
HETATM    5  C17 UNK     1      19.375  -2.885  37.506  1.00  0.00     0.038 A 
HETATM    6  C18 UNK     1      19.848  -2.474  35.173  1.00  0.00     0.038 A 
ENDROOT
BRANCH   1   7
HETATM    7  C13 UNK     1      17.847   0.391  36.524  1.00  0.00     0.182 C 
HETATM    8  O2  UNK     1      16.854   0.481  37.237  1.00  0.00    -0.288 OA
BRANCH   7   9
HETATM    9  C11 UNK     1      18.341   1.522  35.690  1.00  0.00     0.056 C 
HETATM   10  C10 UNK     1      17.738   1.822  34.518  1.00  0.00     0.015 C 
BRANCH  10  11
HETATM   11  C7  UNK     1      18.141   2.889  33.616  1.00  0.00    -0.036 A 
HETATM   12  C8  UNK     1      18.478   4.143  34.125  1.00  0.00     0.012 A 
HETATM   13  C5  UNK     1      18.866   5.167  33.261  1.00  0.00     0.008 A 
HETATM   14  C2  UNK     1      18.914   4.935  31.886  1.00  0.00    -0.055 A 
HETATM   15  C6  UNK     1      18.577   3.681  31.376  1.00  0.00     0.008 A 
HETATM   16  C9  UNK     1      18.190   2.658  32.242  1.00  0.00     0.012 A 
BRANCH  14  17
HETATM   17  C1  UNK     1      19.329   6.029  30.959  1.00  0.00     0.010 C 
HETATM   18  C3  UNK     1      18.461   6.086  29.688  1.00  0.00     0.015 C 
HETATM   19  C4  UNK     1      20.817   5.941  30.572  1.00  0.00     0.015 C 
ENDBRANCH  14  17
ENDBRANCH  10  11
ENDBRANCH   7   9
ENDBRANCH   1   7
BRANCH   4  20
HETATM   20  O1  UNK     1      20.637  -4.462  36.233  1.00  0.00    -0.275 OA
BRANCH  20  21
HETATM   21  C20 UNK     1      19.833  -5.598  36.346  1.00  0.00     0.298 C 
HETATM   22  O3  UNK     1      18.630  -5.601  36.558  1.00  0.00    -0.259 OA
BRANCH  21  23
HETATM   23  C19 UNK     1      20.635  -6.839  36.191  1.00  0.00     0.040 A 
HETATM   24  C21 UNK     1      20.511  -7.571  35.028  1.00  0.00     0.020 A 
HETATM   25  C24 UNK     1      21.262  -8.737  34.882  1.00  0.00     0.037 A 
HETATM   26  C23 UNK     1      22.122  -9.145  35.902  1.00  0.00     0.102 A 
HETATM   27  C25 UNK     1      22.229  -8.387  37.068  1.00  0.00     0.037 A 
HETATM   28  C22 UNK     1      21.477  -7.221  37.215  1.00  0.00     0.020 A 
BRANCH  26  29
HETATM   29  N1  UNK     1      22.887 -10.331  35.753  1.00  0.00    -0.116 N 
HETATM   30  O4  UNK     1      22.433 -11.264  35.048  1.00  0.00    -0.532 OA
HETATM   31  O5  UNK     1      23.999 -10.415  36.330  1.00  0.00    -0.532 OA
ENDBRANCH  26  29
ENDBRANCH  21  23
ENDBRANCH  20  21
ENDBRANCH   4  20
TORSDOF 8
ENDMDL
MODEL 9
REMARK VINA RESULT:      -8.7      1.034      2.033
REMARK  8 active torsions:
REMARK  status: ('A' for Active; 'I' for Inactive)
REMARK    1  A    between atoms: C16_22  and  O1_1 
REMARK    2  A    between atoms: C20_26  and  O1_1 
REMARK    3  A    between atoms: C23_29  and  N1_6 
REMARK    4  A    between atoms: C1_7  and  C2_8 
REMARK    5  A    between atoms: C10_16  and  C7_13 
REMARK    6  A    between atoms: C11_17  and  C13_19 
REMARK    7  A    between atoms: C12_18  and  C13_19 
REMARK    8  A    between atoms: C19_25  and  C20_26 
ROOT
HETATM    1  C12 UNK     1      19.057   5.604  32.319  1.00  0.00     0.014 A 
HETATM    2  C14 UNK     1      18.422   4.667  33.109  1.00  0.00     0.018 A 
HETATM    3  C15 UNK     1      19.294   5.392  30.975  1.00  0.00     0.018 A 
HETATM    4  C16 UNK     1      18.233   3.229  31.176  1.00  0.00     0.079 A 
HETATM    5  C17 UNK     1      18.006   3.467  32.532  1.00  0.00     0.038 A 
HETATM    6  C18 UNK     1      18.878   4.192  30.398  1.00  0.00     0.038 A 
ENDROOT
BRANCH   1   7
HETATM    7  C13 UNK     1      19.500   6.879  32.933  1.00  0.00     0.182 C 
HETATM    8  O2  UNK     1      20.681   7.037  33.223  1.00  0.00    -0.288 OA
BRANCH   7   9
HETATM    9  C11 UNK     1      18.463   7.915  33.199  1.00  0.00     0.056 C 
HETATM   10  C10 UNK     1      18.807   9.102  33.748  1.00  0.00     0.015 C 
BRANCH  10  11
HETATM   11  C7  UNK     1      17.883  10.178  34.067  1.00  0.00    -0.036 A 
HETATM   12  C8  UNK     1      16.546   9.891  34.344  1.00  0.00     0.012 A 
HETATM   13  C5  UNK     1      15.660  10.922  34.651  1.00  0.00     0.008 A 
HETATM   14  C2  UNK     1      16.111  12.242  34.680  1.00  0.00    -0.055 A 
HETATM   15  C6  UNK     1      17.447  12.529  34.404  1.00  0.00     0.008 A 
HETATM   16  C9  UNK     1      18.333  11.497  34.097  1.00  0.00     0.012 A 
BRANCH  14  17
HETATM   17  C1  UNK     1      15.163  13.347  35.009  1.00  0.00     0.010 C 
HETATM   18  C3  UNK     1      13.756  12.830  35.365  1.00  0.00     0.015 C 
HETATM   19  C4  UNK     1      15.066  14.395  33.885  1.00  0.00     0.015 C 
ENDBRANCH  14  17
ENDBRANCH  10  11
ENDBRANCH   7   9
ENDBRANCH   1   7
BRANCH   4  20
HETATM   20  O1  UNK     1      17.829   2.058  30.613  1.00  0.00    -0.275 OA
BRANCH  20  21
HETATM   21  C20 UNK     1      18.838   1.362  29.946  1.00  0.00     0.298 C 
HETATM   22  O3  UNK     1      19.263   1.619  28.829  1.00  0.00    -0.259 OA
BRANCH  21  23
HETATM   23  C19 UNK     1      19.342   0.230  30.766  1.00  0.00     0.040 A 
HETATM   24  C21 UNK     1      20.427  -0.490  30.313  1.00  0.00     0.020 A 
HETATM   25  C24 UNK     1      20.900  -1.553  31.082  1.00  0.00     0.037 A 
HETATM   26  C23 UNK     1      20.276  -1.871  32.289  1.00  0.00     0.102 A 
HETATM   27  C25 UNK     1      19.180  -1.127  32.726  1.00  0.00     0.037 A 
HETATM   28  C22 UNK     1      18.708  -0.064  31.956  1.00  0.00     0.020 A 
BRANCH  26  29
HETATM   29  N1  UNK     1      20.758  -2.953  33.073  1.00  0.00    -0.116 N 
HETATM   30  O4  UNK     1      21.424  -3.858  32.516  1.00  0.00    -0.532 OA
HETATM   31  O5  UNK     1      20.504  -2.974  34.302  1.00  0.00    -0.532 OA
ENDBRANCH  26  29
ENDBRANCH  21  23
ENDBRANCH  20  21
ENDBRANCH   4  20
TORSDOF 8
ENDMDL
MODEL 10
REMARK VINA RESULT:      -8.7      6.021     12.792
REMARK  8 active torsions:
REMARK  status: ('A' for Active; 'I' for Inactive)
REMARK    1  A    between atoms: C16_22  and  O1_1 
REMARK    2  A    between atoms: C20_26  and  O1_1 
REMARK    3  A    between atoms: C23_29  and  N1_6 
REMARK    4  A    between atoms: C1_7  and  C2_8 
REMARK    5  A    between atoms: C10_16  and  C7_13 
REMARK    6  A    between atoms: C11_17  and  C13_19 
REMARK    7  A    between atoms: C12_18  and  C13_19 
REMARK    8  A    between atoms: C19_25  and  C20_26 
ROOT
HETATM    1  C12 UNK     1      19.135  -1.958  35.671  1.00  0.00     0.014 A 
HETATM    2  C14 UNK     1      18.067  -1.107  35.469  1.00  0.00     0.018 A 
HETATM    3  C15 UNK     1      19.987  -2.323  34.647  1.00  0.00     0.018 A 
HETATM    4  C16 UNK     1      18.686  -0.954  33.138  1.00  0.00     0.079 A 
HETATM    5  C17 UNK     1      17.839  -0.601  34.190  1.00  0.00     0.038 A 
HETATM    6  C18 UNK     1      19.759  -1.816  33.367  1.00  0.00     0.038 A 
ENDROOT
BRANCH   1   7
HETATM    7  C13 UNK     1      19.377  -2.497  37.031  1.00  0.00     0.182 C 
HETATM    8  O2  UNK     1      19.105  -1.815  38.014  1.00  0.00    -0.288 OA
BRANCH   7   9
HETATM    9  C11 UNK     1      19.978  -3.856  37.139  1.00  0.00     0.056 C 
HETATM   10  C10 UNK     1      19.340  -4.929  36.620  1.00  0.00     0.015 C 
BRANCH  10  11
HETATM   11  C7  UNK     1      19.821  -6.300  36.679  1.00  0.00    -0.036 A 
HETATM   12  C8  UNK     1      20.395  -6.888  35.551  1.00  0.00     0.012 A 
HETATM   13  C5  UNK     1      20.857  -8.202  35.608  1.00  0.00     0.008 A 
HETATM   14  C2  UNK     1      20.744  -8.930  36.793  1.00  0.00    -0.055 A 
HETATM   15  C6  UNK     1      20.170  -8.342  37.920  1.00  0.00     0.008 A 
HETATM   16  C9  UNK     1      19.709  -7.027  37.863  1.00  0.00     0.012 A 
BRANCH  14  17
HETATM   17  C1  UNK     1      21.238 -10.336  36.855  1.00  0.00     0.010 C 
HETATM   18  C3  UNK     1      21.559 -10.910  35.462  1.00  0.00     0.015 C 
HETATM   19  C4  UNK     1      20.262 -11.272  37.593  1.00  0.00     0.015 C 
ENDBRANCH  14  17
ENDBRANCH  10  11
ENDBRANCH   7   9
ENDBRANCH   1   7
BRANCH   4  20
HETATM   20  O1  UNK     1      18.464  -0.461  31.890  1.00  0.00    -0.275 OA
BRANCH  20  21
HETATM   21  C20 UNK     1      19.440   0.429  31.439  1.00  0.00     0.298 C 
HETATM   22  O3  UNK     1      20.548   0.121  31.026  1.00  0.00    -0.259 OA
BRANCH  21  23
HETATM   23  C19 UNK     1      18.971   1.835  31.536  1.00  0.00     0.040 A 
HETATM   24  C21 UNK     1      18.500   2.297  32.747  1.00  0.00     0.020 A 
HETATM   25  C24 UNK     1      18.058   3.618  32.839  1.00  0.00     0.037 A 
HETATM   26  C23 UNK     1      18.098   4.446  31.717  1.00  0.00     0.102 A 
HETATM   27  C25 UNK     1      18.579   3.953  30.504  1.00  0.00     0.037 A 
HETATM   28  C22 UNK     1      19.020   2.633  30.412  1.00  0.00     0.020 A 
BRANCH  26  29
HETATM   29  N1  UNK     1      17.649   5.789  31.810  1.00  0.00    -0.116 N 
HETATM   30  O4  UNK     1      16.917   6.121  32.774  1.00  0.00    -0.532 OA
HETATM   31  O5  UNK     1      17.997   6.610  30.926  1.00  0.00    -0.532 OA
ENDBRANCH  26  29
ENDBRANCH  21  23
ENDBRANCH  20  21
ENDBRANCH   4  20
TORSDOF 8
ENDMDL
