MODEL 1
REMARK VINA RESULT:      -9.2      0.000      0.000
REMARK  4 active torsions:
REMARK  status: ('A' for Active; 'I' for Inactive)
REMARK    1  A    between atoms: C5_9  and  N1_3 
REMARK    2  A    between atoms: C6_10  and  N2_4 
REMARK    3  A    between atoms: C5_9  and  C7_11 
REMARK    4  A    between atoms: C6_10  and  C8_12 
ROOT
HETATM    1  N1  UNK     1      19.985  -3.729  36.747  1.00  0.00     0.096 N 
HETATM    2  N2  UNK     1      20.050  -6.605  37.041  1.00  0.00     0.096 N 
HETATM    3  C1  UNK     1      19.732  -4.618  35.606  1.00  0.00     0.303 C 
HETATM    4  C2  UNK     1      20.881  -4.377  37.712  1.00  0.00     0.303 C 
HETATM    5  C3  UNK     1      19.153  -5.958  36.074  1.00  0.00     0.303 C 
HETATM    6  C4  UNK     1      20.301  -5.716  38.181  1.00  0.00     0.303 C 
ENDROOT
BRANCH   1   7
HETATM    7  C5  UNK     1      20.538  -2.453  36.299  1.00  0.00     0.312 C 
BRANCH   7   8
HETATM    8  C7  UNK     1      19.523  -1.852  35.393  1.00  0.00    -0.011 A 
HETATM    9  C11 UNK     1      18.395  -1.313  35.878  1.00  0.00     0.092 A 
HETATM   10  C16 UNK     1      17.362  -0.707  35.022  1.00  0.00     0.288 A 
HETATM   11  O1  UNK     1      17.604  -0.712  33.656  1.00  0.00    -0.275 OA
HETATM   12  O2  UNK     1      16.343  -0.223  35.500  1.00  0.00    -0.260 OA
HETATM   13  C13 UNK     1      18.779  -1.271  33.117  1.00  0.00     0.090 A 
HETATM   14  C9  UNK     1      19.750  -1.843  33.942  1.00  0.00     0.006 A 
HETATM   15  C19 UNK     1      18.915  -1.221  31.730  1.00  0.00     0.045 A 
HETATM   16  C14 UNK     1      20.890  -2.378  33.329  1.00  0.00     0.015 A 
HETATM   17  C21 UNK     1      21.041  -2.336  31.938  1.00  0.00     0.007 A 
HETATM   18  C20 UNK     1      20.055  -1.758  31.139  1.00  0.00    -0.059 A 
HETATM   19  C23 UNK     1      20.222  -1.717  29.658  1.00  0.00     0.048 C 
ENDBRANCH   7   8
ENDBRANCH   1   7
BRANCH   2  20
HETATM   20  C6  UNK     1      19.494  -7.880  37.489  1.00  0.00     0.311 C 
BRANCH  20  21
HETATM   21  C8  UNK     1      20.291  -9.007  36.907  1.00  0.00    -0.024 A 
HETATM   22  C10 UNK     1      20.268 -10.276  37.484  1.00  0.00    -0.054 A 
HETATM   23  C15 UNK     1      21.017 -11.311  36.925  1.00  0.00     0.007 A 
HETATM   24  C17 UNK     1      19.448 -10.552  38.701  1.00  0.00     0.049 C 
HETATM   25  C22 UNK     1      21.790 -11.077  35.787  1.00  0.00     0.001 A 
HETATM   26  C18 UNK     1      21.814  -9.808  35.209  1.00  0.00     0.001 A 
HETATM   27  C12 UNK     1      21.064  -8.772  35.769  1.00  0.00     0.009 A 
ENDBRANCH  20  21
ENDBRANCH   2  20
TORSDOF 4
ENDMDL
MODEL 2
REMARK VINA RESULT:      -9.2      7.823     11.518
REMARK  4 active torsions:
REMARK  status: ('A' for Active; 'I' for Inactive)
REMARK    1  A    between atoms: C5_9  and  N1_3 
REMARK    2  A    between atoms: C6_10  and  N2_4 
REMARK    3  A    between atoms: C5_9  and  C7_11 
REMARK    4  A    between atoms: C6_10  and  C8_12 
ROOT
HETATM    1  N1  UNK     1      18.162   5.279  31.609  1.00  0.00     0.096 N 
HETATM    2  N2  UNK     1      18.912   2.872  30.192  1.00  0.00     0.096 N 
HETATM    3  C1  UNK     1      19.190   5.300  30.560  1.00  0.00     0.303 C 
HETATM    4  C2  UNK     1      18.128   3.966  32.264  1.00  0.00     0.303 C 
HETATM    5  C3  UNK     1      18.948   4.185  29.536  1.00  0.00     0.303 C 
HETATM    6  C4  UNK     1      17.885   2.851  31.240  1.00  0.00     0.303 C 
ENDROOT
BRANCH   1   7
HETATM    7  C5  UNK     1      18.395   6.341  32.584  1.00  0.00     0.312 C 
BRANCH   7   8
HETATM    8  C7  UNK     1      17.139   7.133  32.648  1.00  0.00    -0.011 A 
HETATM    9  C11 UNK     1      15.974   6.619  32.226  1.00  0.00     0.092 A 
HETATM   10  C16 UNK     1      14.705   7.364  32.270  1.00  0.00     0.288 A 
HETATM   11  O1  UNK     1      14.757   8.653  32.779  1.00  0.00    -0.275 OA
HETATM   12  O2  UNK     1      13.659   6.862  31.876  1.00  0.00    -0.260 OA
HETATM   13  C13 UNK     1      15.965   9.220  33.230  1.00  0.00     0.090 A 
HETATM   14  C9  UNK     1      17.162   8.501  33.182  1.00  0.00     0.006 A 
HETATM   15  C19 UNK     1      15.898  10.524  33.721  1.00  0.00     0.045 A 
HETATM   16  C14 UNK     1      18.320   9.136  33.649  1.00  0.00     0.015 A 
HETATM   17  C21 UNK     1      18.269  10.445  34.144  1.00  0.00     0.007 A 
HETATM   18  C20 UNK     1      17.059  11.138  34.180  1.00  0.00    -0.059 A 
HETATM   19  C23 UNK     1      17.012  12.531  34.708  1.00  0.00     0.048 C 
ENDBRANCH   7   8
ENDBRANCH   1   7
BRANCH   2  20
HETATM   20  C6  UNK     1      18.677   1.811  29.214  1.00  0.00     0.311 C 
BRANCH  20  21
HETATM   21  C8  UNK     1      19.402   0.570  29.639  1.00  0.00    -0.024 A 
HETATM   22  C10 UNK     1      19.469  -0.544  28.801  1.00  0.00    -0.054 A 
HETATM   23  C15 UNK     1      20.150  -1.688  29.216  1.00  0.00     0.007 A 
HETATM   24  C17 UNK     1      18.819  -0.535  27.457  1.00  0.00     0.049 C 
HETATM   25  C22 UNK     1      20.765  -1.719  30.468  1.00  0.00     0.001 A 
HETATM   26  C18 UNK     1      20.699  -0.605  31.305  1.00  0.00     0.001 A 
HETATM   27  C12 UNK     1      20.018   0.540  30.891  1.00  0.00     0.009 A 
ENDBRANCH  20  21
ENDBRANCH   2  20
TORSDOF 4
ENDMDL
MODEL 3
REMARK VINA RESULT:      -9.1      9.739     12.074
REMARK  4 active torsions:
REMARK  status: ('A' for Active; 'I' for Inactive)
REMARK    1  A    between atoms: C5_9  and  N1_3 
REMARK    2  A    between atoms: C6_10  and  N2_4 
REMARK    3  A    between atoms: C5_9  and  C7_11 
REMARK    4  A    between atoms: C6_10  and  C8_12 
ROOT
HETATM    1  N1  UNK     1      30.715  -5.935  35.352  1.00  0.00     0.096 N 
HETATM    2  N2  UNK     1      29.928  -6.318  32.596  1.00  0.00     0.096 N 
HETATM    3  C1  UNK     1      31.704  -5.917  34.267  1.00  0.00     0.303 C 
HETATM    4  C2  UNK     1      29.580  -6.795  34.995  1.00  0.00     0.303 C 
HETATM    5  C3  UNK     1      31.064  -5.459  32.952  1.00  0.00     0.303 C 
HETATM    6  C4  UNK     1      28.939  -6.335  33.681  1.00  0.00     0.303 C 
ENDROOT
BRANCH   1   7
HETATM    7  C5  UNK     1      31.327  -6.374  36.604  1.00  0.00     0.312 C 
BRANCH   7   8
HETATM    8  C7  UNK     1      30.338  -6.087  37.676  1.00  0.00    -0.011 A 
HETATM    9  C11 UNK     1      30.182  -4.846  38.160  1.00  0.00     0.092 A 
HETATM   10  C16 UNK     1      29.217  -4.512  39.220  1.00  0.00     0.288 A 
HETATM   11  O1  UNK     1      28.451  -5.557  39.715  1.00  0.00    -0.275 OA
HETATM   12  O2  UNK     1      29.101  -3.366  39.638  1.00  0.00    -0.260 OA
HETATM   13  C13 UNK     1      28.592  -6.871  39.228  1.00  0.00     0.090 A 
HETATM   14  C9  UNK     1      29.512  -7.172  38.222  1.00  0.00     0.006 A 
HETATM   15  C19 UNK     1      27.769  -7.841  39.800  1.00  0.00     0.045 A 
HETATM   16  C14 UNK     1      29.591  -8.503  37.791  1.00  0.00     0.015 A 
HETATM   17  C21 UNK     1      28.773  -9.488  38.357  1.00  0.00     0.007 A 
HETATM   18  C20 UNK     1      27.863  -9.157  39.360  1.00  0.00    -0.059 A 
HETATM   19  C23 UNK     1      26.995 -10.212  39.958  1.00  0.00     0.048 C 
ENDBRANCH   7   8
ENDBRANCH   1   7
BRANCH   2  20
HETATM   20  C6  UNK     1      29.316  -5.876  31.344  1.00  0.00     0.311 C 
BRANCH  20  21
HETATM   21  C8  UNK     1      29.070  -7.061  30.461  1.00  0.00    -0.024 A 
HETATM   22  C10 UNK     1      30.002  -7.441  29.495  1.00  0.00    -0.054 A 
HETATM   23  C15 UNK     1      29.754  -8.549  28.685  1.00  0.00     0.007 A 
HETATM   24  C17 UNK     1      31.272  -6.678  29.310  1.00  0.00     0.049 C 
HETATM   25  C22 UNK     1      28.574  -9.277  28.840  1.00  0.00     0.001 A 
HETATM   26  C18 UNK     1      27.642  -8.898  29.806  1.00  0.00     0.001 A 
HETATM   27  C12 UNK     1      27.890  -7.790  30.617  1.00  0.00     0.009 A 
ENDBRANCH  20  21
ENDBRANCH   2  20
TORSDOF 4
ENDMDL
MODEL 4
REMARK VINA RESULT:      -9.1      9.388     11.929
REMARK  4 active torsions:
REMARK  status: ('A' for Active; 'I' for Inactive)
REMARK    1  A    between atoms: C5_9  and  N1_3 
REMARK    2  A    between atoms: C6_10  and  N2_4 
REMARK    3  A    between atoms: C5_9  and  C7_11 
REMARK    4  A    between atoms: C6_10  and  C8_12 
ROOT
HETATM    1  N1  UNK     1      30.541  -6.219  35.155  1.00  0.00     0.096 N 
HETATM    2  N2  UNK     1      30.118  -6.385  32.300  1.00  0.00     0.096 N 
HETATM    3  C1  UNK     1      31.416  -5.510  34.212  1.00  0.00     0.303 C 
HETATM    4  C2  UNK     1      29.997  -7.432  34.535  1.00  0.00     0.303 C 
HETATM    5  C3  UNK     1      30.665  -5.172  32.919  1.00  0.00     0.303 C 
HETATM    6  C4  UNK     1      29.244  -7.094  33.243  1.00  0.00     0.303 C 
ENDROOT
BRANCH   1   7
HETATM    7  C5  UNK     1      31.260  -6.542  36.386  1.00  0.00     0.312 C 
BRANCH   7   8
HETATM    8  C7  UNK     1      30.339  -6.214  37.506  1.00  0.00    -0.011 A 
HETATM    9  C11 UNK     1      30.270  -4.970  38.004  1.00  0.00     0.092 A 
HETATM   10  C16 UNK     1      29.375  -4.597  39.111  1.00  0.00     0.288 A 
HETATM   11  O1  UNK     1      28.581  -5.605  39.637  1.00  0.00    -0.275 OA
HETATM   12  O2  UNK     1      29.338  -3.450  39.541  1.00  0.00    -0.260 OA
HETATM   13  C13 UNK     1      28.631  -6.921  39.135  1.00  0.00     0.090 A 
HETATM   14  C9  UNK     1      29.486  -7.260  38.084  1.00  0.00     0.006 A 
HETATM   15  C19 UNK     1      27.789  -7.853  39.741  1.00  0.00     0.045 A 
HETATM   16  C14 UNK     1      29.477  -8.589  37.643  1.00  0.00     0.015 A 
HETATM   17  C21 UNK     1      28.638  -9.537  38.241  1.00  0.00     0.007 A 
HETATM   18  C20 UNK     1      27.794  -9.169  39.289  1.00  0.00    -0.059 A 
HETATM   19  C23 UNK     1      26.903 -10.183  39.922  1.00  0.00     0.048 C 
ENDBRANCH   7   8
ENDBRANCH   1   7
BRANCH   2  20
HETATM   20  C6  UNK     1      29.398  -6.060  31.070  1.00  0.00     0.311 C 
BRANCH  20  21
HETATM   21  C8  UNK     1      29.144  -7.315  30.291  1.00  0.00    -0.024 A 
HETATM   22  C10 UNK     1      27.845  -7.771  30.069  1.00  0.00    -0.054 A 
HETATM   23  C15 UNK     1      27.632  -8.941  29.341  1.00  0.00     0.007 A 
HETATM   24  C17 UNK     1      26.667  -7.024  30.601  1.00  0.00     0.049 C 
HETATM   25  C22 UNK     1      28.718  -9.656  28.834  1.00  0.00     0.001 A 
HETATM   26  C18 UNK     1      30.017  -9.200  29.055  1.00  0.00     0.001 A 
HETATM   27  C12 UNK     1      30.231  -8.029  29.784  1.00  0.00     0.009 A 
ENDBRANCH  20  21
ENDBRANCH   2  20
TORSDOF 4
ENDMDL
MODEL 5
REMARK VINA RESULT:      -8.6      3.770      8.841
REMARK  4 active torsions:
REMARK  status: ('A' for Active; 'I' for Inactive)
REMARK    1  A    between atoms: C5_9  and  N1_3 
REMARK    2  A    between atoms: C6_10  and  N2_4 
REMARK    3  A    between atoms: C5_9  and  C7_11 
REMARK    4  A    between atoms: C6_10  and  C8_12 
ROOT
HETATM    1  N1  UNK     1      20.566  -6.103  36.992  1.00  0.00     0.096 N 
HETATM    2  N2  UNK     1      19.795  -3.384  36.379  1.00  0.00     0.096 N 
HETATM    3  C1  UNK     1      19.609  -5.805  35.919  1.00  0.00     0.303 C 
HETATM    4  C2  UNK     1      20.498  -5.075  38.038  1.00  0.00     0.303 C 
HETATM    5  C3  UNK     1      19.861  -4.412  35.332  1.00  0.00     0.303 C 
HETATM    6  C4  UNK     1      20.752  -3.682  37.451  1.00  0.00     0.303 C 
ENDROOT
BRANCH   1   7
HETATM    7  C5  UNK     1      20.322  -7.431  37.551  1.00  0.00     0.312 C 
BRANCH   7   8
HETATM    8  C7  UNK     1      21.343  -8.331  36.952  1.00  0.00    -0.011 A 
HETATM    9  C11 UNK     1      21.040  -9.128  35.916  1.00  0.00     0.092 A 
HETATM   10  C16 UNK     1      22.016 -10.035  35.289  1.00  0.00     0.288 A 
HETATM   11  O1  UNK     1      23.296 -10.036  35.822  1.00  0.00    -0.275 OA
HETATM   12  O2  UNK     1      21.704 -10.750  34.344  1.00  0.00    -0.260 OA
HETATM   13  C13 UNK     1      23.644  -9.210  36.909  1.00  0.00     0.090 A 
HETATM   14  C9  UNK     1      22.707  -8.355  37.493  1.00  0.00     0.006 A 
HETATM   15  C19 UNK     1      24.961  -9.295  37.362  1.00  0.00     0.045 A 
HETATM   16  C14 UNK     1      23.132  -7.566  38.570  1.00  0.00     0.015 A 
HETATM   17  C21 UNK     1      24.450  -7.640  39.037  1.00  0.00     0.007 A 
HETATM   18  C20 UNK     1      25.363  -8.504  38.433  1.00  0.00    -0.059 A 
HETATM   19  C23 UNK     1      26.765  -8.578  38.934  1.00  0.00     0.048 C 
ENDBRANCH   7   8
ENDBRANCH   1   7
BRANCH   2  20
HETATM   20  C6  UNK     1      20.041  -2.057  35.818  1.00  0.00     0.311 C 
BRANCH  20  21
HETATM   21  C8  UNK     1      18.785  -1.242  35.890  1.00  0.00    -0.024 A 
HETATM   22  C10 UNK     1      18.157  -0.789  34.730  1.00  0.00    -0.054 A 
HETATM   23  C15 UNK     1      16.988  -0.034  34.820  1.00  0.00     0.007 A 
HETATM   24  C17 UNK     1      18.717  -1.100  33.381  1.00  0.00     0.049 C 
HETATM   25  C22 UNK     1      16.447   0.269  36.069  1.00  0.00     0.001 A 
HETATM   26  C18 UNK     1      17.074  -0.185  37.230  1.00  0.00     0.001 A 
HETATM   27  C12 UNK     1      18.243  -0.941  37.140  1.00  0.00     0.009 A 
ENDBRANCH  20  21
ENDBRANCH   2  20
TORSDOF 4
ENDMDL
MODEL 6
REMARK VINA RESULT:      -8.6     10.442     12.602
REMARK  4 active torsions:
REMARK  status: ('A' for Active; 'I' for Inactive)
REMARK    1  A    between atoms: C5_9  and  N1_3 
REMARK    2  A    between atoms: C6_10  and  N2_4 
REMARK    3  A    between atoms: C5_9  and  C7_11 
REMARK    4  A    between atoms: C6_10  and  C8_12 
ROOT
HETATM    1  N1  UNK     1      32.109  -6.378  33.613  1.00  0.00     0.096 N 
HETATM    2  N2  UNK     1      30.556  -6.998  31.254  1.00  0.00     0.096 N 
HETATM    3  C1  UNK     1      32.511  -7.452  32.697  1.00  0.00     0.303 C 
HETATM    4  C2  UNK     1      30.651  -6.207  33.592  1.00  0.00     0.303 C 
HETATM    5  C3  UNK     1      32.014  -7.171  31.274  1.00  0.00     0.303 C 
HETATM    6  C4  UNK     1      30.156  -5.924  32.170  1.00  0.00     0.303 C 
ENDROOT
BRANCH   1   7
HETATM    7  C5  UNK     1      32.582  -6.649  34.969  1.00  0.00     0.312 C 
BRANCH   7   8
HETATM    8  C7  UNK     1      31.916  -5.654  35.851  1.00  0.00    -0.011 A 
HETATM    9  C11 UNK     1      32.228  -4.352  35.785  1.00  0.00     0.092 A 
HETATM   10  C16 UNK     1      31.596  -3.330  36.637  1.00  0.00     0.288 A 
HETATM   11  O1  UNK     1      30.638  -3.775  37.535  1.00  0.00    -0.275 OA
HETATM   12  O2  UNK     1      31.907  -2.148  36.550  1.00  0.00    -0.260 OA
HETATM   13  C13 UNK     1      30.288  -5.137  37.627  1.00  0.00     0.090 A 
HETATM   14  C9  UNK     1      30.897  -6.094  36.812  1.00  0.00     0.006 A 
HETATM   15  C19 UNK     1      29.312  -5.469  38.566  1.00  0.00     0.045 A 
HETATM   16  C14 UNK     1      30.493  -7.427  36.965  1.00  0.00     0.015 A 
HETATM   17  C21 UNK     1      29.515  -7.776  37.903  1.00  0.00     0.007 A 
HETATM   18  C20 UNK     1      28.925  -6.798  38.703  1.00  0.00    -0.059 A 
HETATM   19  C23 UNK     1      27.884  -7.177  39.701  1.00  0.00     0.048 C 
ENDBRANCH   7   8
ENDBRANCH   1   7
BRANCH   2  20
HETATM   20  C6  UNK     1      30.086  -6.725  29.897  1.00  0.00     0.311 C 
BRANCH  20  21
HETATM   21  C8  UNK     1      29.562  -7.989  29.285  1.00  0.00    -0.024 A 
HETATM   22  C10 UNK     1      28.259  -8.420  29.534  1.00  0.00    -0.054 A 
HETATM   23  C15 UNK     1      27.791  -9.598  28.953  1.00  0.00     0.007 A 
HETATM   24  C17 UNK     1      27.345  -7.636  30.417  1.00  0.00     0.049 C 
HETATM   25  C22 UNK     1      28.627 -10.347  28.124  1.00  0.00     0.001 A 
HETATM   26  C18 UNK     1      29.930  -9.916  27.874  1.00  0.00     0.001 A 
HETATM   27  C12 UNK     1      30.398  -8.737  28.455  1.00  0.00     0.009 A 
ENDBRANCH  20  21
ENDBRANCH   2  20
TORSDOF 4
ENDMDL
MODEL 7
REMARK VINA RESULT:      -8.5      6.594      9.554
REMARK  4 active torsions:
REMARK  status: ('A' for Active; 'I' for Inactive)
REMARK    1  A    between atoms: C5_9  and  N1_3 
REMARK    2  A    between atoms: C6_10  and  N2_4 
REMARK    3  A    between atoms: C5_9  and  C7_11 
REMARK    4  A    between atoms: C6_10  and  C8_12 
ROOT
HETATM    1  N1  UNK     1      25.988 -10.062  36.644  1.00  0.00     0.096 N 
HETATM    2  N2  UNK     1      23.168 -10.637  36.367  1.00  0.00     0.096 N 
HETATM    3  C1  UNK     1      25.503 -11.438  36.476  1.00  0.00     0.303 C 
HETATM    4  C2  UNK     1      24.973  -9.240  37.314  1.00  0.00     0.303 C 
HETATM    5  C3  UNK     1      24.183 -11.461  35.698  1.00  0.00     0.303 C 
HETATM    6  C4  UNK     1      23.653  -9.262  36.535  1.00  0.00     0.303 C 
ENDROOT
BRANCH   1   7
HETATM    7  C5  UNK     1      27.246 -10.042  37.387  1.00  0.00     0.312 C 
BRANCH   7   8
HETATM    8  C7  UNK     1      28.112  -9.036  36.718  1.00  0.00    -0.011 A 
HETATM    9  C11 UNK     1      28.585  -9.244  35.480  1.00  0.00     0.092 A 
HETATM   10  C16 UNK     1      29.444  -8.278  34.776  1.00  0.00     0.288 A 
HETATM   11  O1  UNK     1      29.757  -7.111  35.458  1.00  0.00    -0.275 OA
HETATM   12  O2  UNK     1      29.859  -8.501  33.645  1.00  0.00    -0.260 OA
HETATM   13  C13 UNK     1      29.275  -6.865  36.758  1.00  0.00     0.090 A 
HETATM   14  C9  UNK     1      28.460  -7.791  37.413  1.00  0.00     0.006 A 
HETATM   15  C19 UNK     1      29.653  -5.657  37.346  1.00  0.00     0.045 A 
HETATM   16  C14 UNK     1      28.022  -7.471  38.705  1.00  0.00     0.015 A 
HETATM   17  C21 UNK     1      28.394  -6.264  39.309  1.00  0.00     0.007 A 
HETATM   18  C20 UNK     1      29.209  -5.358  38.630  1.00  0.00    -0.059 A 
HETATM   19  C23 UNK     1      29.602  -4.075  39.279  1.00  0.00     0.048 C 
ENDBRANCH   7   8
ENDBRANCH   1   7
BRANCH   2  20
HETATM   20  C6  UNK     1      21.910 -10.657  35.622  1.00  0.00     0.311 C 
BRANCH  20  21
HETATM   21  C8  UNK     1      20.806 -10.135  36.489  1.00  0.00    -0.024 A 
HETATM   22  C10 UNK     1      20.211  -8.900  36.228  1.00  0.00    -0.054 A 
HETATM   23  C15 UNK     1      19.184  -8.434  37.047  1.00  0.00     0.007 A 
HETATM   24  C17 UNK     1      20.657  -8.060  35.077  1.00  0.00     0.049 C 
HETATM   25  C22 UNK     1      18.750  -9.202  38.128  1.00  0.00     0.001 A 
HETATM   26  C18 UNK     1      19.344 -10.437  38.390  1.00  0.00     0.001 A 
HETATM   27  C12 UNK     1      20.372 -10.903  37.570  1.00  0.00     0.009 A 
ENDBRANCH  20  21
ENDBRANCH   2  20
TORSDOF 4
ENDMDL
MODEL 8
REMARK VINA RESULT:      -8.5     28.415     31.992
REMARK  4 active torsions:
REMARK  status: ('A' for Active; 'I' for Inactive)
REMARK    1  A    between atoms: C5_9  and  N1_3 
REMARK    2  A    between atoms: C6_10  and  N2_4 
REMARK    3  A    between atoms: C5_9  and  C7_11 
REMARK    4  A    between atoms: C6_10  and  C8_12 
ROOT
HETATM    1  N1  UNK     1      15.433   9.370   9.638  1.00  0.00     0.096 N 
HETATM    2  N2  UNK     1      17.111  11.632   8.980  1.00  0.00     0.096 N 
HETATM    3  C1  UNK     1      14.986  10.402   8.694  1.00  0.00     0.303 C 
HETATM    4  C2  UNK     1      16.360   9.943  10.621  1.00  0.00     0.303 C 
HETATM    5  C3  UNK     1      16.183  11.061   7.997  1.00  0.00     0.303 C 
HETATM    6  C4  UNK     1      17.557  10.600   9.924  1.00  0.00     0.303 C 
ENDROOT
BRANCH   1   7
HETATM    7  C5  UNK     1      14.292   8.746  10.302  1.00  0.00     0.312 C 
BRANCH   7   8
HETATM    8  C7  UNK     1      14.157   7.387   9.713  1.00  0.00    -0.011 A 
HETATM    9  C11 UNK     1      15.008   6.403  10.040  1.00  0.00     0.092 A 
HETATM   10  C16 UNK     1      14.915   5.043   9.484  1.00  0.00     0.288 A 
HETATM   11  O1  UNK     1      13.886   4.808   8.584  1.00  0.00    -0.275 OA
HETATM   12  O2  UNK     1      15.710   4.168   9.806  1.00  0.00    -0.260 OA
HETATM   13  C13 UNK     1      12.977   5.821   8.221  1.00  0.00     0.090 A 
HETATM   14  C9  UNK     1      13.079   7.107   8.757  1.00  0.00     0.006 A 
HETATM   15  C19 UNK     1      11.983   5.470   7.307  1.00  0.00     0.045 A 
HETATM   16  C14 UNK     1      12.136   8.058   8.344  1.00  0.00     0.015 A 
HETATM   17  C21 UNK     1      11.133   7.722   7.427  1.00  0.00     0.007 A 
HETATM   18  C20 UNK     1      11.057   6.429   6.909  1.00  0.00    -0.059 A 
HETATM   19  C23 UNK     1       9.987   6.078   5.933  1.00  0.00     0.048 C 
ENDBRANCH   7   8
ENDBRANCH   1   7
BRANCH   2  20
HETATM   20  C6  UNK     1      18.254  12.255   8.314  1.00  0.00     0.311 C 
BRANCH  20  21
HETATM   21  C8  UNK     1      17.800  13.484   7.586  1.00  0.00    -0.024 A 
HETATM   22  C10 UNK     1      18.118  13.679   6.242  1.00  0.00    -0.054 A 
HETATM   23  C15 UNK     1      17.684  14.829   5.583  1.00  0.00     0.007 A 
HETATM   24  C17 UNK     1      18.922  12.672   5.488  1.00  0.00     0.049 C 
HETATM   25  C22 UNK     1      16.932  15.784   6.268  1.00  0.00     0.001 A 
HETATM   26  C18 UNK     1      16.612  15.588   7.611  1.00  0.00     0.001 A 
HETATM   27  C12 UNK     1      17.046  14.438   8.271  1.00  0.00     0.009 A 
ENDBRANCH  20  21
ENDBRANCH   2  20
TORSDOF 4
ENDMDL
MODEL 9
REMARK VINA RESULT:      -8.4      9.915     12.363
REMARK  4 active torsions:
REMARK  status: ('A' for Active; 'I' for Inactive)
REMARK    1  A    between atoms: C5_9  and  N1_3 
REMARK    2  A    between atoms: C6_10  and  N2_4 
REMARK    3  A    between atoms: C5_9  and  C7_11 
REMARK    4  A    between atoms: C6_10  and  C8_12 
ROOT
HETATM    1  N1  UNK     1      30.475  -6.980  35.393  1.00  0.00     0.096 N 
HETATM    2  N2  UNK     1      30.049  -7.192  32.541  1.00  0.00     0.096 N 
HETATM    3  C1  UNK     1      30.416  -5.786  34.540  1.00  0.00     0.303 C 
HETATM    4  C2  UNK     1      30.977  -8.129  34.631  1.00  0.00     0.303 C 
HETATM    5  C3  UNK     1      29.548  -6.041  33.303  1.00  0.00     0.303 C 
HETATM    6  C4  UNK     1      30.108  -8.385  33.395  1.00  0.00     0.303 C 
ENDROOT
BRANCH   1   7
HETATM    7  C5  UNK     1      31.304  -6.735  36.571  1.00  0.00     0.312 C 
BRANCH   7   8
HETATM    8  C7  UNK     1      30.373  -6.359  37.667  1.00  0.00    -0.011 A 
HETATM    9  C11 UNK     1      30.358  -5.114  38.166  1.00  0.00     0.092 A 
HETATM   10  C16 UNK     1      29.454  -4.694  39.250  1.00  0.00     0.288 A 
HETATM   11  O1  UNK     1      28.595  -5.659  39.753  1.00  0.00    -0.275 OA
HETATM   12  O2  UNK     1      29.468  -3.546  39.681  1.00  0.00    -0.260 OA
HETATM   13  C13 UNK     1      28.588  -6.975  39.250  1.00  0.00     0.090 A 
HETATM   14  C9  UNK     1      29.451  -7.358  38.221  1.00  0.00     0.006 A 
HETATM   15  C19 UNK     1      27.681  -7.861  39.832  1.00  0.00     0.045 A 
HETATM   16  C14 UNK     1      29.383  -8.685  37.777  1.00  0.00     0.015 A 
HETATM   17  C21 UNK     1      28.479  -9.587  38.351  1.00  0.00     0.007 A 
HETATM   18  C20 UNK     1      27.629  -9.175  39.377  1.00  0.00    -0.059 A 
HETATM   19  C23 UNK     1      26.668 -10.140  39.985  1.00  0.00     0.048 C 
ENDBRANCH   7   8
ENDBRANCH   1   7
BRANCH   2  20
HETATM   20  C6  UNK     1      29.217  -7.437  31.364  1.00  0.00     0.311 C 
BRANCH  20  21
HETATM   21  C8  UNK     1      30.082  -7.880  30.223  1.00  0.00    -0.024 A 
HETATM   22  C10 UNK     1      29.586  -8.732  29.237  1.00  0.00    -0.054 A 
HETATM   23  C15 UNK     1      30.408  -9.130  28.183  1.00  0.00     0.007 A 
HETATM   24  C17 UNK     1      28.180  -9.231  29.287  1.00  0.00     0.049 C 
HETATM   25  C22 UNK     1      31.725  -8.677  28.115  1.00  0.00     0.001 A 
HETATM   26  C18 UNK     1      32.221  -7.823  29.101  1.00  0.00     0.001 A 
HETATM   27  C12 UNK     1      31.399  -7.425  30.155  1.00  0.00     0.009 A 
ENDBRANCH  20  21
ENDBRANCH   2  20
TORSDOF 4
ENDMDL
MODEL 10
REMARK VINA RESULT:      -8.4     11.484     13.679
REMARK  4 active torsions:
REMARK  status: ('A' for Active; 'I' for Inactive)
REMARK    1  A    between atoms: C5_9  and  N1_3 
REMARK    2  A    between atoms: C6_10  and  N2_4 
REMARK    3  A    between atoms: C5_9  and  C7_11 
REMARK    4  A    between atoms: C6_10  and  C8_12 
ROOT
HETATM    1  N1  UNK     1      31.064  -6.074  35.403  1.00  0.00     0.096 N 
HETATM    2  N2  UNK     1      33.530  -6.196  33.897  1.00  0.00     0.096 N 
HETATM    3  C1  UNK     1      31.577  -7.348  34.883  1.00  0.00     0.303 C 
HETATM    4  C2  UNK     1      31.489  -4.962  34.544  1.00  0.00     0.303 C 
HETATM    5  C3  UNK     1      33.104  -7.310  34.755  1.00  0.00     0.303 C 
HETATM    6  C4  UNK     1      33.016  -4.924  34.418  1.00  0.00     0.303 C 
ENDROOT
BRANCH   1   7
HETATM    7  C5  UNK     1      29.609  -6.111  35.523  1.00  0.00     0.312 C 
BRANCH   7   8
HETATM    8  C7  UNK     1      29.306  -6.013  36.975  1.00  0.00    -0.011 A 
HETATM    9  C11 UNK     1      29.585  -4.899  37.667  1.00  0.00     0.092 A 
HETATM   10  C16 UNK     1      29.304  -4.754  39.105  1.00  0.00     0.288 A 
HETATM   11  O1  UNK     1      28.722  -5.843  39.738  1.00  0.00    -0.275 OA
HETATM   12  O2  UNK     1      29.573  -3.720  39.705  1.00  0.00    -0.260 OA
HETATM   13  C13 UNK     1      28.417  -7.027  39.038  1.00  0.00     0.090 A 
HETATM   14  C9  UNK     1      28.690  -7.149  37.674  1.00  0.00     0.006 A 
HETATM   15  C19 UNK     1      27.833  -8.057  39.776  1.00  0.00     0.045 A 
HETATM   16  C14 UNK     1      28.356  -8.358  37.050  1.00  0.00     0.015 A 
HETATM   17  C21 UNK     1      27.771  -9.401  37.778  1.00  0.00     0.007 A 
HETATM   18  C20 UNK     1      27.510  -9.250  39.140  1.00  0.00    -0.059 A 
HETATM   19  C23 UNK     1      26.887 -10.365  39.909  1.00  0.00     0.048 C 
ENDBRANCH   7   8
ENDBRANCH   1   7
BRANCH   2  20
HETATM   20  C6  UNK     1      34.986  -6.159  33.780  1.00  0.00     0.311 C 
BRANCH  20  21
HETATM   21  C8  UNK     1      35.442  -7.244  32.851  1.00  0.00    -0.024 A 
HETATM   22  C10 UNK     1      36.509  -8.077  33.189  1.00  0.00    -0.054 A 
HETATM   23  C15 UNK     1      36.915  -9.080  32.311  1.00  0.00     0.007 A 
HETATM   24  C17 UNK     1      37.231  -7.912  34.486  1.00  0.00     0.049 C 
HETATM   25  C22 UNK     1      36.255  -9.253  31.094  1.00  0.00     0.001 A 
HETATM   26  C18 UNK     1      35.187  -8.421  30.756  1.00  0.00     0.001 A 
HETATM   27  C12 UNK     1      34.780  -7.416  31.635  1.00  0.00     0.009 A 
ENDBRANCH  20  21
ENDBRANCH   2  20
TORSDOF 4
ENDMDL
