MODEL 1
REMARK VINA RESULT:      -8.7      0.000      0.000
REMARK  1 active torsions:
REMARK  status: ('A' for Active; 'I' for Inactive)
REMARK    1  A    between atoms: C1_4  and  C3_6 
ROOT
HETATM    1 Cl1  UNK     1      18.403   2.363  30.468  1.00  0.00    -0.081 Cl
HETATM    2  O1  UNK     1      19.044   0.312  32.454  1.00  0.00    -0.338 OA
HETATM    3  O2  UNK     1      20.896  -3.290  31.802  1.00  0.00    -0.292 OA
HETATM    4  C1  UNK     1      18.822  -0.797  33.338  1.00  0.00     0.169 C 
HETATM    5  C2  UNK     1      20.048  -1.708  33.393  1.00  0.00     0.121 C 
HETATM    6  C4  UNK     1      20.347  -2.213  32.006  1.00  0.00     0.165 C 
HETATM    7  C5  UNK     1      20.006  -1.299  30.898  1.00  0.00     0.045 A 
HETATM    8  C6  UNK     1      19.394  -0.076  31.187  1.00  0.00     0.105 A 
HETATM    9  C9  UNK     1      20.331  -1.631  29.580  1.00  0.00     0.018 A 
HETATM   10  C10 UNK     1      19.135   0.831  30.158  1.00  0.00     0.068 A 
HETATM   11  C14 UNK     1      20.052  -0.728  28.553  1.00  0.00     0.003 A 
HETATM   12  C15 UNK     1      19.460   0.501  28.842  1.00  0.00     0.027 A 
ENDROOT
BRANCH   4  13
HETATM   13  C3  UNK     1      18.483  -0.255  34.711  1.00  0.00    -0.029 A 
HETATM   14  C7  UNK     1      18.357   1.121  34.905  1.00  0.00     0.010 A 
HETATM   15  C12 UNK     1      18.044   1.620  36.170  1.00  0.00     0.007 A 
HETATM   16  C11 UNK     1      17.859   0.745  37.240  1.00  0.00    -0.062 A 
HETATM   17  C13 UNK     1      17.986  -0.631  37.045  1.00  0.00     0.007 A 
HETATM   18  C16 UNK     1      17.527   1.279  38.591  1.00  0.00     0.048 C 
HETATM   19  C8  UNK     1      18.297  -1.130  35.780  1.00  0.00     0.010 A 
ENDBRANCH   4  13
TORSDOF 1
ENDMDL
MODEL 2
REMARK VINA RESULT:      -8.0     24.313     26.449
REMARK  1 active torsions:
REMARK  status: ('A' for Active; 'I' for Inactive)
REMARK    1  A    between atoms: C1_4  and  C3_6 
ROOT
HETATM    1 Cl1  UNK     1      14.687  10.408   9.291  1.00  0.00    -0.081 Cl
HETATM    2  O1  UNK     1      13.741   7.668   8.889  1.00  0.00    -0.338 OA
HETATM    3  O2  UNK     1      15.758   4.193   9.718  1.00  0.00    -0.292 OA
HETATM    4  C1  UNK     1      13.438   6.457   8.179  1.00  0.00     0.169 C 
HETATM    5  C2  UNK     1      13.700   5.230   9.052  1.00  0.00     0.121 C 
HETATM    6  C4  UNK     1      15.146   5.226   9.473  1.00  0.00     0.165 C 
HETATM    7  C5  UNK     1      15.773   6.552   9.647  1.00  0.00     0.045 A 
HETATM    8  C6  UNK     1      15.026   7.700   9.366  1.00  0.00     0.105 A 
HETATM    9  C9  UNK     1      17.080   6.661  10.127  1.00  0.00     0.018 A 
HETATM   10  C10 UNK     1      15.578   8.961   9.599  1.00  0.00     0.068 A 
HETATM   11  C14 UNK     1      17.633   7.925  10.339  1.00  0.00     0.003 A 
HETATM   12  C15 UNK     1      16.883   9.071  10.080  1.00  0.00     0.027 A 
ENDROOT
BRANCH   4  13
HETATM   13  C3  UNK     1      11.992   6.512   7.735  1.00  0.00    -0.029 A 
HETATM   14  C7  UNK     1      10.994   6.850   8.649  1.00  0.00     0.010 A 
HETATM   15  C12 UNK     1       9.661   6.901   8.240  1.00  0.00     0.007 A 
HETATM   16  C11 UNK     1       9.327   6.613   6.916  1.00  0.00    -0.062 A 
HETATM   17  C13 UNK     1      10.325   6.275   6.003  1.00  0.00     0.007 A 
HETATM   18  C16 UNK     1       7.902   6.666   6.480  1.00  0.00     0.048 C 
HETATM   19  C8  UNK     1      11.658   6.226   6.412  1.00  0.00     0.010 A 
ENDBRANCH   4  13
TORSDOF 1
ENDMDL
MODEL 3
REMARK VINA RESULT:      -7.8      6.715      9.405
REMARK  1 active torsions:
REMARK  status: ('A' for Active; 'I' for Inactive)
REMARK    1  A    between atoms: C1_4  and  C3_6 
ROOT
HETATM    1 Cl1  UNK     1      13.681   7.348  32.679  1.00  0.00    -0.081 Cl
HETATM    2  O1  UNK     1      16.582   6.969  32.664  1.00  0.00    -0.338 OA
HETATM    3  O2  UNK     1      19.426   9.466  34.248  1.00  0.00    -0.292 OA
HETATM    4  C1  UNK     1      17.921   6.978  32.145  1.00  0.00     0.169 C 
HETATM    5  C2  UNK     1      18.928   7.351  33.233  1.00  0.00     0.121 C 
HETATM    6  C4  UNK     1      18.582   8.712  33.776  1.00  0.00     0.165 C 
HETATM    7  C5  UNK     1      17.148   9.063  33.779  1.00  0.00     0.045 A 
HETATM    8  C6  UNK     1      16.225   8.160  33.242  1.00  0.00     0.105 A 
HETATM    9  C9  UNK     1      16.712  10.261  34.349  1.00  0.00     0.018 A 
HETATM   10  C10 UNK     1      14.860   8.442  33.307  1.00  0.00     0.068 A 
HETATM   11  C14 UNK     1      15.346  10.547  34.393  1.00  0.00     0.003 A 
HETATM   12  C15 UNK     1      14.423   9.638  33.877  1.00  0.00     0.027 A 
ENDROOT
BRANCH   4  13
HETATM   13  C3  UNK     1      18.221   5.610  31.569  1.00  0.00    -0.029 A 
HETATM   14  C7  UNK     1      18.813   5.498  30.311  1.00  0.00     0.010 A 
HETATM   15  C12 UNK     1      19.089   4.237  29.781  1.00  0.00     0.007 A 
HETATM   16  C11 UNK     1      18.773   3.090  30.509  1.00  0.00    -0.062 A 
HETATM   17  C13 UNK     1      18.181   3.203  31.767  1.00  0.00     0.007 A 
HETATM   18  C16 UNK     1      19.067   1.743  29.941  1.00  0.00     0.048 C 
HETATM   19  C8  UNK     1      17.905   4.463  32.297  1.00  0.00     0.010 A 
ENDBRANCH   4  13
TORSDOF 1
ENDMDL
MODEL 4
REMARK VINA RESULT:      -7.7      3.618      5.405
REMARK  1 active torsions:
REMARK  status: ('A' for Active; 'I' for Inactive)
REMARK    1  A    between atoms: C1_4  and  C3_6 
ROOT
HETATM    1 Cl1  UNK     1      18.546   0.258  34.426  1.00  0.00    -0.081 Cl
HETATM    2  O1  UNK     1      18.630   1.743  31.906  1.00  0.00    -0.338 OA
HETATM    3  O2  UNK     1      19.639   0.301  28.200  1.00  0.00    -0.292 OA
HETATM    4  C1  UNK     1      19.155   2.619  30.897  1.00  0.00     0.169 C 
HETATM    5  C2  UNK     1      18.783   2.128  29.498  1.00  0.00     0.121 C 
HETATM    6  C4  UNK     1      19.331   0.739  29.303  1.00  0.00     0.165 C 
HETATM    7  C5  UNK     1      19.409  -0.102  30.515  1.00  0.00     0.045 A 
HETATM    8  C6  UNK     1      19.032   0.442  31.746  1.00  0.00     0.105 A 
HETATM    9  C9  UNK     1      19.813  -1.436  30.427  1.00  0.00     0.018 A 
HETATM   10  C10 UNK     1      19.027  -0.362  32.888  1.00  0.00     0.068 A 
HETATM   11  C14 UNK     1      19.824  -2.229  31.576  1.00  0.00     0.003 A 
HETATM   12  C15 UNK     1      19.428  -1.695  32.801  1.00  0.00     0.027 A 
ENDROOT
BRANCH   4  13
HETATM   13  C3  UNK     1      18.618   4.013  31.146  1.00  0.00    -0.029 A 
HETATM   14  C7  UNK     1      17.857   4.273  32.285  1.00  0.00     0.010 A 
HETATM   15  C12 UNK     1      17.362   5.557  32.515  1.00  0.00     0.007 A 
HETATM   16  C11 UNK     1      17.629   6.580  31.606  1.00  0.00    -0.062 A 
HETATM   17  C13 UNK     1      18.390   6.319  30.467  1.00  0.00     0.007 A 
HETATM   18  C16 UNK     1      17.099   7.952  31.851  1.00  0.00     0.048 C 
HETATM   19  C8  UNK     1      18.885   5.036  30.237  1.00  0.00     0.010 A 
ENDBRANCH   4  13
TORSDOF 1
ENDMDL
MODEL 5
REMARK VINA RESULT:      -7.6     12.602     14.745
REMARK  1 active torsions:
REMARK  status: ('A' for Active; 'I' for Inactive)
REMARK    1  A    between atoms: C1_4  and  C3_6 
ROOT
HETATM    1 Cl1  UNK     1      30.848 -10.065  38.155  1.00  0.00    -0.081 Cl
HETATM    2  O1  UNK     1      30.264  -7.229  37.734  1.00  0.00    -0.338 OA
HETATM    3  O2  UNK     1      26.937  -5.164  38.959  1.00  0.00    -0.292 OA
HETATM    4  C1  UNK     1      29.835  -6.049  37.037  1.00  0.00     0.169 C 
HETATM    5  C2  UNK     1      29.127  -5.081  37.983  1.00  0.00     0.121 C 
HETATM    6  C4  UNK     1      27.937  -5.773  38.594  1.00  0.00     0.165 C 
HETATM    7  C5  UNK     1      28.071  -7.229  38.800  1.00  0.00     0.045 A 
HETATM    8  C6  UNK     1      29.239  -7.871  38.378  1.00  0.00     0.105 A 
HETATM    9  C9  UNK     1      27.064  -7.949  39.448  1.00  0.00     0.018 A 
HETATM   10  C10 UNK     1      29.413  -9.232  38.635  1.00  0.00     0.068 A 
HETATM   11  C14 UNK     1      27.236  -9.314  39.684  1.00  0.00     0.003 A 
HETATM   12  C15 UNK     1      28.409  -9.952  39.283  1.00  0.00     0.027 A 
ENDROOT
BRANCH   4  13
HETATM   13  C3  UNK     1      31.047  -5.402  36.400  1.00  0.00    -0.029 A 
HETATM   14  C7  UNK     1      31.734  -6.062  35.381  1.00  0.00     0.010 A 
HETATM   15  C12 UNK     1      32.851  -5.465  34.794  1.00  0.00     0.007 A 
HETATM   16  C11 UNK     1      33.280  -4.210  35.227  1.00  0.00    -0.062 A 
HETATM   17  C13 UNK     1      32.591  -3.551  36.245  1.00  0.00     0.007 A 
HETATM   18  C16 UNK     1      34.473  -3.574  34.600  1.00  0.00     0.048 C 
HETATM   19  C8  UNK     1      31.474  -4.147  36.832  1.00  0.00     0.010 A 
ENDBRANCH   4  13
TORSDOF 1
ENDMDL
MODEL 6
REMARK VINA RESULT:      -7.6      2.996      6.192
REMARK  1 active torsions:
REMARK  status: ('A' for Active; 'I' for Inactive)
REMARK    1  A    between atoms: C1_4  and  C3_6 
ROOT
HETATM    1 Cl1  UNK     1      20.130  -2.085  33.526  1.00  0.00    -0.081 Cl
HETATM    2  O1  UNK     1      18.966   0.463  34.374  1.00  0.00    -0.338 OA
HETATM    3  O2  UNK     1      17.342   1.360  38.033  1.00  0.00    -0.292 OA
HETATM    4  C1  UNK     1      17.976   1.494  34.503  1.00  0.00     0.169 C 
HETATM    5  C2  UNK     1      18.046   2.152  35.881  1.00  0.00     0.121 C 
HETATM    6  C4  UNK     1      17.830   1.102  36.939  1.00  0.00     0.165 C 
HETATM    7  C5  UNK     1      18.312  -0.255  36.611  1.00  0.00     0.045 A 
HETATM    8  C6  UNK     1      18.874  -0.492  35.353  1.00  0.00     0.105 A 
HETATM    9  C9  UNK     1      18.246  -1.279  37.559  1.00  0.00     0.018 A 
HETATM   10  C10 UNK     1      19.403  -1.750  35.056  1.00  0.00     0.068 A 
HETATM   11  C14 UNK     1      18.759  -2.539  37.248  1.00  0.00     0.003 A 
HETATM   12  C15 UNK     1      19.340  -2.772  36.002  1.00  0.00     0.027 A 
ENDROOT
BRANCH   4  13
HETATM   13  C3  UNK     1      18.195   2.509  33.402  1.00  0.00    -0.029 A 
HETATM   14  C7  UNK     1      18.235   3.870  33.706  1.00  0.00     0.010 A 
HETATM   15  C12 UNK     1      18.438   4.806  32.691  1.00  0.00     0.007 A 
HETATM   16  C11 UNK     1      18.599   4.380  31.372  1.00  0.00    -0.062 A 
HETATM   17  C13 UNK     1      18.559   3.019  31.069  1.00  0.00     0.007 A 
HETATM   18  C16 UNK     1      18.814   5.380  30.288  1.00  0.00     0.048 C 
HETATM   19  C8  UNK     1      18.357   2.084  32.084  1.00  0.00     0.010 A 
ENDBRANCH   4  13
TORSDOF 1
ENDMDL
MODEL 7
REMARK VINA RESULT:      -7.6      3.246      4.361
REMARK  1 active torsions:
REMARK  status: ('A' for Active; 'I' for Inactive)
REMARK    1  A    between atoms: C1_4  and  C3_6 
ROOT
HETATM    1 Cl1  UNK     1      18.629   6.394  34.019  1.00  0.00    -0.081 Cl
HETATM    2  O1  UNK     1      18.568   3.557  33.307  1.00  0.00    -0.338 OA
HETATM    3  O2  UNK     1      18.865   1.926  29.554  1.00  0.00    -0.292 OA
HETATM    4  C1  UNK     1      17.998   2.271  33.019  1.00  0.00     0.169 C 
HETATM    5  C2  UNK     1      18.786   1.555  31.923  1.00  0.00     0.121 C 
HETATM    6  C4  UNK     1      18.781   2.405  30.679  1.00  0.00     0.165 C 
HETATM    7  C5  UNK     1      18.743   3.865  30.894  1.00  0.00     0.045 A 
HETATM    8  C6  UNK     1      18.661   4.359  32.200  1.00  0.00     0.105 A 
HETATM    9  C9  UNK     1      18.831   4.744  29.812  1.00  0.00     0.018 A 
HETATM   10  C10 UNK     1      18.702   5.737  32.424  1.00  0.00     0.068 A 
HETATM   11  C14 UNK     1      18.852   6.120  30.041  1.00  0.00     0.003 A 
HETATM   12  C15 UNK     1      18.792   6.615  31.344  1.00  0.00     0.027 A 
ENDROOT
BRANCH   4  13
HETATM   13  C3  UNK     1      17.979   1.458  34.297  1.00  0.00    -0.029 A 
HETATM   14  C7  UNK     1      18.170   2.089  35.526  1.00  0.00     0.010 A 
HETATM   15  C12 UNK     1      18.153   1.341  36.704  1.00  0.00     0.007 A 
HETATM   16  C11 UNK     1      17.946  -0.038  36.651  1.00  0.00    -0.062 A 
HETATM   17  C13 UNK     1      17.756  -0.668  35.421  1.00  0.00     0.007 A 
HETATM   18  C16 UNK     1      17.929  -0.837  37.909  1.00  0.00     0.048 C 
HETATM   19  C8  UNK     1      17.772   0.080  34.244  1.00  0.00     0.010 A 
ENDBRANCH   4  13
TORSDOF 1
ENDMDL
MODEL 8
REMARK VINA RESULT:      -7.5     13.384     14.612
REMARK  1 active torsions:
REMARK  status: ('A' for Active; 'I' for Inactive)
REMARK    1  A    between atoms: C1_4  and  C3_6 
ROOT
HETATM    1 Cl1  UNK     1      33.685  -8.141  35.142  1.00  0.00    -0.081 Cl
HETATM    2  O1  UNK     1      31.711  -6.501  36.547  1.00  0.00    -0.338 OA
HETATM    3  O2  UNK     1      31.551  -2.405  36.724  1.00  0.00    -0.292 OA
HETATM    4  C1  UNK     1      31.078  -5.839  37.653  1.00  0.00     0.169 C 
HETATM    5  C2  UNK     1      30.487  -4.496  37.223  1.00  0.00     0.121 C 
HETATM    6  C4  UNK     1      31.589  -3.629  36.672  1.00  0.00     0.165 C 
HETATM    7  C5  UNK     1      32.692  -4.338  35.992  1.00  0.00     0.045 A 
HETATM    8  C6  UNK     1      32.678  -5.736  35.949  1.00  0.00     0.105 A 
HETATM    9  C9  UNK     1      33.714  -3.623  35.363  1.00  0.00     0.018 A 
HETATM   10  C10 UNK     1      33.672  -6.418  35.245  1.00  0.00     0.068 A 
HETATM   11  C14 UNK     1      34.715  -4.312  34.678  1.00  0.00     0.003 A 
HETATM   12  C15 UNK     1      34.692  -5.704  34.615  1.00  0.00     0.027 A 
ENDROOT
BRANCH   4  13
HETATM   13  C3  UNK     1      30.006  -6.753  38.209  1.00  0.00    -0.029 A 
HETATM   14  C7  UNK     1      30.067  -8.125  37.968  1.00  0.00     0.010 A 
HETATM   15  C12 UNK     1      29.080  -8.968  38.480  1.00  0.00     0.007 A 
HETATM   16  C11 UNK     1      28.032  -8.437  39.233  1.00  0.00    -0.062 A 
HETATM   17  C13 UNK     1      27.972  -7.065  39.474  1.00  0.00     0.007 A 
HETATM   18  C16 UNK     1      26.977  -9.338  39.779  1.00  0.00     0.048 C 
HETATM   19  C8  UNK     1      28.959  -6.222  38.962  1.00  0.00     0.010 A 
ENDBRANCH   4  13
TORSDOF 1
ENDMDL
MODEL 9
REMARK VINA RESULT:      -7.5      1.931      3.059
REMARK  1 active torsions:
REMARK  status: ('A' for Active; 'I' for Inactive)
REMARK    1  A    between atoms: C1_4  and  C3_6 
ROOT
HETATM    1 Cl1  UNK     1      18.074   3.209  32.950  1.00  0.00    -0.081 Cl
HETATM    2  O1  UNK     1      19.098   0.497  32.552  1.00  0.00    -0.338 OA
HETATM    3  O2  UNK     1      20.027  -1.315  28.990  1.00  0.00    -0.292 OA
HETATM    4  C1  UNK     1      19.060  -0.933  32.425  1.00  0.00     0.169 C 
HETATM    5  C2  UNK     1      20.071  -1.418  31.386  1.00  0.00     0.121 C 
HETATM    6  C4  UNK     1      19.757  -0.779  30.059  1.00  0.00     0.165 C 
HETATM    7  C5  UNK     1      19.167   0.573  30.116  1.00  0.00     0.045 A 
HETATM    8  C6  UNK     1      18.892   1.144  31.362  1.00  0.00     0.105 A 
HETATM    9  C9  UNK     1      18.926   1.292  28.942  1.00  0.00     0.018 A 
HETATM   10  C10 UNK     1      18.406   2.451  31.434  1.00  0.00     0.068 A 
HETATM   11  C14 UNK     1      18.422   2.591  29.020  1.00  0.00     0.003 A 
HETATM   12  C15 UNK     1      18.168   3.170  30.262  1.00  0.00     0.027 A 
ENDROOT
BRANCH   4  13
HETATM   13  C3  UNK     1      19.339  -1.542  33.783  1.00  0.00    -0.029 A 
HETATM   14  C7  UNK     1      20.234  -2.605  33.900  1.00  0.00     0.010 A 
HETATM   15  C12 UNK     1      20.490  -3.166  35.151  1.00  0.00     0.007 A 
HETATM   16  C11 UNK     1      19.851  -2.664  36.285  1.00  0.00    -0.062 A 
HETATM   17  C13 UNK     1      18.956  -1.601  36.167  1.00  0.00     0.007 A 
HETATM   18  C16 UNK     1      20.124  -3.265  37.621  1.00  0.00     0.048 C 
HETATM   19  C8  UNK     1      18.700  -1.039  34.916  1.00  0.00     0.010 A 
ENDBRANCH   4  13
TORSDOF 1
ENDMDL
MODEL 10
REMARK VINA RESULT:      -7.5      7.879     10.233
REMARK  1 active torsions:
REMARK  status: ('A' for Active; 'I' for Inactive)
REMARK    1  A    between atoms: C1_4  and  C3_6 
ROOT
HETATM    1 Cl1  UNK     1      17.669  11.436  34.242  1.00  0.00    -0.081 Cl
HETATM    2  O1  UNK     1      17.348   8.850  32.912  1.00  0.00    -0.338 OA
HETATM    3  O2  UNK     1      13.832   6.979  31.926  1.00  0.00    -0.292 OA
HETATM    4  C1  UNK     1      17.289   7.421  32.780  1.00  0.00     0.169 C 
HETATM    5  C2  UNK     1      16.225   7.008  31.764  1.00  0.00     0.121 C 
HETATM    6  C4  UNK     1      14.887   7.533  32.213  1.00  0.00     0.165 C 
HETATM    7  C5  UNK     1      14.910   8.807  32.961  1.00  0.00     0.045 A 
HETATM    8  C6  UNK     1      16.140   9.405  33.249  1.00  0.00     0.105 A 
HETATM    9  C9  UNK     1      13.717   9.429  33.339  1.00  0.00     0.018 A 
HETATM   10  C10 UNK     1      16.176  10.646  33.887  1.00  0.00     0.068 A 
HETATM   11  C14 UNK     1      13.760  10.660  33.994  1.00  0.00     0.003 A 
HETATM   12  C15 UNK     1      14.985  11.269  34.263  1.00  0.00     0.027 A 
ENDROOT
BRANCH   4  13
HETATM   13  C3  UNK     1      18.659   6.922  32.370  1.00  0.00    -0.029 A 
HETATM   14  C7  UNK     1      18.843   6.345  31.114  1.00  0.00     0.010 A 
HETATM   15  C12 UNK     1      20.104   5.885  30.735  1.00  0.00     0.007 A 
HETATM   16  C11 UNK     1      21.182   6.002  31.614  1.00  0.00    -0.062 A 
HETATM   17  C13 UNK     1      20.997   6.580  32.870  1.00  0.00     0.007 A 
HETATM   18  C16 UNK     1      22.529   5.510  31.210  1.00  0.00     0.048 C 
HETATM   19  C8  UNK     1      19.735   7.040  33.248  1.00  0.00     0.010 A 
ENDBRANCH   4  13
TORSDOF 1
ENDMDL
