MODEL 1
REMARK VINA RESULT:      -7.4      0.000      0.000
REMARK  5 active torsions:
REMARK  status: ('A' for Active; 'I' for Inactive)
REMARK    1  A    between atoms: C3_8  and  N1_4 
REMARK    2  A    between atoms: C10_15  and  N2_5 
REMARK    3  A    between atoms: C15_20  and  N2_5 
REMARK    4  A    between atoms: C16_21  and  N2_5 
REMARK    5  A    between atoms: C3_8  and  C6_11 
ROOT
HETATM    1  O2  UNK     1      18.335   1.645  31.843  1.00  0.00    -0.274 OA
HETATM    2  O3  UNK     1      18.243   2.992  30.003  1.00  0.00    -0.259 OA
HETATM    3  C6  UNK     1      18.256   4.083  32.112  1.00  0.00     0.046 A 
HETATM    4  C7  UNK     1      18.354   2.633  34.061  1.00  0.00    -0.001 A 
HETATM    5  C8  UNK     1      18.293   3.947  33.444  1.00  0.00     0.029 A 
HETATM    6  C9  UNK     1      18.373   1.509  33.243  1.00  0.00     0.091 A 
HETATM    7  C10 UNK     1      18.469   0.055  35.151  1.00  0.00     0.032 A 
HETATM    8  C11 UNK     1      18.277   2.891  31.224  1.00  0.00     0.296 A 
HETATM    9  C12 UNK     1      18.430   0.219  33.769  1.00  0.00     0.067 A 
HETATM   10  C13 UNK     1      18.394   2.460  35.446  1.00  0.00     0.016 A 
HETATM   11  C14 UNK     1      18.451   1.173  35.989  1.00  0.00     0.030 A 
ENDROOT
BRANCH   3  12
HETATM   12  C3  UNK     1      18.194   5.423  31.443  1.00  0.00     0.317 C 
BRANCH  12  13
HETATM   13  N1  UNK     1      17.781   6.475  32.370  1.00  0.00     0.097 N 
HETATM   14  C1  UNK     1      18.931   7.294  32.774  1.00  0.00     0.299 C 
HETATM   15  C4  UNK     1      18.473   8.392  33.731  1.00  0.00     0.198 C 
HETATM   16  O1  UNK     1      17.475   9.206  33.114  1.00  0.00    -0.388 OA
HETATM   17  C5  UNK     1      16.339   8.422  32.746  1.00  0.00     0.198 C 
HETATM   18  C2  UNK     1      16.745   7.325  31.766  1.00  0.00     0.299 C 
ENDBRANCH  12  13
ENDBRANCH   3  12
BRANCH   7  19
HETATM   19  N2  UNK     1      18.526  -1.240  35.707  1.00  0.00    -0.382 N 
BRANCH  19  20
HETATM   20  C15 UNK     1      17.621  -1.621  36.773  1.00  0.00     0.118 C 
HETATM   21  C17 UNK     1      18.255  -1.427  38.135  1.00  0.00     0.026 C 
ENDBRANCH  19  20
BRANCH  19  22
HETATM   22  C16 UNK     1      19.481  -2.210  35.209  1.00  0.00     0.118 C 
HETATM   23  C18 UNK     1      20.859  -1.981  35.792  1.00  0.00     0.026 C 
ENDBRANCH  19  22
ENDBRANCH   7  19
TORSDOF 5
ENDMDL
MODEL 2
REMARK VINA RESULT:      -7.1      5.496      8.701
REMARK  5 active torsions:
REMARK  status: ('A' for Active; 'I' for Inactive)
REMARK    1  A    between atoms: C3_8  and  N1_4 
REMARK    2  A    between atoms: C10_15  and  N2_5 
REMARK    3  A    between atoms: C15_20  and  N2_5 
REMARK    4  A    between atoms: C16_21  and  N2_5 
REMARK    5  A    between atoms: C3_8  and  C6_11 
ROOT
HETATM    1  O2  UNK     1      20.385  -5.112  34.831  1.00  0.00    -0.274 OA
HETATM    2  O3  UNK     1      20.326  -3.070  33.813  1.00  0.00    -0.259 OA
HETATM    3  C6  UNK     1      19.961  -3.092  36.160  1.00  0.00     0.046 A 
HETATM    4  C7  UNK     1      20.027  -5.276  37.228  1.00  0.00    -0.001 A 
HETATM    5  C8  UNK     1      19.866  -3.832  37.272  1.00  0.00     0.029 A 
HETATM    6  C9  UNK     1      20.283  -5.884  36.004  1.00  0.00     0.091 A 
HETATM    7  C10 UNK     1      20.353  -8.051  37.034  1.00  0.00     0.032 A 
HETATM    8  C11 UNK     1      20.235  -3.728  34.844  1.00  0.00     0.296 A 
HETATM    9  C12 UNK     1      20.448  -7.264  35.890  1.00  0.00     0.067 A 
HETATM   10  C13 UNK     1      19.934  -6.073  38.370  1.00  0.00     0.016 A 
HETATM   11  C14 UNK     1      20.096  -7.458  38.273  1.00  0.00     0.030 A 
ENDROOT
BRANCH   3  12
HETATM   12  C3  UNK     1      19.801  -1.602  36.170  1.00  0.00     0.317 C 
BRANCH  12  13
HETATM   13  N1  UNK     1      18.394  -1.207  36.185  1.00  0.00     0.097 N 
HETATM   14  C1  UNK     1      18.169  -0.120  37.148  1.00  0.00     0.299 C 
HETATM   15  C4  UNK     1      16.696   0.283  37.137  1.00  0.00     0.198 C 
HETATM   16  O1  UNK     1      16.302   0.691  35.827  1.00  0.00    -0.388 OA
HETATM   17  C5  UNK     1      16.489  -0.370  34.889  1.00  0.00     0.198 C 
HETATM   18  C2  UNK     1      17.955  -0.791  34.846  1.00  0.00     0.299 C 
ENDBRANCH  12  13
ENDBRANCH   3  12
BRANCH   7  19
HETATM   19  N2  UNK     1      20.514  -9.450  36.944  1.00  0.00    -0.382 N 
BRANCH  19  20
HETATM   20  C15 UNK     1      21.809 -10.020  36.630  1.00  0.00     0.118 C 
HETATM   21  C17 UNK     1      21.770 -10.808  35.337  1.00  0.00     0.026 C 
ENDBRANCH  19  20
BRANCH  19  22
HETATM   22  C16 UNK     1      19.390 -10.334  37.176  1.00  0.00     0.118 C 
HETATM   23  C18 UNK     1      19.465 -10.980  38.544  1.00  0.00     0.026 C 
ENDBRANCH  19  22
ENDBRANCH   7  19
TORSDOF 5
ENDMDL
MODEL 3
REMARK VINA RESULT:      -7.1     12.402     14.831
REMARK  5 active torsions:
REMARK  status: ('A' for Active; 'I' for Inactive)
REMARK    1  A    between atoms: C3_8  and  N1_4 
REMARK    2  A    between atoms: C10_15  and  N2_5 
REMARK    3  A    between atoms: C15_20  and  N2_5 
REMARK    4  A    between atoms: C16_21  and  N2_5 
REMARK    5  A    between atoms: C3_8  and  C6_11 
ROOT
HETATM    1  O2  UNK     1      25.443  -5.585  38.655  1.00  0.00    -0.274 OA
HETATM    2  O3  UNK     1      23.198  -5.256  38.899  1.00  0.00    -0.259 OA
HETATM    3  C6  UNK     1      23.956  -7.504  39.015  1.00  0.00     0.046 A 
HETATM    4  C7  UNK     1      26.350  -7.836  38.753  1.00  0.00    -0.001 A 
HETATM    5  C8  UNK     1      25.002  -8.337  38.964  1.00  0.00     0.029 A 
HETATM    6  C9  UNK     1      26.539  -6.467  38.603  1.00  0.00     0.091 A 
HETATM    7  C10 UNK     1      28.907  -6.768  38.340  1.00  0.00     0.032 A 
HETATM    8  C11 UNK     1      24.142  -6.037  38.857  1.00  0.00     0.296 A 
HETATM    9  C12 UNK     1      27.805  -5.919  38.396  1.00  0.00     0.067 A 
HETATM   10  C13 UNK     1      27.461  -8.680  38.696  1.00  0.00     0.016 A 
HETATM   11  C14 UNK     1      28.736  -8.146  38.490  1.00  0.00     0.030 A 
ENDROOT
BRANCH   3  12
HETATM   12  C3  UNK     1      22.554  -7.987  39.232  1.00  0.00     0.317 C 
BRANCH  12  13
HETATM   13  N1  UNK     1      22.054  -8.740  38.083  1.00  0.00     0.097 N 
HETATM   14  C1  UNK     1      20.915  -9.583  38.469  1.00  0.00     0.299 C 
HETATM   15  C4  UNK     1      20.404 -10.350  37.252  1.00  0.00     0.198 C 
HETATM   16  O1  UNK     1      20.023  -9.443  36.216  1.00  0.00    -0.388 OA
HETATM   17  C5  UNK     1      21.134  -8.640  35.813  1.00  0.00     0.198 C 
HETATM   18  C2  UNK     1      21.664  -7.833  36.995  1.00  0.00     0.299 C 
ENDBRANCH  12  13
ENDBRANCH   3  12
BRANCH   7  19
HETATM   19  N2  UNK     1      30.197  -6.237  38.131  1.00  0.00    -0.382 N 
BRANCH  19  20
HETATM   20  C15 UNK     1      30.537  -4.918  38.627  1.00  0.00     0.118 C 
HETATM   21  C17 UNK     1      30.690  -3.922  37.496  1.00  0.00     0.026 C 
ENDBRANCH  19  20
BRANCH  19  22
HETATM   22  C16 UNK     1      31.202  -7.009  37.428  1.00  0.00     0.118 C 
HETATM   23  C18 UNK     1      32.312  -7.450  38.359  1.00  0.00     0.026 C 
ENDBRANCH  19  22
ENDBRANCH   7  19
TORSDOF 5
ENDMDL
MODEL 4
REMARK VINA RESULT:      -7.1     24.547     26.722
REMARK  5 active torsions:
REMARK  status: ('A' for Active; 'I' for Inactive)
REMARK    1  A    between atoms: C3_8  and  N1_4 
REMARK    2  A    between atoms: C10_15  and  N2_5 
REMARK    3  A    between atoms: C15_20  and  N2_5 
REMARK    4  A    between atoms: C16_21  and  N2_5 
REMARK    5  A    between atoms: C3_8  and  C6_11 
ROOT
HETATM    1  O2  UNK     1      16.028   7.346  10.119  1.00  0.00    -0.274 OA
HETATM    2  O3  UNK     1      14.899   5.437  10.657  1.00  0.00    -0.259 OA
HETATM    3  C6  UNK     1      13.669   7.098   9.487  1.00  0.00     0.046 A 
HETATM    4  C7  UNK     1      14.888   9.125   8.921  1.00  0.00    -0.001 A 
HETATM    5  C8  UNK     1      13.683   8.311   8.921  1.00  0.00     0.029 A 
HETATM    6  C9  UNK     1      16.036   8.621   9.522  1.00  0.00     0.091 A 
HETATM    7  C10 UNK     1      17.261  10.612   8.976  1.00  0.00     0.032 A 
HETATM    8  C11 UNK     1      14.889   6.545  10.133  1.00  0.00     0.296 A 
HETATM    9  C12 UNK     1      17.225   9.348   9.558  1.00  0.00     0.067 A 
HETATM   10  C13 UNK     1      14.933  10.392   8.339  1.00  0.00     0.016 A 
HETATM   11  C14 UNK     1      16.117  11.134   8.367  1.00  0.00     0.030 A 
ENDROOT
BRANCH   3  12
HETATM   12  C3  UNK     1      12.445   6.234   9.504  1.00  0.00     0.317 C 
BRANCH  12  13
HETATM   13  N1  UNK     1      11.565   6.514   8.372  1.00  0.00     0.097 N 
HETATM   14  C1  UNK     1      11.935   5.695   7.210  1.00  0.00     0.299 C 
HETATM   15  C4  UNK     1      10.995   5.997   6.045  1.00  0.00     0.198 C 
HETATM   16  O1  UNK     1       9.641   5.746   6.420  1.00  0.00    -0.388 OA
HETATM   17  C5  UNK     1       9.263   6.561   7.530  1.00  0.00     0.198 C 
HETATM   18  C2  UNK     1      10.161   6.274   8.731  1.00  0.00     0.299 C 
ENDBRANCH  12  13
ENDBRANCH   3  12
BRANCH   7  19
HETATM   19  N2  UNK     1      18.452  11.367   9.001  1.00  0.00    -0.382 N 
BRANCH  19  20
HETATM   20  C15 UNK     1      19.236  11.542   7.795  1.00  0.00     0.118 C 
HETATM   21  C17 UNK     1      19.061  12.931   7.217  1.00  0.00     0.026 C 
ENDBRANCH  19  20
BRANCH  19  22
HETATM   22  C16 UNK     1      18.901  11.988  10.232  1.00  0.00     0.118 C 
HETATM   23  C18 UNK     1      20.371  11.724  10.482  1.00  0.00     0.026 C 
ENDBRANCH  19  22
ENDBRANCH   7  19
TORSDOF 5
ENDMDL
MODEL 5
REMARK VINA RESULT:      -7.0     14.756     16.396
REMARK  5 active torsions:
REMARK  status: ('A' for Active; 'I' for Inactive)
REMARK    1  A    between atoms: C3_8  and  N1_4 
REMARK    2  A    between atoms: C10_15  and  N2_5 
REMARK    3  A    between atoms: C15_20  and  N2_5 
REMARK    4  A    between atoms: C16_21  and  N2_5 
REMARK    5  A    between atoms: C3_8  and  C6_11 
ROOT
HETATM    1  O2  UNK     1      28.435  -6.999  33.621  1.00  0.00    -0.274 OA
HETATM    2  O3  UNK     1      27.418  -7.647  31.683  1.00  0.00    -0.259 OA
HETATM    3  C6  UNK     1      29.522  -6.568  31.463  1.00  0.00     0.046 A 
HETATM    4  C7  UNK     1      30.591  -5.884  33.537  1.00  0.00    -0.001 A 
HETATM    5  C8  UNK     1      30.557  -5.992  32.088  1.00  0.00     0.029 A 
HETATM    6  C9  UNK     1      29.526  -6.392  34.272  1.00  0.00     0.091 A 
HETATM    7  C10 UNK     1      30.560  -5.727  36.334  1.00  0.00     0.032 A 
HETATM    8  C11 UNK     1      28.376  -7.116  32.235  1.00  0.00     0.296 A 
HETATM    9  C12 UNK     1      29.494  -6.322  35.664  1.00  0.00     0.067 A 
HETATM   10  C13 UNK     1      31.656  -5.290  34.217  1.00  0.00     0.016 A 
HETATM   11  C14 UNK     1      31.639  -5.211  35.613  1.00  0.00     0.030 A 
ENDROOT
BRANCH   3  12
HETATM   12  C3  UNK     1      29.455  -6.695  29.972  1.00  0.00     0.317 C 
BRANCH  12  13
HETATM   13  N1  UNK     1      30.174  -7.875  29.494  1.00  0.00     0.097 N 
HETATM   14  C1  UNK     1      29.260  -8.798  28.807  1.00  0.00     0.299 C 
HETATM   15  C4  UNK     1      30.034 -10.015  28.307  1.00  0.00     0.198 C 
HETATM   16  O1  UNK     1      31.084  -9.611  27.429  1.00  0.00    -0.388 OA
HETATM   17  C5  UNK     1      31.995  -8.736  28.097  1.00  0.00     0.198 C 
HETATM   18  C2  UNK     1      31.269  -7.489  28.593  1.00  0.00     0.299 C 
ENDBRANCH  12  13
ENDBRANCH   3  12
BRANCH   7  19
HETATM   19  N2  UNK     1      30.549  -5.643  37.742  1.00  0.00    -0.382 N 
BRANCH  19  20
HETATM   20  C15 UNK     1      29.352  -5.225  38.443  1.00  0.00     0.118 C 
HETATM   21  C17 UNK     1      29.607  -3.998  39.294  1.00  0.00     0.026 C 
ENDBRANCH  19  20
BRANCH  19  22
HETATM   22  C16 UNK     1      31.732  -5.986  38.506  1.00  0.00     0.118 C 
HETATM   23  C18 UNK     1      32.039  -7.467  38.417  1.00  0.00     0.026 C 
ENDBRANCH  19  22
ENDBRANCH   7  19
TORSDOF 5
ENDMDL
MODEL 6
REMARK VINA RESULT:      -6.9     14.300     16.169
REMARK  5 active torsions:
REMARK  status: ('A' for Active; 'I' for Inactive)
REMARK    1  A    between atoms: C3_8  and  N1_4 
REMARK    2  A    between atoms: C10_15  and  N2_5 
REMARK    3  A    between atoms: C15_20  and  N2_5 
REMARK    4  A    between atoms: C16_21  and  N2_5 
REMARK    5  A    between atoms: C3_8  and  C6_11 
ROOT
HETATM    1  O2  UNK     1      28.718  -5.952  33.710  1.00  0.00    -0.274 OA
HETATM    2  O3  UNK     1      29.026  -4.791  31.770  1.00  0.00    -0.259 OA
HETATM    3  C6  UNK     1      28.873  -7.153  31.575  1.00  0.00     0.046 A 
HETATM    4  C7  UNK     1      28.545  -8.374  33.652  1.00  0.00    -0.001 A 
HETATM    5  C8  UNK     1      28.714  -8.321  32.209  1.00  0.00     0.029 A 
HETATM    6  C9  UNK     1      28.552  -7.184  34.370  1.00  0.00     0.091 A 
HETATM    7  C10 UNK     1      28.229  -8.367  36.435  1.00  0.00     0.032 A 
HETATM    8  C11 UNK     1      28.881  -5.872  32.330  1.00  0.00     0.296 A 
HETATM    9  C12 UNK     1      28.396  -7.163  35.756  1.00  0.00     0.067 A 
HETATM   10  C13 UNK     1      28.376  -9.577  34.340  1.00  0.00     0.016 A 
HETATM   11  C14 UNK     1      28.219  -9.572  35.730  1.00  0.00     0.030 A 
ENDROOT
BRANCH   3  12
HETATM   12  C3  UNK     1      29.048  -7.063  30.089  1.00  0.00     0.317 C 
BRANCH  12  13
HETATM   13  N1  UNK     1      29.925  -8.116  29.581  1.00  0.00     0.097 N 
HETATM   14  C1  UNK     1      29.169  -9.071  28.760  1.00  0.00     0.299 C 
HETATM   15  C4  UNK     1      30.107 -10.154  28.231  1.00  0.00     0.198 C 
HETATM   16  O1  UNK     1      31.161  -9.568  27.467  1.00  0.00    -0.388 OA
HETATM   17  C5  UNK     1      31.922  -8.660  28.266  1.00  0.00     0.198 C 
HETATM   18  C2  UNK     1      31.028  -7.543  28.797  1.00  0.00     0.299 C 
ENDBRANCH  12  13
ENDBRANCH   3  12
BRANCH   7  19
HETATM   19  N2  UNK     1      28.071  -8.370  37.837  1.00  0.00    -0.382 N 
BRANCH  19  20
HETATM   20  C15 UNK     1      28.657  -9.425  38.639  1.00  0.00     0.118 C 
HETATM   21  C17 UNK     1      27.606 -10.156  39.448  1.00  0.00     0.026 C 
ENDBRANCH  19  20
BRANCH  19  22
HETATM   22  C16 UNK     1      27.330  -7.311  38.494  1.00  0.00     0.118 C 
HETATM   23  C18 UNK     1      28.237  -6.446  39.343  1.00  0.00     0.026 C 
ENDBRANCH  19  22
ENDBRANCH   7  19
TORSDOF 5
ENDMDL
MODEL 7
REMARK VINA RESULT:      -6.9     11.926     14.130
REMARK  5 active torsions:
REMARK  status: ('A' for Active; 'I' for Inactive)
REMARK    1  A    between atoms: C3_8  and  N1_4 
REMARK    2  A    between atoms: C10_15  and  N2_5 
REMARK    3  A    between atoms: C15_20  and  N2_5 
REMARK    4  A    between atoms: C16_21  and  N2_5 
REMARK    5  A    between atoms: C3_8  and  C6_11 
ROOT
HETATM    1  O2  UNK     1      24.377  -9.309  36.814  1.00  0.00    -0.274 OA
HETATM    2  O3  UNK     1      26.598  -9.707  36.477  1.00  0.00    -0.259 OA
HETATM    3  C6  UNK     1      26.042  -8.299  38.306  1.00  0.00     0.046 A 
HETATM    4  C7  UNK     1      23.671  -7.885  38.650  1.00  0.00    -0.001 A 
HETATM    5  C8  UNK     1      25.068  -7.707  39.009  1.00  0.00     0.029 A 
HETATM    6  C9  UNK     1      23.357  -8.685  37.557  1.00  0.00     0.091 A 
HETATM    7  C10 UNK     1      21.010  -8.292  37.875  1.00  0.00     0.032 A 
HETATM    8  C11 UNK     1      25.723  -9.157  37.135  1.00  0.00     0.296 A 
HETATM    9  C12 UNK     1      22.038  -8.897  37.157  1.00  0.00     0.067 A 
HETATM   10  C13 UNK     1      22.634  -7.282  39.364  1.00  0.00     0.016 A 
HETATM   11  C14 UNK     1      21.306  -7.485  38.976  1.00  0.00     0.030 A 
ENDROOT
BRANCH   3  12
HETATM   12  C3  UNK     1      27.492  -8.137  38.649  1.00  0.00     0.317 C 
BRANCH  12  13
HETATM   13  N1  UNK     1      28.052  -6.911  38.082  1.00  0.00     0.097 N 
HETATM   14  C1  UNK     1      28.559  -6.031  39.142  1.00  0.00     0.299 C 
HETATM   15  C4  UNK     1      29.149  -4.765  38.525  1.00  0.00     0.198 C 
HETATM   16  O1  UNK     1      30.195  -5.097  37.612  1.00  0.00    -0.388 OA
HETATM   17  C5  UNK     1      29.704  -5.929  36.560  1.00  0.00     0.198 C 
HETATM   18  C2  UNK     1      29.126  -7.222  37.129  1.00  0.00     0.299 C 
ENDBRANCH  12  13
ENDBRANCH   3  12
BRANCH   7  19
HETATM   19  N2  UNK     1      19.668  -8.491  37.488  1.00  0.00    -0.382 N 
BRANCH  19  20
HETATM   20  C15 UNK     1      19.134  -9.831  37.358  1.00  0.00     0.118 C 
HETATM   21  C17 UNK     1      19.297 -10.621  38.640  1.00  0.00     0.026 C 
ENDBRANCH  19  20
BRANCH  19  22
HETATM   22  C16 UNK     1      18.803  -7.357  37.230  1.00  0.00     0.118 C 
HETATM   23  C18 UNK     1      18.341  -7.329  35.788  1.00  0.00     0.026 C 
ENDBRANCH  19  22
ENDBRANCH   7  19
TORSDOF 5
ENDMDL
MODEL 8
REMARK VINA RESULT:      -6.9     14.876     16.397
REMARK  5 active torsions:
REMARK  status: ('A' for Active; 'I' for Inactive)
REMARK    1  A    between atoms: C3_8  and  N1_4 
REMARK    2  A    between atoms: C10_15  and  N2_5 
REMARK    3  A    between atoms: C15_20  and  N2_5 
REMARK    4  A    between atoms: C16_21  and  N2_5 
REMARK    5  A    between atoms: C3_8  and  C6_11 
ROOT
HETATM    1  O2  UNK     1      30.178  -5.516  33.172  1.00  0.00    -0.274 OA
HETATM    2  O3  UNK     1      30.145  -5.066  30.935  1.00  0.00    -0.259 OA
HETATM    3  C6  UNK     1      29.054  -7.057  31.628  1.00  0.00     0.046 A 
HETATM    4  C7  UNK     1      29.097  -7.522  34.015  1.00  0.00    -0.001 A 
HETATM    5  C8  UNK     1      28.718  -7.853  32.652  1.00  0.00     0.029 A 
HETATM    6  C9  UNK     1      29.821  -6.357  34.243  1.00  0.00     0.091 A 
HETATM    7  C10 UNK     1      29.880  -6.792  36.604  1.00  0.00     0.032 A 
HETATM    8  C11 UNK     1      29.827  -5.809  31.857  1.00  0.00     0.296 A 
HETATM    9  C12 UNK     1      30.219  -5.979  35.526  1.00  0.00     0.067 A 
HETATM   10  C13 UNK     1      28.761  -8.331  35.102  1.00  0.00     0.016 A 
HETATM   11  C14 UNK     1      29.152  -7.966  36.394  1.00  0.00     0.030 A 
ENDROOT
BRANCH   3  12
HETATM   12  C3  UNK     1      28.677  -7.369  30.212  1.00  0.00     0.317 C 
BRANCH  12  13
HETATM   13  N1  UNK     1      29.572  -8.360  29.617  1.00  0.00     0.097 N 
HETATM   14  C1  UNK     1      28.812  -9.349  28.841  1.00  0.00     0.299 C 
HETATM   15  C4  UNK     1      29.768 -10.365  28.220  1.00  0.00     0.198 C 
HETATM   16  O1  UNK     1      30.722  -9.706  27.387  1.00  0.00    -0.388 OA
HETATM   17  C5  UNK     1      31.488  -8.764  28.141  1.00  0.00     0.198 C 
HETATM   18  C2  UNK     1      30.574  -7.710  28.760  1.00  0.00     0.299 C 
ENDBRANCH  12  13
ENDBRANCH   3  12
BRANCH   7  19
HETATM   19  N2  UNK     1      30.272  -6.432  37.910  1.00  0.00    -0.382 N 
BRANCH  19  20
HETATM   20  C15 UNK     1      29.286  -5.991  38.877  1.00  0.00     0.118 C 
HETATM   21  C17 UNK     1      29.385  -4.501  39.130  1.00  0.00     0.026 C 
ENDBRANCH  19  20
BRANCH  19  22
HETATM   22  C16 UNK     1      31.664  -6.509  38.306  1.00  0.00     0.118 C 
HETATM   23  C18 UNK     1      32.140  -7.945  38.381  1.00  0.00     0.026 C 
ENDBRANCH  19  22
ENDBRANCH   7  19
TORSDOF 5
ENDMDL
MODEL 9
REMARK VINA RESULT:      -6.9     14.856     16.450
REMARK  5 active torsions:
REMARK  status: ('A' for Active; 'I' for Inactive)
REMARK    1  A    between atoms: C3_8  and  N1_4 
REMARK    2  A    between atoms: C10_15  and  N2_5 
REMARK    3  A    between atoms: C15_20  and  N2_5 
REMARK    4  A    between atoms: C16_21  and  N2_5 
REMARK    5  A    between atoms: C3_8  and  C6_11 
ROOT
HETATM    1  O2  UNK     1      30.127  -5.503  33.204  1.00  0.00    -0.274 OA
HETATM    2  O3  UNK     1      30.072  -5.023  30.974  1.00  0.00    -0.259 OA
HETATM    3  C6  UNK     1      29.058  -7.064  31.641  1.00  0.00     0.046 A 
HETATM    4  C7  UNK     1      29.126  -7.560  34.021  1.00  0.00    -0.001 A 
HETATM    5  C8  UNK     1      28.755  -7.886  32.654  1.00  0.00     0.029 A 
HETATM    6  C9  UNK     1      29.806  -6.372  34.264  1.00  0.00     0.091 A 
HETATM    7  C10 UNK     1      29.887  -6.837  36.618  1.00  0.00     0.032 A 
HETATM    8  C11 UNK     1      29.784  -5.790  31.886  1.00  0.00     0.296 A 
HETATM    9  C12 UNK     1      30.192  -5.997  35.551  1.00  0.00     0.067 A 
HETATM   10  C13 UNK     1      28.823  -8.396  35.097  1.00  0.00     0.016 A 
HETATM   11  C14 UNK     1      29.204  -8.035  36.393  1.00  0.00     0.030 A 
ENDROOT
BRANCH   3  12
HETATM   12  C3  UNK     1      28.690  -7.371  30.221  1.00  0.00     0.317 C 
BRANCH  12  13
HETATM   13  N1  UNK     1      29.590  -8.357  29.627  1.00  0.00     0.097 N 
HETATM   14  C1  UNK     1      28.837  -9.341  28.838  1.00  0.00     0.299 C 
HETATM   15  C4  UNK     1      29.798 -10.352  28.218  1.00  0.00     0.198 C 
HETATM   16  O1  UNK     1      30.758  -9.687  27.397  1.00  0.00    -0.388 OA
HETATM   17  C5  UNK     1      31.518  -8.750  28.163  1.00  0.00     0.198 C 
HETATM   18  C2  UNK     1      30.599  -7.701  28.783  1.00  0.00     0.299 C 
ENDBRANCH  12  13
ENDBRANCH   3  12
BRANCH   7  19
HETATM   19  N2  UNK     1      30.268  -6.480  37.928  1.00  0.00    -0.382 N 
BRANCH  19  20
HETATM   20  C15 UNK     1      31.655  -6.570  38.339  1.00  0.00     0.118 C 
HETATM   21  C17 UNK     1      32.133  -8.007  38.370  1.00  0.00     0.026 C 
ENDBRANCH  19  20
BRANCH  19  22
HETATM   22  C16 UNK     1      29.280  -6.007  38.877  1.00  0.00     0.118 C 
HETATM   23  C18 UNK     1      29.392  -4.512  39.095  1.00  0.00     0.026 C 
ENDBRANCH  19  22
ENDBRANCH   7  19
TORSDOF 5
ENDMDL
MODEL 10
REMARK VINA RESULT:      -6.8     24.169     26.862
REMARK  5 active torsions:
REMARK  status: ('A' for Active; 'I' for Inactive)
REMARK    1  A    between atoms: C3_8  and  N1_4 
REMARK    2  A    between atoms: C10_15  and  N2_5 
REMARK    3  A    between atoms: C15_20  and  N2_5 
REMARK    4  A    between atoms: C16_21  and  N2_5 
REMARK    5  A    between atoms: C3_8  and  C6_11 
ROOT
HETATM    1  O2  UNK     1      16.581   9.169  10.558  1.00  0.00    -0.274 OA
HETATM    2  O3  UNK     1      15.343   7.638  11.713  1.00  0.00    -0.259 OA
HETATM    3  C6  UNK     1      14.257   8.728   9.904  1.00  0.00     0.046 A 
HETATM    4  C7  UNK     1      15.591  10.356   8.685  1.00  0.00    -0.001 A 
HETATM    5  C8  UNK     1      14.356   9.625   8.914  1.00  0.00     0.029 A 
HETATM    6  C9  UNK     1      16.678  10.110   9.516  1.00  0.00     0.091 A 
HETATM    7  C10 UNK     1      18.016  11.712   8.330  1.00  0.00     0.032 A 
HETATM    8  C11 UNK     1      15.411   8.454  10.800  1.00  0.00     0.296 A 
HETATM    9  C12 UNK     1      17.892  10.776   9.353  1.00  0.00     0.067 A 
HETATM   10  C13 UNK     1      15.724  11.295   7.661  1.00  0.00     0.016 A 
HETATM   11  C14 UNK     1      16.935  11.972   7.485  1.00  0.00     0.030 A 
ENDROOT
BRANCH   3  12
HETATM   12  C3  UNK     1      13.000   7.957  10.167  1.00  0.00     0.317 C 
BRANCH  12  13
HETATM   13  N1  UNK     1      12.669   7.062   9.060  1.00  0.00     0.097 N 
HETATM   14  C1  UNK     1      12.825   5.658   9.461  1.00  0.00     0.299 C 
HETATM   15  C4  UNK     1      12.464   4.743   8.294  1.00  0.00     0.198 C 
HETATM   16  O1  UNK     1      11.125   4.991   7.864  1.00  0.00    -0.388 OA
HETATM   17  C5  UNK     1      10.971   6.347   7.442  1.00  0.00     0.198 C 
HETATM   18  C2  UNK     1      11.298   7.300   8.588  1.00  0.00     0.299 C 
ENDBRANCH  12  13
ENDBRANCH   3  12
BRANCH   7  19
HETATM   19  N2  UNK     1      19.234  12.400   8.147  1.00  0.00    -0.382 N 
BRANCH  19  20
HETATM   20  C15 UNK     1      20.340  12.190   9.059  1.00  0.00     0.118 C 
HETATM   21  C17 UNK     1      21.618  11.863   8.317  1.00  0.00     0.026 C 
ENDBRANCH  19  20
BRANCH  19  22
HETATM   22  C16 UNK     1      19.399  13.315   7.035  1.00  0.00     0.118 C 
HETATM   23  C18 UNK     1      19.393  14.757   7.498  1.00  0.00     0.026 C 
ENDBRANCH  19  22
ENDBRANCH   7  19
TORSDOF 5
ENDMDL
