MODEL 1
REMARK VINA RESULT:      -8.9      0.000      0.000
REMARK  2 active torsions:
REMARK  status: ('A' for Active; 'I' for Inactive)
REMARK       I    between atoms: C6_13  and  N1_7 
REMARK    1  A    between atoms: C9_16  and  N1_7 
REMARK    2  A    between atoms: C2_9  and  C6_13 
ROOT
HETATM    1 Br1  UNK     1      21.252  -3.707  31.555  1.00  0.00    -0.051 Br
HETATM    2  O1  UNK     1      19.146   1.285  28.825  1.00  0.00    -0.274 OA
HETATM    3  O3  UNK     1      18.275   3.395  28.944  1.00  0.00    -0.259 OA
HETATM    4  C1  UNK     1      19.672   0.087  30.874  1.00  0.00     0.000 A 
HETATM    5  C2  UNK     1      18.748   2.324  31.004  1.00  0.00     0.108 A 
HETATM    6  C3  UNK     1      19.630   0.139  29.485  1.00  0.00     0.089 A 
HETATM    7  C4  UNK     1      19.207   1.236  31.635  1.00  0.00     0.037 A 
HETATM    8  C5  UNK     1      20.159  -1.068  31.491  1.00  0.00     0.033 A 
HETATM    9  C7  UNK     1      18.694   2.401  29.526  1.00  0.00     0.304 A 
HETATM   10  C8  UNK     1      20.061  -0.927  28.697  1.00  0.00     0.039 A 
HETATM   11  C10 UNK     1      20.595  -2.146  30.714  1.00  0.00     0.011 A 
HETATM   12  C11 UNK     1      20.545  -2.075  29.321  1.00  0.00     0.022 A 
ENDROOT
BRANCH   5  13
HETATM   13  C6  UNK     1      18.302   3.430  31.858  1.00  0.00     0.262 C 
HETATM   14  O2  UNK     1      17.562   3.204  32.814  1.00  0.00    -0.267 OA
HETATM   15  N1  UNK     1      18.810   4.653  31.438  1.00  0.00    -0.323 N 
HETATM   16  H4  UNK     1      19.431   4.667  30.633  1.00  0.00     0.169 HD
BRANCH  15  17
HETATM   17  C9  UNK     1      18.588   5.925  32.020  1.00  0.00     0.036 A 
HETATM   18  C12 UNK     1      17.410   6.599  31.743  1.00  0.00     0.054 A 
HETATM   19  C14 UNK     1      17.192   7.852  32.316  1.00  0.00     0.053 A 
HETATM   20 Cl1  UNK     1      15.707   8.655  31.940  1.00  0.00    -0.083 Cl
HETATM   21  C16 UNK     1      18.153   8.412  33.156  1.00  0.00     0.032 A 
HETATM   22 Br2  UNK     1      17.933  10.113  33.973  1.00  0.00    -0.049 Br
HETATM   23  C15 UNK     1      19.334   7.719  33.424  1.00  0.00     0.023 A 
HETATM   24  C13 UNK     1      19.552   6.466  32.851  1.00  0.00     0.031 A 
ENDBRANCH  15  17
ENDBRANCH   5  13
TORSDOF 2
ENDMDL
MODEL 2
REMARK VINA RESULT:      -8.8     14.549     16.014
REMARK  2 active torsions:
REMARK  status: ('A' for Active; 'I' for Inactive)
REMARK       I    between atoms: C6_13  and  N1_7 
REMARK    1  A    between atoms: C9_16  and  N1_7 
REMARK    2  A    between atoms: C2_9  and  C6_13 
ROOT
HETATM    1 Br1  UNK     1      33.556  -6.969  37.748  1.00  0.00    -0.051 Br
HETATM    2  O1  UNK     1      27.983  -4.741  38.634  1.00  0.00    -0.274 OA
HETATM    3  O3  UNK     1      25.746  -5.066  38.973  1.00  0.00    -0.259 OA
HETATM    4  C1  UNK     1      29.450  -6.662  38.382  1.00  0.00     0.000 A 
HETATM    5  C2  UNK     1      27.078  -7.011  38.741  1.00  0.00     0.108 A 
HETATM    6  C3  UNK     1      29.266  -5.285  38.430  1.00  0.00     0.089 A 
HETATM    7  C4  UNK     1      28.296  -7.533  38.547  1.00  0.00     0.037 A 
HETATM    8  C5  UNK     1      30.738  -7.164  38.178  1.00  0.00     0.033 A 
HETATM    9  C7  UNK     1      26.859  -5.548  38.795  1.00  0.00     0.304 A 
HETATM   10  C8  UNK     1      30.329  -4.396  38.281  1.00  0.00     0.039 A 
HETATM   11  C10 UNK     1      31.815  -6.285  38.026  1.00  0.00     0.011 A 
HETATM   12  C11 UNK     1      31.610  -4.904  38.076  1.00  0.00     0.022 A 
ENDROOT
BRANCH   5  13
HETATM   13  C6  UNK     1      25.979  -7.969  38.896  1.00  0.00     0.262 C 
HETATM   14  O2  UNK     1      26.194  -9.068  39.407  1.00  0.00    -0.267 OA
HETATM   15  N1  UNK     1      24.777  -7.470  38.412  1.00  0.00    -0.323 N 
HETATM   16  H4  UNK     1      24.763  -6.526  38.036  1.00  0.00     0.169 HD
BRANCH  15  17
HETATM   17  C9  UNK     1      23.517  -8.117  38.397  1.00  0.00     0.036 A 
HETATM   18  C12 UNK     1      23.114  -8.785  37.253  1.00  0.00     0.054 A 
HETATM   19  C14 UNK     1      21.873  -9.422  37.237  1.00  0.00     0.053 A 
HETATM   20 Cl1  UNK     1      21.414 -10.242  35.785  1.00  0.00    -0.083 Cl
HETATM   21  C16 UNK     1      21.054  -9.382  38.365  1.00  0.00     0.032 A 
HETATM   22 Br2  UNK     1      19.351 -10.222  38.424  1.00  0.00    -0.049 Br
HETATM   23  C15 UNK     1      21.477  -8.704  39.509  1.00  0.00     0.023 A 
HETATM   24  C13 UNK     1      22.717  -8.067  39.525  1.00  0.00     0.031 A 
ENDBRANCH  15  17
ENDBRANCH   5  13
TORSDOF 2
ENDMDL
MODEL 3
REMARK VINA RESULT:      -8.4      8.069     11.909
REMARK  2 active torsions:
REMARK  status: ('A' for Active; 'I' for Inactive)
REMARK       I    between atoms: C6_13  and  N1_7 
REMARK    1  A    between atoms: C9_16  and  N1_7 
REMARK    2  A    between atoms: C2_9  and  C6_13 
ROOT
HETATM    1 Br1  UNK     1      16.047   2.185  37.570  1.00  0.00    -0.051 Br
HETATM    2  O1  UNK     1      19.589  -1.281  34.070  1.00  0.00    -0.274 OA
HETATM    3  O3  UNK     1      20.812  -3.186  33.753  1.00  0.00    -0.259 OA
HETATM    4  C1  UNK     1      18.439  -0.931  36.182  1.00  0.00     0.000 A 
HETATM    5  C2  UNK     1      19.735  -2.952  35.850  1.00  0.00     0.108 A 
HETATM    6  C3  UNK     1      18.769  -0.496  34.903  1.00  0.00     0.089 A 
HETATM    7  C4  UNK     1      18.955  -2.210  36.646  1.00  0.00     0.037 A 
HETATM    8  C5  UNK     1      17.622  -0.124  36.979  1.00  0.00     0.033 A 
HETATM    9  C7  UNK     1      20.098  -2.509  34.485  1.00  0.00     0.304 A 
HETATM   10  C8  UNK     1      18.306   0.717  34.398  1.00  0.00     0.039 A 
HETATM   11  C10 UNK     1      17.151   1.096  36.487  1.00  0.00     0.011 A 
HETATM   12  C11 UNK     1      17.493   1.516  35.200  1.00  0.00     0.022 A 
ENDROOT
BRANCH   5  13
HETATM   13  C6  UNK     1      20.206  -4.224  36.407  1.00  0.00     0.262 C 
HETATM   14  O2  UNK     1      21.225  -4.250  37.096  1.00  0.00    -0.267 OA
HETATM   15  N1  UNK     1      19.384  -5.287  36.054  1.00  0.00    -0.323 N 
HETATM   16  H4  UNK     1      18.560  -5.093  35.490  1.00  0.00     0.169 HD
BRANCH  15  17
HETATM   17  C9  UNK     1      19.535  -6.650  36.409  1.00  0.00     0.036 A 
HETATM   18  C12 UNK     1      20.380  -7.454  35.663  1.00  0.00     0.054 A 
HETATM   19  C14 UNK     1      20.528  -8.796  36.012  1.00  0.00     0.053 A 
HETATM   20 Cl1  UNK     1      21.595  -9.759  35.051  1.00  0.00    -0.083 Cl
HETATM   21  C16 UNK     1      19.828  -9.314  37.102  1.00  0.00     0.032 A 
HETATM   22 Br2  UNK     1      19.973 -11.131  37.641  1.00  0.00    -0.049 Br
HETATM   23  C15 UNK     1      18.981  -8.490  37.842  1.00  0.00     0.023 A 
HETATM   24  C13 UNK     1      18.833  -7.147  37.493  1.00  0.00     0.031 A 
ENDBRANCH  15  17
ENDBRANCH   5  13
TORSDOF 2
ENDMDL
MODEL 4
REMARK VINA RESULT:      -8.4      7.466     11.378
REMARK  2 active torsions:
REMARK  status: ('A' for Active; 'I' for Inactive)
REMARK       I    between atoms: C6_13  and  N1_7 
REMARK    1  A    between atoms: C9_16  and  N1_7 
REMARK    2  A    between atoms: C2_9  and  C6_13 
ROOT
HETATM    1 Br1  UNK     1      20.336  -0.329  29.306  1.00  0.00    -0.051 Br
HETATM    2  O1  UNK     1      18.619  -0.785  35.107  1.00  0.00    -0.274 OA
HETATM    3  O3  UNK     1      18.585  -1.934  37.082  1.00  0.00    -0.259 OA
HETATM    4  C1  UNK     1      19.788  -1.723  33.193  1.00  0.00     0.000 A 
HETATM    5  C2  UNK     1      19.754  -2.944  35.287  1.00  0.00     0.108 A 
HETATM    6  C3  UNK     1      19.031  -0.705  33.763  1.00  0.00     0.089 A 
HETATM    7  C4  UNK     1      20.148  -2.873  34.009  1.00  0.00     0.037 A 
HETATM    8  C5  UNK     1      20.178  -1.607  31.856  1.00  0.00     0.033 A 
HETATM    9  C7  UNK     1      18.948  -1.872  35.913  1.00  0.00     0.304 A 
HETATM   10  C8  UNK     1      18.655   0.424  33.037  1.00  0.00     0.039 A 
HETATM   11  C10 UNK     1      19.807  -0.481  31.115  1.00  0.00     0.011 A 
HETATM   12  C11 UNK     1      19.047   0.532  31.704  1.00  0.00     0.022 A 
ENDROOT
BRANCH   5  13
HETATM   13  C6  UNK     1      20.165  -4.142  36.026  1.00  0.00     0.262 C 
HETATM   14  O2  UNK     1      21.070  -4.067  36.857  1.00  0.00    -0.267 OA
HETATM   15  N1  UNK     1      19.431  -5.262  35.660  1.00  0.00    -0.323 N 
HETATM   16  H4  UNK     1      18.696  -5.152  34.966  1.00  0.00     0.169 HD
BRANCH  15  17
HETATM   17  C9  UNK     1      19.558  -6.580  36.163  1.00  0.00     0.036 A 
HETATM   18  C12 UNK     1      20.397  -7.473  35.516  1.00  0.00     0.054 A 
HETATM   19  C14 UNK     1      20.522  -8.771  36.010  1.00  0.00     0.053 A 
HETATM   20 Cl1  UNK     1      21.581  -9.848  35.169  1.00  0.00    -0.083 Cl
HETATM   21  C16 UNK     1      19.806  -9.158  37.143  1.00  0.00     0.032 A 
HETATM   22 Br2  UNK     1      19.920 -10.906  37.878  1.00  0.00    -0.049 Br
HETATM   23  C15 UNK     1      18.966  -8.245  37.782  1.00  0.00     0.023 A 
HETATM   24  C13 UNK     1      18.841  -6.947  37.287  1.00  0.00     0.031 A 
ENDBRANCH  15  17
ENDBRANCH   5  13
TORSDOF 2
ENDMDL
MODEL 5
REMARK VINA RESULT:      -8.3     15.130     18.791
REMARK  2 active torsions:
REMARK  status: ('A' for Active; 'I' for Inactive)
REMARK       I    between atoms: C6_13  and  N1_7 
REMARK    1  A    between atoms: C9_16  and  N1_7 
REMARK    2  A    between atoms: C2_9  and  C6_13 
ROOT
HETATM    1 Br1  UNK     1      19.029   2.042  21.077  1.00  0.00    -0.051 Br
HETATM    2  O1  UNK     1      19.223   0.872  15.127  1.00  0.00    -0.274 OA
HETATM    3  O3  UNK     1      19.182  -0.619  13.396  1.00  0.00    -0.259 OA
HETATM    4  C1  UNK     1      19.042   0.062  17.412  1.00  0.00     0.000 A 
HETATM    5  C2  UNK     1      18.998  -1.522  15.578  1.00  0.00     0.108 A 
HETATM    6  C3  UNK     1      19.175   1.115  16.514  1.00  0.00     0.089 A 
HETATM    7  C4  UNK     1      18.952  -1.295  16.897  1.00  0.00     0.037 A 
HETATM    8  C5  UNK     1      18.998   0.344  18.780  1.00  0.00     0.033 A 
HETATM    9  C7  UNK     1      19.140  -0.416  14.604  1.00  0.00     0.304 A 
HETATM   10  C8  UNK     1      19.265   2.438  16.941  1.00  0.00     0.039 A 
HETATM   11  C10 UNK     1      19.088   1.666  19.225  1.00  0.00     0.011 A 
HETATM   12  C11 UNK     1      19.221   2.711  18.307  1.00  0.00     0.022 A 
ENDROOT
BRANCH   5  13
HETATM   13  C6  UNK     1      18.901  -2.923  15.156  1.00  0.00     0.262 C 
HETATM   14  O2  UNK     1      17.889  -3.572  15.422  1.00  0.00    -0.267 OA
HETATM   15  N1  UNK     1      20.036  -3.346  14.477  1.00  0.00    -0.323 N 
HETATM   16  H4  UNK     1      20.783  -2.675  14.320  1.00  0.00     0.169 HD
BRANCH  15  17
HETATM   17  C9  UNK     1      20.287  -4.629  13.932  1.00  0.00     0.036 A 
HETATM   18  C12 UNK     1      20.085  -4.840  12.578  1.00  0.00     0.054 A 
HETATM   19  C14 UNK     1      20.332  -6.103  12.041  1.00  0.00     0.053 A 
HETATM   20 Cl1  UNK     1      20.066  -6.317  10.346  1.00  0.00    -0.083 Cl
HETATM   21  C16 UNK     1      20.777  -7.137  12.865  1.00  0.00     0.032 A 
HETATM   22 Br2  UNK     1      21.134  -8.885  12.212  1.00  0.00    -0.049 Br
HETATM   23  C15 UNK     1      20.975  -6.906  14.227  1.00  0.00     0.023 A 
HETATM   24  C13 UNK     1      20.728  -5.643  14.764  1.00  0.00     0.031 A 
ENDBRANCH  15  17
ENDBRANCH   5  13
TORSDOF 2
ENDMDL
MODEL 6
REMARK VINA RESULT:      -8.2      8.416     10.259
REMARK  2 active torsions:
REMARK  status: ('A' for Active; 'I' for Inactive)
REMARK       I    between atoms: C6_13  and  N1_7 
REMARK    1  A    between atoms: C9_16  and  N1_7 
REMARK    2  A    between atoms: C2_9  and  C6_13 
ROOT
HETATM    1 Br1  UNK     1      23.631 -11.417  35.990  1.00  0.00    -0.051 Br
HETATM    2  O1  UNK     1      18.618  -8.161  37.027  1.00  0.00    -0.274 OA
HETATM    3  O3  UNK     1      17.582  -6.141  37.290  1.00  0.00    -0.259 OA
HETATM    4  C1  UNK     1      21.007  -8.237  36.586  1.00  0.00     0.000 A 
HETATM    5  C2  UNK     1      19.912  -6.093  36.864  1.00  0.00     0.108 A 
HETATM    6  C3  UNK     1      19.797  -8.893  36.784  1.00  0.00     0.089 A 
HETATM    7  C4  UNK     1      21.035  -6.783  36.633  1.00  0.00     0.037 A 
HETATM    8  C5  UNK     1      22.155  -8.997  36.347  1.00  0.00     0.033 A 
HETATM    9  C7  UNK     1      18.613  -6.769  37.078  1.00  0.00     0.304 A 
HETATM   10  C8  UNK     1      19.700 -10.282  36.751  1.00  0.00     0.039 A 
HETATM   11  C10 UNK     1      22.074 -10.393  36.311  1.00  0.00     0.011 A 
HETATM   12  C11 UNK     1      20.850 -11.033  36.513  1.00  0.00     0.022 A 
ENDROOT
BRANCH   5  13
HETATM   13  C6  UNK     1      20.043  -4.632  36.893  1.00  0.00     0.262 C 
HETATM   14  O2  UNK     1      21.139  -4.121  37.118  1.00  0.00    -0.267 OA
HETATM   15  N1  UNK     1      18.835  -3.993  36.648  1.00  0.00    -0.323 N 
HETATM   16  H4  UNK     1      18.016  -4.565  36.457  1.00  0.00     0.169 HD
BRANCH  15  17
HETATM   17  C9  UNK     1      18.589  -2.599  36.602  1.00  0.00     0.036 A 
HETATM   18  C12 UNK     1      18.642  -1.942  35.384  1.00  0.00     0.054 A 
HETATM   19  C14 UNK     1      18.401  -0.569  35.339  1.00  0.00     0.053 A 
HETATM   20 Cl1  UNK     1      18.478   0.205  33.794  1.00  0.00    -0.083 Cl
HETATM   21  C16 UNK     1      18.112   0.127  36.511  1.00  0.00     0.032 A 
HETATM   22 Br2  UNK     1      17.774   1.997  36.535  1.00  0.00    -0.049 Br
HETATM   23  C15 UNK     1      18.063  -0.550  37.730  1.00  0.00     0.023 A 
HETATM   24  C13 UNK     1      18.304  -1.923  37.776  1.00  0.00     0.031 A 
ENDBRANCH  15  17
ENDBRANCH   5  13
TORSDOF 2
ENDMDL
MODEL 7
REMARK VINA RESULT:      -8.1      3.211      3.998
REMARK  2 active torsions:
REMARK  status: ('A' for Active; 'I' for Inactive)
REMARK       I    between atoms: C6_13  and  N1_7 
REMARK    1  A    between atoms: C9_16  and  N1_7 
REMARK    2  A    between atoms: C2_9  and  C6_13 
ROOT
HETATM    1 Br1  UNK     1      17.988  -0.713  37.990  1.00  0.00    -0.051 Br
HETATM    2  O1  UNK     1      18.454   1.011  32.192  1.00  0.00    -0.274 OA
HETATM    3  O3  UNK     1      18.525   2.660  30.611  1.00  0.00    -0.259 OA
HETATM    4  C1  UNK     1      18.204   1.605  34.535  1.00  0.00     0.000 A 
HETATM    5  C2  UNK     1      18.277   3.356  32.862  1.00  0.00     0.108 A 
HETATM    6  C3  UNK     1      18.344   0.638  33.545  1.00  0.00     0.089 A 
HETATM    7  C4  UNK     1      18.172   3.007  34.150  1.00  0.00     0.037 A 
HETATM    8  C5  UNK     1      18.097   1.196  35.867  1.00  0.00     0.033 A 
HETATM    9  C7  UNK     1      18.428   2.345  31.792  1.00  0.00     0.304 A 
HETATM   10  C8  UNK     1      18.383  -0.721  33.847  1.00  0.00     0.039 A 
HETATM   11  C10 UNK     1      18.133  -0.165  36.186  1.00  0.00     0.011 A 
HETATM   12  C11 UNK     1      18.275  -1.121  35.178  1.00  0.00     0.022 A 
ENDROOT
BRANCH   5  13
HETATM   13  C6  UNK     1      18.235   4.794  32.573  1.00  0.00     0.262 C 
HETATM   14  O2  UNK     1      18.155   5.181  31.408  1.00  0.00    -0.267 OA
HETATM   15  N1  UNK     1      18.297   5.562  33.729  1.00  0.00    -0.323 N 
HETATM   16  H4  UNK     1      18.340   5.083  34.625  1.00  0.00     0.169 HD
BRANCH  15  17
HETATM   17  C9  UNK     1      18.282   6.975  33.828  1.00  0.00     0.036 A 
HETATM   18  C12 UNK     1      19.453   7.643  34.145  1.00  0.00     0.054 A 
HETATM   19  C14 UNK     1      19.439   9.034  34.244  1.00  0.00     0.053 A 
HETATM   20 Cl1  UNK     1      20.925   9.822  34.642  1.00  0.00    -0.083 Cl
HETATM   21  C16 UNK     1      18.254   9.736  34.025  1.00  0.00     0.032 A 
HETATM   22 Br2  UNK     1      18.151  11.630  34.141  1.00  0.00    -0.049 Br
HETATM   23  C15 UNK     1      17.084   9.047  33.706  1.00  0.00     0.023 A 
HETATM   24  C13 UNK     1      17.098   7.656  33.607  1.00  0.00     0.031 A 
ENDBRANCH  15  17
ENDBRANCH   5  13
TORSDOF 2
ENDMDL
MODEL 8
REMARK VINA RESULT:      -8.1      6.606      9.940
REMARK  2 active torsions:
REMARK  status: ('A' for Active; 'I' for Inactive)
REMARK       I    between atoms: C6_13  and  N1_7 
REMARK    1  A    between atoms: C9_16  and  N1_7 
REMARK    2  A    between atoms: C2_9  and  C6_13 
ROOT
HETATM    1 Br1  UNK     1      18.251   2.556  29.376  1.00  0.00    -0.051 Br
HETATM    2  O1  UNK     1      20.875  -2.798  30.499  1.00  0.00    -0.274 OA
HETATM    3  O3  UNK     1      21.534  -4.415  31.974  1.00  0.00    -0.259 OA
HETATM    4  C1  UNK     1      19.753  -0.806  31.325  1.00  0.00     0.000 A 
HETATM    5  C2  UNK     1      20.452  -2.518  32.892  1.00  0.00     0.108 A 
HETATM    6  C3  UNK     1      20.261  -1.552  30.267  1.00  0.00     0.089 A 
HETATM    7  C4  UNK     1      19.867  -1.333  32.676  1.00  0.00     0.037 A 
HETATM    8  C5  UNK     1      19.151   0.425  31.054  1.00  0.00     0.033 A 
HETATM    9  C7  UNK     1      20.999  -3.329  31.781  1.00  0.00     0.304 A 
HETATM   10  C8  UNK     1      20.184  -1.105  28.949  1.00  0.00     0.039 A 
HETATM   11  C10 UNK     1      19.066   0.888  29.737  1.00  0.00     0.011 A 
HETATM   12  C11 UNK     1      19.582   0.124  28.688  1.00  0.00     0.022 A 
ENDROOT
BRANCH   5  13
HETATM   13  C6  UNK     1      20.518  -2.964  34.288  1.00  0.00     0.262 C 
HETATM   14  O2  UNK     1      20.901  -2.185  35.160  1.00  0.00    -0.267 OA
HETATM   15  N1  UNK     1      20.117  -4.285  34.435  1.00  0.00    -0.323 N 
HETATM   16  H4  UNK     1      19.806  -4.790  33.609  1.00  0.00     0.169 HD
BRANCH  15  17
HETATM   17  C9  UNK     1      20.056  -5.040  35.632  1.00  0.00     0.036 A 
HETATM   18  C12 UNK     1      19.511  -6.313  35.601  1.00  0.00     0.054 A 
HETATM   19  C14 UNK     1      19.450  -7.057  36.780  1.00  0.00     0.053 A 
HETATM   20 Cl1  UNK     1      18.761  -8.640  36.691  1.00  0.00    -0.083 Cl
HETATM   21  C16 UNK     1      19.935  -6.517  37.971  1.00  0.00     0.032 A 
HETATM   22 Br2  UNK     1      19.888  -7.464  39.618  1.00  0.00    -0.049 Br
HETATM   23  C15 UNK     1      20.481  -5.233  37.983  1.00  0.00     0.023 A 
HETATM   24  C13 UNK     1      20.542  -4.490  36.805  1.00  0.00     0.031 A 
ENDBRANCH  15  17
ENDBRANCH   5  13
TORSDOF 2
ENDMDL
MODEL 9
REMARK VINA RESULT:      -8.0      7.612     11.431
REMARK  2 active torsions:
REMARK  status: ('A' for Active; 'I' for Inactive)
REMARK       I    between atoms: C6_13  and  N1_7 
REMARK    1  A    between atoms: C9_16  and  N1_7 
REMARK    2  A    between atoms: C2_9  and  C6_13 
ROOT
HETATM    1 Br1  UNK     1      18.603   1.836  31.006  1.00  0.00    -0.051 Br
HETATM    2  O1  UNK     1      18.274  -0.173  36.721  1.00  0.00    -0.274 OA
HETATM    3  O3  UNK     1      18.650  -1.805  38.275  1.00  0.00    -0.259 OA
HETATM    4  C1  UNK     1      18.917  -0.549  34.407  1.00  0.00     0.000 A 
HETATM    5  C2  UNK     1      19.317  -2.282  36.053  1.00  0.00     0.108 A 
HETATM    6  C3  UNK     1      18.362   0.268  35.387  1.00  0.00     0.089 A 
HETATM    7  C4  UNK     1      19.404  -1.867  34.783  1.00  0.00     0.037 A 
HETATM    8  C5  UNK     1      18.988  -0.075  33.094  1.00  0.00     0.033 A 
HETATM    9  C7  UNK     1      18.731  -1.429  37.112  1.00  0.00     0.304 A 
HETATM   10  C8  UNK     1      17.879   1.542  35.093  1.00  0.00     0.039 A 
HETATM   11  C10 UNK     1      18.506   1.200  32.784  1.00  0.00     0.011 A 
HETATM   12  C11 UNK     1      17.952   2.006  33.781  1.00  0.00     0.022 A 
ENDROOT
BRANCH   5  13
HETATM   13  C6  UNK     1      19.835  -3.625  36.333  1.00  0.00     0.262 C 
HETATM   14  O2  UNK     1      21.050  -3.815  36.379  1.00  0.00    -0.267 OA
HETATM   15  N1  UNK     1      18.817  -4.551  36.516  1.00  0.00    -0.323 N 
HETATM   16  H4  UNK     1      17.854  -4.227  36.467  1.00  0.00     0.169 HD
BRANCH  15  17
HETATM   17  C9  UNK     1      18.947  -5.933  36.800  1.00  0.00     0.036 A 
HETATM   18  C12 UNK     1      19.561  -6.327  37.977  1.00  0.00     0.054 A 
HETATM   19  C14 UNK     1      19.691  -7.688  38.255  1.00  0.00     0.053 A 
HETATM   20 Cl1  UNK     1      20.465  -8.130  39.738  1.00  0.00    -0.083 Cl
HETATM   21  C16 UNK     1      19.205  -8.634  37.354  1.00  0.00     0.032 A 
HETATM   22 Br2  UNK     1      19.343 -10.504  37.658  1.00  0.00    -0.049 Br
HETATM   23  C15 UNK     1      18.589  -8.219  36.172  1.00  0.00     0.023 A 
HETATM   24  C13 UNK     1      18.460  -6.858  35.894  1.00  0.00     0.031 A 
ENDBRANCH  15  17
ENDBRANCH   5  13
TORSDOF 2
ENDMDL
MODEL 10
REMARK VINA RESULT:      -8.0      3.195      8.909
REMARK  2 active torsions:
REMARK  status: ('A' for Active; 'I' for Inactive)
REMARK       I    between atoms: C6_13  and  N1_7 
REMARK    1  A    between atoms: C9_16  and  N1_7 
REMARK    2  A    between atoms: C2_9  and  C6_13 
ROOT
HETATM    1 Br1  UNK     1      13.374  10.789  32.797  1.00  0.00    -0.051 Br
HETATM    2  O1  UNK     1      18.080   7.342  34.465  1.00  0.00    -0.274 OA
HETATM    3  O3  UNK     1      19.625   5.727  33.987  1.00  0.00    -0.259 OA
HETATM    4  C1  UNK     1      16.464   7.995  32.770  1.00  0.00     0.000 A 
HETATM    5  C2  UNK     1      18.101   6.282  32.261  1.00  0.00     0.108 A 
HETATM    6  C3  UNK     1      16.988   8.129  34.052  1.00  0.00     0.089 A 
HETATM    7  C4  UNK     1      17.063   7.028  31.863  1.00  0.00     0.037 A 
HETATM    8  C5  UNK     1      15.380   8.795  32.397  1.00  0.00     0.033 A 
HETATM    9  C7  UNK     1      18.674   6.408  33.620  1.00  0.00     0.304 A 
HETATM   10  C8  UNK     1      16.462   9.038  34.968  1.00  0.00     0.039 A 
HETATM   11  C10 UNK     1      14.841   9.710  33.306  1.00  0.00     0.011 A 
HETATM   12  C11 UNK     1      15.381   9.831  34.589  1.00  0.00     0.022 A 
ENDROOT
BRANCH   5  13
HETATM   13  C6  UNK     1      18.635   5.336  31.275  1.00  0.00     0.262 C 
HETATM   14  O2  UNK     1      19.376   5.739  30.380  1.00  0.00    -0.267 OA
HETATM   15  N1  UNK     1      18.198   4.038  31.505  1.00  0.00    -0.323 N 
HETATM   16  H4  UNK     1      17.599   3.865  32.308  1.00  0.00     0.169 HD
BRANCH  15  17
HETATM   17  C9  UNK     1      18.510   2.877  30.756  1.00  0.00     0.036 A 
HETATM   18  C12 UNK     1      19.099   1.798  31.395  1.00  0.00     0.054 A 
HETATM   19  C14 UNK     1      19.407   0.655  30.658  1.00  0.00     0.053 A 
HETATM   20 Cl1  UNK     1      20.141  -0.665  31.500  1.00  0.00    -0.083 Cl
HETATM   21  C16 UNK     1      19.123   0.607  29.294  1.00  0.00     0.032 A 
HETATM   22 Br2  UNK     1      19.512  -0.911  28.219  1.00  0.00    -0.049 Br
HETATM   23  C15 UNK     1      18.530   1.703  28.666  1.00  0.00     0.023 A 
HETATM   24  C13 UNK     1      18.221   2.846  29.404  1.00  0.00     0.031 A 
ENDBRANCH  15  17
ENDBRANCH   5  13
TORSDOF 2
ENDMDL
