MODEL 1
REMARK VINA RESULT:      -8.1      0.000      0.000
REMARK  4 active torsions:
REMARK  status: ('A' for Active; 'I' for Inactive)
REMARK    1  A    between atoms: C1_8  and  N1_6 
REMARK    2  A    between atoms: C3_10  and  N1_6 
REMARK    3  A    between atoms: C5_12  and  N2_7 
REMARK    4  A    between atoms: C3_10  and  C7_14 
ROOT
HETATM    1  O1  UNK     1      19.583  -1.514  32.854  1.00  0.00    -0.273 OA
HETATM    2  O3  UNK     1      18.705  -1.459  34.957  1.00  0.00    -0.257 OA
HETATM    3  C1  UNK     1      18.391   1.049  32.372  1.00  0.00     0.081 A 
HETATM    4  C2  UNK     1      19.178   0.356  31.319  1.00  0.00     0.027 A 
HETATM    5  C4  UNK     1      19.744  -0.893  31.598  1.00  0.00     0.092 A 
HETATM    6  C5  UNK     1      18.279   0.395  33.539  1.00  0.00     0.205 A 
HETATM    7  C6  UNK     1      19.401   0.874  30.031  1.00  0.00     0.017 A 
HETATM    8  C8  UNK     1      18.852  -0.919  33.868  1.00  0.00     0.324 A 
HETATM    9  C9  UNK     1      20.498  -1.608  30.663  1.00  0.00     0.038 A 
HETATM   10  C10 UNK     1      20.154   0.170  29.083  1.00  0.00     0.001 A 
HETATM   11  C11 UNK     1      20.702  -1.070  29.398  1.00  0.00     0.003 A 
ENDROOT
BRANCH   3  12
HETATM   12  N1  UNK     1      17.854   2.276  32.074  1.00  0.00    -0.381 N 
HETATM   13  H1  UNK     1      17.027   2.317  31.493  1.00  0.00     0.160 HD
BRANCH  12  14
HETATM   14  C3  UNK     1      18.302   3.497  32.681  1.00  0.00     0.184 C 
BRANCH  14  15
HETATM   15  C7  UNK     1      18.525   4.555  31.637  1.00  0.00     0.070 A 
HETATM   16  C12 UNK     1      19.170   4.535  30.449  1.00  0.00     0.036 A 
HETATM   17  C13 UNK     1      19.029   5.845  29.931  1.00  0.00     0.027 A 
HETATM   18  C14 UNK     1      18.302   6.548  30.863  1.00  0.00     0.142 A 
HETATM   19  O2  UNK     1      17.988   5.754  31.921  1.00  0.00    -0.325 OA
ENDBRANCH  14  15
ENDBRANCH  12  14
ENDBRANCH   3  12
BRANCH   6  20
HETATM   20  N2  UNK     1      17.529   1.029  34.577  1.00  0.00    -0.107 N 
HETATM   21  O4  UNK     1      18.171   1.645  35.436  1.00  0.00    -0.531 OA
HETATM   22  O5  UNK     1      16.300   0.911  34.533  1.00  0.00    -0.531 OA
ENDBRANCH   6  20
TORSDOF 4
ENDMDL
MODEL 2
REMARK VINA RESULT:      -8.0      2.535      6.017
REMARK  4 active torsions:
REMARK  status: ('A' for Active; 'I' for Inactive)
REMARK    1  A    between atoms: C1_8  and  N1_6 
REMARK    2  A    between atoms: C3_10  and  N1_6 
REMARK    3  A    between atoms: C5_12  and  N2_7 
REMARK    4  A    between atoms: C3_10  and  C7_14 
ROOT
HETATM    1  O1  UNK     1      18.727   1.517  31.431  1.00  0.00    -0.273 OA
HETATM    2  O3  UNK     1      17.874   2.521  33.292  1.00  0.00    -0.257 OA
HETATM    3  C1  UNK     1      19.105  -0.865  32.983  1.00  0.00     0.081 A 
HETATM    4  C2  UNK     1      19.493  -0.810  31.549  1.00  0.00     0.027 A 
HETATM    5  C4  UNK     1      19.289   0.373  30.829  1.00  0.00     0.092 A 
HETATM    6  C5  UNK     1      18.579   0.265  33.486  1.00  0.00     0.205 A 
HETATM    7  C6  UNK     1      20.065  -1.884  30.846  1.00  0.00     0.017 A 
HETATM    8  C8  UNK     1      18.356   1.526  32.765  1.00  0.00     0.324 A 
HETATM    9  C9  UNK     1      19.626   0.504  29.479  1.00  0.00     0.038 A 
HETATM   10  C10 UNK     1      20.409  -1.768  29.492  1.00  0.00     0.001 A 
HETATM   11  C11 UNK     1      20.190  -0.575  28.810  1.00  0.00     0.003 A 
ENDROOT
BRANCH   3  12
HETATM   12  N1  UNK     1      19.308  -2.038  33.662  1.00  0.00    -0.381 N 
HETATM   13  H1  UNK     1      18.587  -2.747  33.635  1.00  0.00     0.160 HD
BRANCH  12  14
HETATM   14  C3  UNK     1      20.562  -2.386  34.270  1.00  0.00     0.184 C 
BRANCH  14  15
HETATM   15  C7  UNK     1      20.337  -3.188  35.521  1.00  0.00     0.070 A 
HETATM   16  C12 UNK     1      20.239  -2.832  36.821  1.00  0.00     0.036 A 
HETATM   17  C13 UNK     1      20.025  -4.043  37.521  1.00  0.00     0.027 A 
HETATM   18  C14 UNK     1      20.012  -5.036  36.569  1.00  0.00     0.142 A 
HETATM   19  O2  UNK     1      20.205  -4.513  35.330  1.00  0.00    -0.325 OA
ENDBRANCH  14  15
ENDBRANCH  12  14
ENDBRANCH   3  12
BRANCH   6  20
HETATM   20  N2  UNK     1      18.194   0.252  34.862  1.00  0.00    -0.107 N 
HETATM   21  O4  UNK     1      19.061   0.555  35.690  1.00  0.00    -0.531 OA
HETATM   22  O5  UNK     1      17.025  -0.059  35.114  1.00  0.00    -0.531 OA
ENDBRANCH   6  20
TORSDOF 4
ENDMDL
MODEL 3
REMARK VINA RESULT:      -7.8     23.089     24.678
REMARK  4 active torsions:
REMARK  status: ('A' for Active; 'I' for Inactive)
REMARK    1  A    between atoms: C1_8  and  N1_6 
REMARK    2  A    between atoms: C3_10  and  N1_6 
REMARK    3  A    between atoms: C5_12  and  N2_7 
REMARK    4  A    between atoms: C3_10  and  C7_14 
ROOT
HETATM    1  O1  UNK     1      16.230   6.209   9.934  1.00  0.00    -0.273 OA
HETATM    2  O3  UNK     1      15.275   4.140   9.854  1.00  0.00    -0.257 OA
HETATM    3  C1  UNK     1      13.629   7.342   9.515  1.00  0.00     0.081 A 
HETATM    4  C2  UNK     1      14.831   8.204   9.657  1.00  0.00     0.027 A 
HETATM    5  C4  UNK     1      16.081   7.608   9.862  1.00  0.00     0.092 A 
HETATM    6  C5  UNK     1      13.851   6.019   9.591  1.00  0.00     0.205 A 
HETATM    7  C6  UNK     1      14.805   9.608   9.597  1.00  0.00     0.017 A 
HETATM    8  C8  UNK     1      15.147   5.357   9.799  1.00  0.00     0.324 A 
HETATM    9  C9  UNK     1      17.258   8.350  10.006  1.00  0.00     0.038 A 
HETATM   10  C10 UNK     1      15.976  10.365   9.739  1.00  0.00     0.001 A 
HETATM   11  C11 UNK     1      17.201   9.737   9.943  1.00  0.00     0.003 A 
ENDROOT
BRANCH   3  12
HETATM   12  N1  UNK     1      12.416   7.951   9.322  1.00  0.00    -0.381 N 
HETATM   13  H1  UNK     1      11.863   8.200  10.132  1.00  0.00     0.160 HD
BRANCH  12  14
HETATM   14  C3  UNK     1      11.964   8.412   8.040  1.00  0.00     0.184 C 
BRANCH  14  15
HETATM   15  C7  UNK     1      10.988   7.437   7.443  1.00  0.00     0.070 A 
HETATM   16  C12 UNK     1      10.873   6.913   6.202  1.00  0.00     0.036 A 
HETATM   17  C13 UNK     1       9.751   6.053   6.266  1.00  0.00     0.027 A 
HETATM   18  C14 UNK     1       9.282   6.135   7.557  1.00  0.00     0.142 A 
HETATM   19  O2  UNK     1      10.043   6.990   8.289  1.00  0.00    -0.325 OA
ENDBRANCH  14  15
ENDBRANCH  12  14
ENDBRANCH   3  12
BRANCH   6  20
HETATM   20  N2  UNK     1      12.720   5.156   9.459  1.00  0.00    -0.107 N 
HETATM   21  O4  UNK     1      11.938   5.105  10.416  1.00  0.00    -0.531 OA
HETATM   22  O5  UNK     1      12.613   4.529   8.399  1.00  0.00    -0.531 OA
ENDBRANCH   6  20
TORSDOF 4
ENDMDL
MODEL 4
REMARK VINA RESULT:      -7.8      1.528      2.095
REMARK  4 active torsions:
REMARK  status: ('A' for Active; 'I' for Inactive)
REMARK    1  A    between atoms: C1_8  and  N1_6 
REMARK    2  A    between atoms: C3_10  and  N1_6 
REMARK    3  A    between atoms: C5_12  and  N2_7 
REMARK    4  A    between atoms: C3_10  and  C7_14 
ROOT
HETATM    1  O1  UNK     1      20.528  -2.228  32.077  1.00  0.00    -0.273 OA
HETATM    2  O3  UNK     1      20.362  -3.046  34.199  1.00  0.00    -0.257 OA
HETATM    3  C1  UNK     1      18.800  -0.075  32.853  1.00  0.00     0.081 A 
HETATM    4  C2  UNK     1      19.329  -0.177  31.467  1.00  0.00     0.027 A 
HETATM    5  C4  UNK     1      20.171  -1.244  31.133  1.00  0.00     0.092 A 
HETATM    6  C5  UNK     1      19.182  -1.051  33.694  1.00  0.00     0.205 A 
HETATM    7  C6  UNK     1      19.037   0.740  30.443  1.00  0.00     0.017 A 
HETATM    8  C8  UNK     1      20.059  -2.188  33.378  1.00  0.00     0.324 A 
HETATM    9  C9  UNK     1      20.709  -1.409  29.853  1.00  0.00     0.038 A 
HETATM   10  C10 UNK     1      19.568   0.587  29.156  1.00  0.00     0.001 A 
HETATM   11  C11 UNK     1      20.403  -0.486  28.861  1.00  0.00     0.003 A 
ENDROOT
BRANCH   3  12
HETATM   12  N1  UNK     1      17.984   0.984  33.156  1.00  0.00    -0.381 N 
HETATM   13  H1  UNK     1      17.038   0.987  32.797  1.00  0.00     0.160 HD
BRANCH  12  14
HETATM   14  C3  UNK     1      18.342   2.008  34.096  1.00  0.00     0.184 C 
BRANCH  14  15
HETATM   15  C7  UNK     1      18.260   3.365  33.456  1.00  0.00     0.070 A 
HETATM   16  C12 UNK     1      18.505   4.608  33.929  1.00  0.00     0.036 A 
HETATM   17  C13 UNK     1      18.247   5.475  32.840  1.00  0.00     0.027 A 
HETATM   18  C14 UNK     1      17.866   4.668  31.793  1.00  0.00     0.142 A 
HETATM   19  O2  UNK     1      17.871   3.362  32.169  1.00  0.00    -0.325 OA
ENDBRANCH  14  15
ENDBRANCH  12  14
ENDBRANCH   3  12
BRANCH   6  20
HETATM   20  N2  UNK     1      18.695  -0.988  35.036  1.00  0.00    -0.107 N 
HETATM   21  O4  UNK     1      17.511  -1.297  35.217  1.00  0.00    -0.531 OA
HETATM   22  O5  UNK     1      19.495  -0.632  35.907  1.00  0.00    -0.531 OA
ENDBRANCH   6  20
TORSDOF 4
ENDMDL
MODEL 5
REMARK VINA RESULT:      -7.6      2.243      5.063
REMARK  4 active torsions:
REMARK  status: ('A' for Active; 'I' for Inactive)
REMARK    1  A    between atoms: C1_8  and  N1_6 
REMARK    2  A    between atoms: C3_10  and  N1_6 
REMARK    3  A    between atoms: C5_12  and  N2_7 
REMARK    4  A    between atoms: C3_10  and  C7_14 
ROOT
HETATM    1  O1  UNK     1      19.294   0.439  28.766  1.00  0.00    -0.273 OA
HETATM    2  O3  UNK     1      18.353   2.471  28.337  1.00  0.00    -0.257 OA
HETATM    3  C1  UNK     1      19.053   1.004  31.566  1.00  0.00     0.081 A 
HETATM    4  C2  UNK     1      19.649  -0.271  31.087  1.00  0.00     0.027 A 
HETATM    5  C4  UNK     1      19.745  -0.505  29.710  1.00  0.00     0.092 A 
HETATM    6  C5  UNK     1      18.650   1.854  30.608  1.00  0.00     0.205 A 
HETATM    7  C6  UNK     1      20.136  -1.281  31.933  1.00  0.00     0.017 A 
HETATM    8  C8  UNK     1      18.740   1.646  29.155  1.00  0.00     0.324 A 
HETATM    9  C9  UNK     1      20.292  -1.678  29.179  1.00  0.00     0.038 A 
HETATM   10  C10 UNK     1      20.687  -2.461  31.417  1.00  0.00     0.001 A 
HETATM   11  C11 UNK     1      20.765  -2.660  30.041  1.00  0.00     0.003 A 
ENDROOT
BRANCH   3  12
HETATM   12  N1  UNK     1      18.964   1.205  32.920  1.00  0.00    -0.381 N 
HETATM   13  H1  UNK     1      19.762   1.590  33.408  1.00  0.00     0.160 HD
BRANCH  12  14
HETATM   14  C3  UNK     1      17.740   1.060  33.656  1.00  0.00     0.184 C 
BRANCH  14  15
HETATM   15  C7  UNK     1      17.888   0.013  34.725  1.00  0.00     0.070 A 
HETATM   16  C12 UNK     1      16.986  -0.765  35.363  1.00  0.00     0.036 A 
HETATM   17  C13 UNK     1      17.746  -1.550  36.263  1.00  0.00     0.027 A 
HETATM   18  C14 UNK     1      19.057  -1.172  36.085  1.00  0.00     0.142 A 
HETATM   19  O2  UNK     1      19.150  -0.205  35.135  1.00  0.00    -0.325 OA
ENDBRANCH  14  15
ENDBRANCH  12  14
ENDBRANCH   3  12
BRANCH   6  20
HETATM   20  N2  UNK     1      18.072   3.091  31.029  1.00  0.00    -0.107 N 
HETATM   21  O4  UNK     1      18.846   4.037  31.217  1.00  0.00    -0.531 OA
HETATM   22  O5  UNK     1      16.844   3.117  31.171  1.00  0.00    -0.531 OA
ENDBRANCH   6  20
TORSDOF 4
ENDMDL
MODEL 6
REMARK VINA RESULT:      -7.6      2.598      4.614
REMARK  4 active torsions:
REMARK  status: ('A' for Active; 'I' for Inactive)
REMARK    1  A    between atoms: C1_8  and  N1_6 
REMARK    2  A    between atoms: C3_10  and  N1_6 
REMARK    3  A    between atoms: C5_12  and  N2_7 
REMARK    4  A    between atoms: C3_10  and  C7_14 
ROOT
HETATM    1  O1  UNK     1      19.948  -2.537  35.079  1.00  0.00    -0.273 OA
HETATM    2  O3  UNK     1      21.177  -3.160  33.263  1.00  0.00    -0.257 OA
HETATM    3  C1  UNK     1      18.714  -0.520  33.457  1.00  0.00     0.081 A 
HETATM    4  C2  UNK     1      18.353  -0.683  34.889  1.00  0.00     0.027 A 
HETATM    5  C4  UNK     1      18.979  -1.682  35.643  1.00  0.00     0.092 A 
HETATM    6  C5  UNK     1      19.647  -1.368  32.993  1.00  0.00     0.205 A 
HETATM    7  C6  UNK     1      17.407   0.112  35.559  1.00  0.00     0.017 A 
HETATM    8  C8  UNK     1      20.330  -2.424  33.754  1.00  0.00     0.324 A 
HETATM    9  C9  UNK     1      18.694  -1.900  36.995  1.00  0.00     0.038 A 
HETATM   10  C10 UNK     1      17.111  -0.094  36.913  1.00  0.00     0.001 A 
HETATM   11  C11 UNK     1      17.754  -1.098  37.630  1.00  0.00     0.003 A 
ENDROOT
BRANCH   3  12
HETATM   12  N1  UNK     1      18.080   0.462  32.739  1.00  0.00    -0.381 N 
HETATM   13  H1  UNK     1      17.149   0.282  32.386  1.00  0.00     0.160 HD
BRANCH  12  14
HETATM   14  C3  UNK     1      18.596   1.795  32.607  1.00  0.00     0.184 C 
BRANCH  14  15
HETATM   15  C7  UNK     1      18.523   2.249  31.175  1.00  0.00     0.070 A 
HETATM   16  C12 UNK     1      18.743   3.448  30.592  1.00  0.00     0.036 A 
HETATM   17  C13 UNK     1      18.514   3.235  29.212  1.00  0.00     0.027 A 
HETATM   18  C14 UNK     1      18.171   1.909  29.082  1.00  0.00     0.142 A 
HETATM   19  O2  UNK     1      18.175   1.295  30.295  1.00  0.00    -0.325 OA
ENDBRANCH  14  15
ENDBRANCH  12  14
ENDBRANCH   3  12
BRANCH   6  20
HETATM   20  N2  UNK     1      20.021  -1.243  31.619  1.00  0.00    -0.107 N 
HETATM   21  O4  UNK     1      19.417  -1.951  30.806  1.00  0.00    -0.531 OA
HETATM   22  O5  UNK     1      20.919  -0.436  31.354  1.00  0.00    -0.531 OA
ENDBRANCH   6  20
TORSDOF 4
ENDMDL
MODEL 7
REMARK VINA RESULT:      -7.4      4.374      8.053
REMARK  4 active torsions:
REMARK  status: ('A' for Active; 'I' for Inactive)
REMARK    1  A    between atoms: C1_8  and  N1_6 
REMARK    2  A    between atoms: C3_10  and  N1_6 
REMARK    3  A    between atoms: C5_12  and  N2_7 
REMARK    4  A    between atoms: C3_10  and  C7_14 
ROOT
HETATM    1  O1  UNK     1      17.900  -0.595  33.277  1.00  0.00    -0.273 OA
HETATM    2  O3  UNK     1      19.220  -1.504  31.656  1.00  0.00    -0.257 OA
HETATM    3  C1  UNK     1      19.644  -1.750  35.238  1.00  0.00     0.081 A 
HETATM    4  C2  UNK     1      18.454  -0.954  35.639  1.00  0.00     0.027 A 
HETATM    5  C4  UNK     1      17.631  -0.407  34.648  1.00  0.00     0.092 A 
HETATM    6  C5  UNK     1      19.832  -1.887  33.915  1.00  0.00     0.205 A 
HETATM    7  C6  UNK     1      18.084  -0.706  36.972  1.00  0.00     0.017 A 
HETATM    8  C8  UNK     1      18.988  -1.334  32.846  1.00  0.00     0.324 A 
HETATM    9  C9  UNK     1      16.495   0.353  34.943  1.00  0.00     0.038 A 
HETATM   10  C10 UNK     1      16.948   0.053  37.284  1.00  0.00     0.001 A 
HETATM   11  C11 UNK     1      16.155   0.582  36.270  1.00  0.00     0.003 A 
ENDROOT
BRANCH   3  12
HETATM   12  N1  UNK     1      20.437  -2.268  36.229  1.00  0.00    -0.381 N 
HETATM   13  H1  UNK     1      21.407  -1.982  36.275  1.00  0.00     0.160 HD
BRANCH  12  14
HETATM   14  C3  UNK     1      19.926  -3.063  37.310  1.00  0.00     0.184 C 
BRANCH  14  15
HETATM   15  C7  UNK     1      20.375  -4.491  37.173  1.00  0.00     0.070 A 
HETATM   16  C12 UNK     1      21.228  -5.247  37.899  1.00  0.00     0.036 A 
HETATM   17  C13 UNK     1      21.230  -6.513  37.266  1.00  0.00     0.027 A 
HETATM   18  C14 UNK     1      20.367  -6.408  36.200  1.00  0.00     0.142 A 
HETATM   19  O2  UNK     1      19.835  -5.158  36.138  1.00  0.00    -0.325 OA
ENDBRANCH  14  15
ENDBRANCH  12  14
ENDBRANCH   3  12
BRANCH   6  20
HETATM   20  N2  UNK     1      20.966  -2.646  33.490  1.00  0.00    -0.107 N 
HETATM   21  O4  UNK     1      20.784  -3.849  33.267  1.00  0.00    -0.531 OA
HETATM   22  O5  UNK     1      22.037  -2.039  33.377  1.00  0.00    -0.531 OA
ENDBRANCH   6  20
TORSDOF 4
ENDMDL
MODEL 8
REMARK VINA RESULT:      -7.4      2.262      4.075
REMARK  4 active torsions:
REMARK  status: ('A' for Active; 'I' for Inactive)
REMARK    1  A    between atoms: C1_8  and  N1_6 
REMARK    2  A    between atoms: C3_10  and  N1_6 
REMARK    3  A    between atoms: C5_12  and  N2_7 
REMARK    4  A    between atoms: C3_10  and  C7_14 
ROOT
HETATM    1  O1  UNK     1      19.387  -1.906  32.102  1.00  0.00    -0.273 OA
HETATM    2  O3  UNK     1      20.217  -2.764  30.159  1.00  0.00    -0.257 OA
HETATM    3  C1  UNK     1      19.392   0.683  30.871  1.00  0.00     0.081 A 
HETATM    4  C2  UNK     1      18.937   0.499  32.274  1.00  0.00     0.027 A 
HETATM    5  C4  UNK     1      18.951  -0.784  32.834  1.00  0.00     0.092 A 
HETATM    6  C5  UNK     1      19.796  -0.431  30.239  1.00  0.00     0.205 A 
HETATM    7  C6  UNK     1      18.486   1.542  33.101  1.00  0.00     0.017 A 
HETATM    8  C8  UNK     1      19.830  -1.792  30.795  1.00  0.00     0.324 A 
HETATM    9  C9  UNK     1      18.539  -1.041  34.146  1.00  0.00     0.038 A 
HETATM   10  C10 UNK     1      18.071   1.301  34.417  1.00  0.00     0.001 A 
HETATM   11  C11 UNK     1      18.097   0.011  34.939  1.00  0.00     0.003 A 
ENDROOT
BRANCH   3  12
HETATM   12  N1  UNK     1      19.361   1.949  30.344  1.00  0.00    -0.381 N 
HETATM   13  H1  UNK     1      20.175   2.289  29.849  1.00  0.00     0.160 HD
BRANCH  12  14
HETATM   14  C3  UNK     1      18.175   2.757  30.309  1.00  0.00     0.184 C 
BRANCH  14  15
HETATM   15  C7  UNK     1      18.501   4.189  30.628  1.00  0.00     0.070 A 
HETATM   16  C12 UNK     1      18.377   4.916  31.761  1.00  0.00     0.036 A 
HETATM   17  C13 UNK     1      18.858   6.205  31.426  1.00  0.00     0.027 A 
HETATM   18  C14 UNK     1      19.235   6.140  30.105  1.00  0.00     0.142 A 
HETATM   19  O2  UNK     1      19.016   4.895  29.606  1.00  0.00    -0.325 OA
ENDBRANCH  14  15
ENDBRANCH  12  14
ENDBRANCH   3  12
BRANCH   6  20
HETATM   20  N2  UNK     1      20.241  -0.295  28.888  1.00  0.00    -0.107 N 
HETATM   21  O4  UNK     1      19.372  -0.105  28.029  1.00  0.00    -0.531 OA
HETATM   22  O5  UNK     1      21.457  -0.376  28.687  1.00  0.00    -0.531 OA
ENDBRANCH   6  20
TORSDOF 4
ENDMDL
MODEL 9
REMARK VINA RESULT:      -7.4      2.737      4.027
REMARK  4 active torsions:
REMARK  status: ('A' for Active; 'I' for Inactive)
REMARK    1  A    between atoms: C1_8  and  N1_6 
REMARK    2  A    between atoms: C3_10  and  N1_6 
REMARK    3  A    between atoms: C5_12  and  N2_7 
REMARK    4  A    between atoms: C3_10  and  C7_14 
ROOT
HETATM    1  O1  UNK     1      20.755  -2.328  32.020  1.00  0.00    -0.273 OA
HETATM    2  O3  UNK     1      20.685  -3.344  34.060  1.00  0.00    -0.257 OA
HETATM    3  C1  UNK     1      18.846  -0.421  32.989  1.00  0.00     0.081 A 
HETATM    4  C2  UNK     1      19.368  -0.349  31.599  1.00  0.00     0.027 A 
HETATM    5  C4  UNK     1      20.300  -1.300  31.169  1.00  0.00     0.092 A 
HETATM    6  C5  UNK     1      19.324  -1.428  33.738  1.00  0.00     0.205 A 
HETATM    7  C6  UNK     1      18.984   0.625  30.662  1.00  0.00     0.017 A 
HETATM    8  C8  UNK     1      20.297  -2.448  33.321  1.00  0.00     0.324 A 
HETATM    9  C9  UNK     1      20.839  -1.301  29.879  1.00  0.00     0.038 A 
HETATM   10  C10 UNK     1      19.515   0.637  29.365  1.00  0.00     0.001 A 
HETATM   11  C11 UNK     1      20.441  -0.325  28.974  1.00  0.00     0.003 A 
ENDROOT
BRANCH   3  12
HETATM   12  N1  UNK     1      17.940   0.528  33.388  1.00  0.00    -0.381 N 
HETATM   13  H1  UNK     1      16.953   0.341  33.262  1.00  0.00     0.160 HD
BRANCH  12  14
HETATM   14  C3  UNK     1      18.306   1.701  34.131  1.00  0.00     0.184 C 
BRANCH  14  15
HETATM   15  C7  UNK     1      17.862   1.578  35.562  1.00  0.00     0.070 A 
HETATM   16  C12 UNK     1      18.475   1.875  36.730  1.00  0.00     0.036 A 
HETATM   17  C13 UNK     1      17.539   1.535  37.735  1.00  0.00     0.027 A 
HETATM   18  C14 UNK     1      16.429   1.058  37.077  1.00  0.00     0.142 A 
HETATM   19  O2  UNK     1      16.625   1.082  35.732  1.00  0.00    -0.325 OA
ENDBRANCH  14  15
ENDBRANCH  12  14
ENDBRANCH   3  12
BRANCH   6  20
HETATM   20  N2  UNK     1      18.845  -1.531  35.081  1.00  0.00    -0.107 N 
HETATM   21  O4  UNK     1      17.650  -1.809  35.231  1.00  0.00    -0.531 OA
HETATM   22  O5  UNK     1      19.665  -1.335  35.985  1.00  0.00    -0.531 OA
ENDBRANCH   6  20
TORSDOF 4
ENDMDL
MODEL 10
REMARK VINA RESULT:      -7.4      2.107      5.625
REMARK  4 active torsions:
REMARK  status: ('A' for Active; 'I' for Inactive)
REMARK    1  A    between atoms: C1_8  and  N1_6 
REMARK    2  A    between atoms: C3_10  and  N1_6 
REMARK    3  A    between atoms: C5_12  and  N2_7 
REMARK    4  A    between atoms: C3_10  and  C7_14 
ROOT
HETATM    1  O1  UNK     1      19.378   2.084  29.996  1.00  0.00    -0.273 OA
HETATM    2  O3  UNK     1      19.765  -0.157  29.831  1.00  0.00    -0.257 OA
HETATM    3  C1  UNK     1      18.382   1.639  32.648  1.00  0.00     0.081 A 
HETATM    4  C2  UNK     1      18.413   3.002  32.056  1.00  0.00     0.027 A 
HETATM    5  C4  UNK     1      18.909   3.173  30.759  1.00  0.00     0.092 A 
HETATM    6  C5  UNK     1      18.842   0.653  31.861  1.00  0.00     0.205 A 
HETATM    7  C6  UNK     1      17.968   4.159  32.718  1.00  0.00     0.017 A 
HETATM    8  C8  UNK     1      19.365   0.792  30.493  1.00  0.00     0.324 A 
HETATM    9  C9  UNK     1      18.973   4.421  30.132  1.00  0.00     0.038 A 
HETATM   10  C10 UNK     1      18.024   5.417  32.103  1.00  0.00     0.001 A 
HETATM   11  C11 UNK     1      18.526   5.548  30.811  1.00  0.00     0.003 A 
ENDROOT
BRANCH   3  12
HETATM   12  N1  UNK     1      17.898   1.500  33.923  1.00  0.00    -0.381 N 
HETATM   13  H1  UNK     1      16.925   1.255  34.051  1.00  0.00     0.160 HD
BRANCH  12  14
HETATM   14  C3  UNK     1      18.738   1.516  35.088  1.00  0.00     0.184 C 
BRANCH  14  15
HETATM   15  C7  UNK     1      18.532   0.270  35.904  1.00  0.00     0.070 A 
HETATM   16  C12 UNK     1      17.592  -0.074  36.813  1.00  0.00     0.036 A 
HETATM   17  C13 UNK     1      17.943  -1.381  37.229  1.00  0.00     0.027 A 
HETATM   18  C14 UNK     1      19.076  -1.714  36.525  1.00  0.00     0.142 A 
HETATM   19  O2  UNK     1      19.446  -0.696  35.704  1.00  0.00    -0.325 OA
ENDBRANCH  14  15
ENDBRANCH  12  14
ENDBRANCH   3  12
BRANCH   6  20
HETATM   20  N2  UNK     1      18.829  -0.673  32.394  1.00  0.00    -0.107 N 
HETATM   21  O4  UNK     1      19.926  -1.213  32.582  1.00  0.00    -0.531 OA
HETATM   22  O5  UNK     1      17.723  -1.173  32.626  1.00  0.00    -0.531 OA
ENDBRANCH   6  20
TORSDOF 4
ENDMDL
