MODEL 1
REMARK VINA RESULT:      -9.0      0.000      0.000
REMARK  3 active torsions:
REMARK  status: ('A' for Active; 'I' for Inactive)
REMARK    1  A    between atoms: C11_16  and  O3_3 
REMARK    2  A    between atoms: C19_24  and  O3_3 
REMARK    3  A    between atoms: C1_6  and  C3_8 
ROOT
HETATM    1  O1  UNK     1      18.343   1.602  31.352  1.00  0.00    -0.275 OA
HETATM    2  O5  UNK     1      18.320   2.456  29.233  1.00  0.00    -0.260 OA
HETATM    3  C1  UNK     1      18.276   4.280  32.320  1.00  0.00    -0.001 A 
HETATM    4  C2  UNK     1      18.293   3.136  33.253  1.00  0.00     0.009 A 
HETATM    5  C4  UNK     1      18.328   1.839  32.740  1.00  0.00     0.093 A 
HETATM    6  C7  UNK     1      18.269   3.274  34.649  1.00  0.00     0.018 A 
HETATM    7  C8  UNK     1      18.286   4.009  31.005  1.00  0.00     0.096 A 
HETATM    8  C9  UNK     1      18.346   0.708  33.560  1.00  0.00     0.075 A 
HETATM    9  C11 UNK     1      18.326   0.870  34.940  1.00  0.00     0.071 A 
HETATM   10  C13 UNK     1      18.287   2.151  35.484  1.00  0.00     0.038 A 
HETATM   11  C14 UNK     1      18.316   2.646  30.445  1.00  0.00     0.289 A 
ENDROOT
BRANCH   3  12
HETATM   12  C3  UNK     1      18.257   5.672  32.724  1.00  0.00     0.052 A 
HETATM   13  C12 UNK     1      16.978   6.432  32.641  1.00  0.00     0.299 A 
HETATM   14  O2  UNK     1      17.008   7.766  33.040  1.00  0.00    -0.274 OA
HETATM   15  O4  UNK     1      15.936   5.920  32.242  1.00  0.00    -0.259 OA
HETATM   16  C10 UNK     1      18.185   8.383  33.502  1.00  0.00     0.089 A 
HETATM   17  C6  UNK     1      19.372   7.665  33.576  1.00  0.00    -0.001 A 
HETATM   18  C16 UNK     1      18.112   9.722  33.879  1.00  0.00     0.038 A 
HETATM   19  C15 UNK     1      20.521   8.307  34.040  1.00  0.00     0.014 A 
HETATM   20  C5  UNK     1      19.372   6.269  33.167  1.00  0.00     0.032 A 
HETATM   21  C17 UNK     1      20.466   9.651  34.421  1.00  0.00     0.001 A 
HETATM   22  C18 UNK     1      19.264  10.357  34.340  1.00  0.00     0.003 A 
ENDBRANCH   3  12
BRANCH   9  23
HETATM   23  O3  UNK     1      18.341  -0.219  35.756  1.00  0.00    -0.351 OA
BRANCH  23  24
HETATM   24  C19 UNK     1      17.923  -0.024  37.106  1.00  0.00     0.171 C 
HETATM   25  C20 UNK     1      18.030  -1.340  37.850  1.00  0.00     0.034 C 
ENDBRANCH  23  24
ENDBRANCH   9  23
TORSDOF 3
ENDMDL
MODEL 2
REMARK VINA RESULT:      -8.8      1.235      1.976
REMARK  3 active torsions:
REMARK  status: ('A' for Active; 'I' for Inactive)
REMARK    1  A    between atoms: C11_16  and  O3_3 
REMARK    2  A    between atoms: C19_24  and  O3_3 
REMARK    3  A    between atoms: C1_6  and  C3_8 
ROOT
HETATM    1  O1  UNK     1      18.469   1.590  31.316  1.00  0.00    -0.275 OA
HETATM    2  O5  UNK     1      18.474   2.451  29.200  1.00  0.00    -0.260 OA
HETATM    3  C1  UNK     1      18.292   4.261  32.289  1.00  0.00    -0.001 A 
HETATM    4  C2  UNK     1      18.322   3.115  33.220  1.00  0.00     0.009 A 
HETATM    5  C4  UNK     1      18.411   1.821  32.703  1.00  0.00     0.093 A 
HETATM    6  C7  UNK     1      18.258   3.246  34.615  1.00  0.00     0.018 A 
HETATM    7  C8  UNK     1      18.345   3.995  30.974  1.00  0.00     0.096 A 
HETATM    8  C9  UNK     1      18.444   0.689  33.521  1.00  0.00     0.075 A 
HETATM    9  C11 UNK     1      18.384   0.844  34.900  1.00  0.00     0.071 A 
HETATM   10  C13 UNK     1      18.290   2.121  35.447  1.00  0.00     0.038 A 
HETATM   11  C14 UNK     1      18.433   2.636  30.412  1.00  0.00     0.289 A 
ENDROOT
BRANCH   3  12
HETATM   12  C3  UNK     1      18.218   5.650  32.697  1.00  0.00     0.052 A 
HETATM   13  C12 UNK     1      19.480   6.423  32.865  1.00  0.00     0.299 A 
HETATM   14  O2  UNK     1      19.359   7.754  33.257  1.00  0.00    -0.274 OA
HETATM   15  O4  UNK     1      20.584   5.925  32.669  1.00  0.00    -0.259 OA
HETATM   16  C10 UNK     1      18.109   8.356  33.489  1.00  0.00     0.089 A 
HETATM   17  C6  UNK     1      16.938   7.625  33.330  1.00  0.00    -0.001 A 
HETATM   18  C16 UNK     1      18.093   9.693  33.879  1.00  0.00     0.038 A 
HETATM   19  C15 UNK     1      15.713   8.253  33.568  1.00  0.00     0.014 A 
HETATM   20  C5  UNK     1      17.032   6.233  32.920  1.00  0.00     0.032 A 
HETATM   21  C17 UNK     1      15.680   9.594  33.960  1.00  0.00     0.001 A 
HETATM   22  C18 UNK     1      16.867  10.313  34.116  1.00  0.00     0.003 A 
ENDBRANCH   3  12
BRANCH   9  23
HETATM   23  O3  UNK     1      18.414  -0.247  35.713  1.00  0.00    -0.351 OA
BRANCH  23  24
HETATM   24  C19 UNK     1      17.818  -0.112  37.002  1.00  0.00     0.171 C 
HETATM   25  C20 UNK     1      18.171  -1.325  37.838  1.00  0.00     0.034 C 
ENDBRANCH  23  24
ENDBRANCH   9  23
TORSDOF 3
ENDMDL
MODEL 3
REMARK VINA RESULT:      -8.7     23.715     26.640
REMARK  3 active torsions:
REMARK  status: ('A' for Active; 'I' for Inactive)
REMARK    1  A    between atoms: C11_16  and  O3_3 
REMARK    2  A    between atoms: C19_24  and  O3_3 
REMARK    3  A    between atoms: C1_6  and  C3_8 
ROOT
HETATM    1  O1  UNK     1      17.791   8.970   9.839  1.00  0.00    -0.275 OA
HETATM    2  O5  UNK     1      17.975   6.916  10.822  1.00  0.00    -0.260 OA
HETATM    3  C1  UNK     1      15.081   8.327   9.244  1.00  0.00    -0.001 A 
HETATM    4  C2  UNK     1      15.653   9.632   8.857  1.00  0.00     0.009 A 
HETATM    5  C4  UNK     1      16.987   9.909   9.165  1.00  0.00     0.093 A 
HETATM    6  C7  UNK     1      14.926  10.632   8.195  1.00  0.00     0.018 A 
HETATM    7  C8  UNK     1      15.882   7.463   9.888  1.00  0.00     0.096 A 
HETATM    8  C9  UNK     1      17.597  11.120   8.832  1.00  0.00     0.075 A 
HETATM    9  C11 UNK     1      16.858  12.094   8.172  1.00  0.00     0.071 A 
HETATM   10  C13 UNK     1      15.524  11.851   7.854  1.00  0.00     0.038 A 
HETATM   11  C14 UNK     1      17.289   7.741  10.227  1.00  0.00     0.289 A 
ENDROOT
BRANCH   3  12
HETATM   12  C3  UNK     1      13.720   7.911   8.969  1.00  0.00     0.052 A 
HETATM   13  C12 UNK     1      12.699   8.018  10.048  1.00  0.00     0.299 A 
HETATM   14  O2  UNK     1      11.405   7.607   9.737  1.00  0.00    -0.274 OA
HETATM   15  O4  UNK     1      12.969   8.447  11.166  1.00  0.00    -0.259 OA
HETATM   16  C10 UNK     1      11.062   7.111   8.467  1.00  0.00     0.089 A 
HETATM   17  C6  UNK     1      12.022   7.016   7.467  1.00  0.00    -0.001 A 
HETATM   18  C16 UNK     1       9.740   6.725   8.254  1.00  0.00     0.038 A 
HETATM   19  C15 UNK     1      11.647   6.519   6.217  1.00  0.00     0.014 A 
HETATM   20  C5  UNK     1      13.382   7.438   7.761  1.00  0.00     0.032 A 
HETATM   21  C17 UNK     1      10.325   6.128   5.987  1.00  0.00     0.001 A 
HETATM   22  C18 UNK     1       9.374   6.230   7.004  1.00  0.00     0.003 A 
ENDBRANCH   3  12
BRANCH   9  23
HETATM   23  O3  UNK     1      17.433  13.281   7.839  1.00  0.00    -0.351 OA
BRANCH  23  24
HETATM   24  C19 UNK     1      17.519  13.595   6.450  1.00  0.00     0.171 C 
HETATM   25  C20 UNK     1      18.718  12.885   5.857  1.00  0.00     0.034 C 
ENDBRANCH  23  24
ENDBRANCH   9  23
TORSDOF 3
ENDMDL
MODEL 4
REMARK VINA RESULT:      -8.4     24.141     26.408
REMARK  3 active torsions:
REMARK  status: ('A' for Active; 'I' for Inactive)
REMARK    1  A    between atoms: C11_16  and  O3_3 
REMARK    2  A    between atoms: C19_24  and  O3_3 
REMARK    3  A    between atoms: C1_6  and  C3_8 
ROOT
HETATM    1  O1  UNK     1      11.057   6.314   5.964  1.00  0.00    -0.275 OA
HETATM    2  O5  UNK     1       9.189   6.742   4.719  1.00  0.00    -0.260 OA
HETATM    3  C1  UNK     1       9.340   5.872   8.193  1.00  0.00    -0.001 A 
HETATM    4  C2  UNK     1      10.804   5.734   8.324  1.00  0.00     0.009 A 
HETATM    5  C4  UNK     1      11.612   5.961   7.208  1.00  0.00     0.093 A 
HETATM    6  C7  UNK     1      11.446   5.375   9.519  1.00  0.00     0.018 A 
HETATM    7  C8  UNK     1       8.853   6.206   6.988  1.00  0.00     0.096 A 
HETATM    8  C9  UNK     1      13.004   5.850   7.255  1.00  0.00     0.075 A 
HETATM    9  C11 UNK     1      13.617   5.498   8.451  1.00  0.00     0.071 A 
HETATM   10  C13 UNK     1      12.840   5.260   9.581  1.00  0.00     0.038 A 
HETATM   11  C14 UNK     1       9.690   6.443   5.798  1.00  0.00     0.289 A 
ENDROOT
BRANCH   3  12
HETATM   12  C3  UNK     1       8.396   5.680   9.276  1.00  0.00     0.052 A 
HETATM   13  C12 UNK     1       8.103   6.819  10.190  1.00  0.00     0.299 A 
HETATM   14  O2  UNK     1       7.189   6.587  11.216  1.00  0.00    -0.274 OA
HETATM   15  O4  UNK     1       8.633   7.918  10.059  1.00  0.00    -0.259 OA
HETATM   16  C10 UNK     1       6.562   5.340  11.393  1.00  0.00     0.089 A 
HETATM   17  C6  UNK     1       6.843   4.285  10.535  1.00  0.00    -0.001 A 
HETATM   18  C16 UNK     1       5.663   5.209  12.449  1.00  0.00     0.038 A 
HETATM   19  C15 UNK     1       6.204   3.061  10.739  1.00  0.00     0.014 A 
HETATM   20  C5  UNK     1       7.793   4.496   9.454  1.00  0.00     0.032 A 
HETATM   21  C17 UNK     1       5.299   2.911  11.794  1.00  0.00     0.001 A 
HETATM   22  C18 UNK     1       5.029   3.983  12.647  1.00  0.00     0.003 A 
ENDBRANCH   3  12
BRANCH   9  23
HETATM   23  O3  UNK     1      14.972   5.383   8.517  1.00  0.00    -0.351 OA
BRANCH  23  24
HETATM   24  C19 UNK     1      15.556   5.320   9.817  1.00  0.00     0.171 C 
HETATM   25  C20 UNK     1      16.292   6.615  10.089  1.00  0.00     0.034 C 
ENDBRANCH  23  24
ENDBRANCH   9  23
TORSDOF 3
ENDMDL
MODEL 5
REMARK VINA RESULT:      -8.4     23.374     25.120
REMARK  3 active torsions:
REMARK  status: ('A' for Active; 'I' for Inactive)
REMARK    1  A    between atoms: C11_16  and  O3_3 
REMARK    2  A    between atoms: C19_24  and  O3_3 
REMARK    3  A    between atoms: C1_6  and  C3_8 
ROOT
HETATM    1  O1  UNK     1      13.999   4.468   8.800  1.00  0.00    -0.275 OA
HETATM    2  O5  UNK     1      15.857   3.821   9.961  1.00  0.00    -0.260 OA
HETATM    3  C1  UNK     1      14.542   7.140   9.626  1.00  0.00    -0.001 A 
HETATM    4  C2  UNK     1      13.382   6.832   8.766  1.00  0.00     0.009 A 
HETATM    5  C4  UNK     1      13.148   5.510   8.384  1.00  0.00     0.093 A 
HETATM    6  C7  UNK     1      12.487   7.805   8.294  1.00  0.00     0.018 A 
HETATM    7  C8  UNK     1      15.329   6.117   9.996  1.00  0.00     0.096 A 
HETATM    8  C9  UNK     1      12.072   5.143   7.573  1.00  0.00     0.075 A 
HETATM    9  C11 UNK     1      11.197   6.123   7.121  1.00  0.00     0.071 A 
HETATM   10  C13 UNK     1      11.404   7.452   7.480  1.00  0.00     0.038 A 
HETATM   11  C14 UNK     1      15.102   4.717   9.597  1.00  0.00     0.289 A 
ENDROOT
BRANCH   3  12
HETATM   12  C3  UNK     1      14.884   8.465  10.104  1.00  0.00     0.052 A 
HETATM   13  C12 UNK     1      14.027   9.102  11.143  1.00  0.00     0.299 A 
HETATM   14  O2  UNK     1      14.395  10.375  11.572  1.00  0.00    -0.274 OA
HETATM   15  O4  UNK     1      13.040   8.544  11.610  1.00  0.00    -0.259 OA
HETATM   16  C10 UNK     1      15.522  11.043  11.057  1.00  0.00     0.089 A 
HETATM   17  C6  UNK     1      16.313  10.439  10.088  1.00  0.00    -0.001 A 
HETATM   18  C16 UNK     1      15.806  12.314  11.550  1.00  0.00     0.038 A 
HETATM   19  C15 UNK     1      17.425  11.129   9.599  1.00  0.00     0.014 A 
HETATM   20  C5  UNK     1      15.955   9.109   9.621  1.00  0.00     0.032 A 
HETATM   21  C17 UNK     1      17.724  12.405  10.083  1.00  0.00     0.001 A 
HETATM   22  C18 UNK     1      16.916  12.997  11.056  1.00  0.00     0.003 A 
ENDBRANCH   3  12
BRANCH   9  23
HETATM   23  O3  UNK     1      10.143   5.786   6.328  1.00  0.00    -0.351 OA
BRANCH  23  24
HETATM   24  C19 UNK     1       8.913   6.471   6.558  1.00  0.00     0.171 C 
HETATM   25  C20 UNK     1       8.211   5.840   7.743  1.00  0.00     0.034 C 
ENDBRANCH  23  24
ENDBRANCH   9  23
TORSDOF 3
ENDMDL
MODEL 6
REMARK VINA RESULT:      -8.3      2.680      7.716
REMARK  3 active torsions:
REMARK  status: ('A' for Active; 'I' for Inactive)
REMARK    1  A    between atoms: C11_16  and  O3_3 
REMARK    2  A    between atoms: C19_24  and  O3_3 
REMARK    3  A    between atoms: C1_6  and  C3_8 
ROOT
HETATM    1  O1  UNK     1      18.165   9.285  34.091  1.00  0.00    -0.275 OA
HETATM    2  O5  UNK     1      20.382   9.060  34.594  1.00  0.00    -0.260 OA
HETATM    3  C1  UNK     1      18.321   6.773  32.758  1.00  0.00    -0.001 A 
HETATM    4  C2  UNK     1      17.049   7.520  32.822  1.00  0.00     0.009 A 
HETATM    5  C4  UNK     1      17.014   8.750  33.482  1.00  0.00     0.093 A 
HETATM    6  C7  UNK     1      15.850   7.061  32.256  1.00  0.00     0.018 A 
HETATM    7  C8  UNK     1      19.393   7.318  33.355  1.00  0.00     0.096 A 
HETATM    8  C9  UNK     1      15.849   9.513  33.584  1.00  0.00     0.075 A 
HETATM    9  C11 UNK     1      14.675   9.040  33.011  1.00  0.00     0.071 A 
HETATM   10  C13 UNK     1      14.675   7.815  32.349  1.00  0.00     0.038 A 
HETATM   11  C14 UNK     1      19.372   8.611  34.062  1.00  0.00     0.289 A 
ENDROOT
BRANCH   3  12
HETATM   12  C3  UNK     1      18.493   5.498  32.091  1.00  0.00     0.052 A 
HETATM   13  C12 UNK     1      18.780   5.480  30.629  1.00  0.00     0.299 A 
HETATM   14  O2  UNK     1      18.938   4.231  30.031  1.00  0.00    -0.274 OA
HETATM   15  O4  UNK     1      18.877   6.509  29.968  1.00  0.00    -0.259 OA
HETATM   16  C10 UNK     1      18.835   3.033  30.761  1.00  0.00     0.089 A 
HETATM   17  C6  UNK     1      18.567   3.062  32.123  1.00  0.00    -0.001 A 
HETATM   18  C16 UNK     1      19.009   1.835  30.071  1.00  0.00     0.038 A 
HETATM   19  C15 UNK     1      18.471   1.854  32.817  1.00  0.00     0.014 A 
HETATM   20  C5  UNK     1      18.397   4.350  32.776  1.00  0.00     0.032 A 
HETATM   21  C17 UNK     1      18.643   0.643  32.141  1.00  0.00     0.001 A 
HETATM   22  C18 UNK     1      18.911   0.633  30.770  1.00  0.00     0.003 A 
ENDBRANCH   3  12
BRANCH   9  23
HETATM   23  O3  UNK     1      13.529   9.768  33.100  1.00  0.00    -0.351 OA
BRANCH  23  24
HETATM   24  C19 UNK     1      13.648  11.115  33.555  1.00  0.00     0.171 C 
HETATM   25  C20 UNK     1      13.252  12.052  32.434  1.00  0.00     0.034 C 
ENDBRANCH  23  24
ENDBRANCH   9  23
TORSDOF 3
ENDMDL
MODEL 7
REMARK VINA RESULT:      -8.3      6.145     10.300
REMARK  3 active torsions:
REMARK  status: ('A' for Active; 'I' for Inactive)
REMARK    1  A    between atoms: C11_16  and  O3_3 
REMARK    2  A    between atoms: C19_24  and  O3_3 
REMARK    3  A    between atoms: C1_6  and  C3_8 
ROOT
HETATM    1  O1  UNK     1      21.936  -6.698  38.186  1.00  0.00    -0.275 OA
HETATM    2  O5  UNK     1      23.585  -5.251  38.824  1.00  0.00    -0.260 OA
HETATM    3  C1  UNK     1      20.503  -4.454  37.175  1.00  0.00    -0.001 A 
HETATM    4  C2  UNK     1      19.952  -5.819  37.063  1.00  0.00     0.009 A 
HETATM    5  C4  UNK     1      20.684  -6.893  37.573  1.00  0.00     0.093 A 
HETATM    6  C7  UNK     1      18.719  -6.111  36.459  1.00  0.00     0.018 A 
HETATM    7  C8  UNK     1      21.702  -4.314  37.763  1.00  0.00     0.096 A 
HETATM    8  C9  UNK     1      20.227  -8.211  37.504  1.00  0.00     0.075 A 
HETATM    9  C11 UNK     1      19.001  -8.475  36.905  1.00  0.00     0.071 A 
HETATM   10  C13 UNK     1      18.249  -7.427  36.382  1.00  0.00     0.038 A 
HETATM   11  C14 UNK     1      22.491  -5.437  38.300  1.00  0.00     0.289 A 
ENDROOT
BRANCH   3  12
HETATM   12  C3  UNK     1      19.838  -3.256  36.702  1.00  0.00     0.052 A 
HETATM   13  C12 UNK     1      19.924  -2.903  35.257  1.00  0.00     0.299 A 
HETATM   14  O2  UNK     1      19.268  -1.743  34.850  1.00  0.00    -0.274 OA
HETATM   15  O4  UNK     1      20.539  -3.592  34.450  1.00  0.00    -0.259 OA
HETATM   16  C10 UNK     1      18.553  -0.932  35.749  1.00  0.00     0.089 A 
HETATM   17  C6  UNK     1      18.480  -1.270  37.095  1.00  0.00    -0.001 A 
HETATM   18  C16 UNK     1      17.932   0.208  35.244  1.00  0.00     0.038 A 
HETATM   19  C15 UNK     1      17.761  -0.443  37.960  1.00  0.00     0.014 A 
HETATM   20  C5  UNK     1      19.153  -2.476  37.551  1.00  0.00     0.032 A 
HETATM   21  C17 UNK     1      17.132   0.705  37.470  1.00  0.00     0.001 A 
HETATM   22  C18 UNK     1      17.217   1.030  36.114  1.00  0.00     0.003 A 
ENDBRANCH   3  12
BRANCH   9  23
HETATM   23  O3  UNK     1      18.539  -9.753  36.827  1.00  0.00    -0.351 OA
BRANCH  23  24
HETATM   24  C19 UNK     1      19.459 -10.796  37.143  1.00  0.00     0.171 C 
HETATM   25  C20 UNK     1      19.357 -11.113  38.620  1.00  0.00     0.034 C 
ENDBRANCH  23  24
ENDBRANCH   9  23
TORSDOF 3
ENDMDL
MODEL 8
REMARK VINA RESULT:      -8.2      1.333      6.918
REMARK  3 active torsions:
REMARK  status: ('A' for Active; 'I' for Inactive)
REMARK    1  A    between atoms: C11_16  and  O3_3 
REMARK    2  A    between atoms: C19_24  and  O3_3 
REMARK    3  A    between atoms: C1_6  and  C3_8 
ROOT
HETATM    1  O1  UNK     1      18.420   4.451  29.978  1.00  0.00    -0.275 OA
HETATM    2  O5  UNK     1      18.397   2.653  28.569  1.00  0.00    -0.260 OA
HETATM    3  C1  UNK     1      18.396   2.614  32.154  1.00  0.00    -0.001 A 
HETATM    4  C2  UNK     1      18.426   4.071  32.392  1.00  0.00     0.009 A 
HETATM    5  C4  UNK     1      18.435   4.939  31.298  1.00  0.00     0.093 A 
HETATM    6  C7  UNK     1      18.455   4.648  33.670  1.00  0.00     0.018 A 
HETATM    7  C8  UNK     1      18.387   2.192  30.880  1.00  0.00     0.096 A 
HETATM    8  C9  UNK     1      18.464   6.328  31.445  1.00  0.00     0.075 A 
HETATM    9  C11 UNK     1      18.487   6.876  32.721  1.00  0.00     0.071 A 
HETATM   10  C13 UNK     1      18.483   6.038  33.832  1.00  0.00     0.038 A 
HETATM   11  C14 UNK     1      18.402   3.094  29.714  1.00  0.00     0.289 A 
ENDROOT
BRANCH   3  12
HETATM   12  C3  UNK     1      18.368   1.610  33.199  1.00  0.00     0.052 A 
HETATM   13  C12 UNK     1      18.729   0.205  32.863  1.00  0.00     0.299 A 
HETATM   14  O2  UNK     1      18.688  -0.725  33.900  1.00  0.00    -0.274 OA
HETATM   15  O4  UNK     1      19.053  -0.135  31.729  1.00  0.00    -0.259 OA
HETATM   16  C10 UNK     1      18.322  -0.368  35.211  1.00  0.00     0.089 A 
HETATM   17  C6  UNK     1      17.987   0.946  35.513  1.00  0.00    -0.001 A 
HETATM   18  C16 UNK     1      18.311  -1.370  36.178  1.00  0.00     0.038 A 
HETATM   19  C15 UNK     1      17.629   1.265  36.825  1.00  0.00     0.014 A 
HETATM   20  C5  UNK     1      18.021   1.939  34.452  1.00  0.00     0.032 A 
HETATM   21  C17 UNK     1      17.612   0.272  37.808  1.00  0.00     0.001 A 
HETATM   22  C18 UNK     1      17.952  -1.044  37.485  1.00  0.00     0.003 A 
ENDBRANCH   3  12
BRANCH   9  23
HETATM   23  O3  UNK     1      18.516   8.227  32.884  1.00  0.00    -0.351 OA
BRANCH  23  24
HETATM   24  C19 UNK     1      18.655   8.717  34.217  1.00  0.00     0.171 C 
HETATM   25  C20 UNK     1      20.087   9.161  34.432  1.00  0.00     0.034 C 
ENDBRANCH  23  24
ENDBRANCH   9  23
TORSDOF 3
ENDMDL
MODEL 9
REMARK VINA RESULT:      -8.2      4.831      7.361
REMARK  3 active torsions:
REMARK  status: ('A' for Active; 'I' for Inactive)
REMARK    1  A    between atoms: C11_16  and  O3_3 
REMARK    2  A    between atoms: C19_24  and  O3_3 
REMARK    3  A    between atoms: C1_6  and  C3_8 
ROOT
HETATM    1  O1  UNK     1      17.317  -0.706  37.406  1.00  0.00    -0.275 OA
HETATM    2  O5  UNK     1      15.747   0.901  36.995  1.00  0.00    -0.260 OA
HETATM    3  C1  UNK     1      18.210  -0.371  34.722  1.00  0.00    -0.001 A 
HETATM    4  C2  UNK     1      18.865  -1.339  35.624  1.00  0.00     0.009 A 
HETATM    5  C4  UNK     1      18.397  -1.475  36.932  1.00  0.00     0.093 A 
HETATM    6  C7  UNK     1      19.954  -2.139  35.245  1.00  0.00     0.018 A 
HETATM    7  C8  UNK     1      17.187   0.344  35.215  1.00  0.00     0.096 A 
HETATM    8  C9  UNK     1      18.967  -2.368  37.843  1.00  0.00     0.075 A 
HETATM    9  C11 UNK     1      20.041  -3.154  37.443  1.00  0.00     0.071 A 
HETATM   10  C13 UNK     1      20.534  -3.039  36.146  1.00  0.00     0.038 A 
HETATM   11  C14 UNK     1      16.684   0.218  36.595  1.00  0.00     0.289 A 
ENDROOT
BRANCH   3  12
HETATM   12  C3  UNK     1      18.588  -0.147  33.341  1.00  0.00     0.052 A 
HETATM   13  C12 UNK     1      18.321   1.182  32.724  1.00  0.00     0.299 A 
HETATM   14  O2  UNK     1      18.703   1.350  31.395  1.00  0.00    -0.274 OA
HETATM   15  O4  UNK     1      17.792   2.098  33.345  1.00  0.00    -0.259 OA
HETATM   16  C10 UNK     1      19.312   0.321  30.654  1.00  0.00     0.089 A 
HETATM   17  C6  UNK     1      19.557  -0.915  31.239  1.00  0.00    -0.001 A 
HETATM   18  C16 UNK     1      19.657   0.588  29.331  1.00  0.00     0.038 A 
HETATM   19  C15 UNK     1      20.164  -1.914  30.476  1.00  0.00     0.014 A 
HETATM   20  C5  UNK     1      19.171  -1.121  32.626  1.00  0.00     0.032 A 
HETATM   21  C17 UNK     1      20.516  -1.663  29.147  1.00  0.00     0.001 A 
HETATM   22  C18 UNK     1      20.262  -0.414  28.575  1.00  0.00     0.003 A 
ENDBRANCH   3  12
BRANCH   9  23
HETATM   23  O3  UNK     1      20.610  -4.029  38.315  1.00  0.00    -0.351 OA
BRANCH  23  24
HETATM   24  C19 UNK     1      20.888  -5.342  37.830  1.00  0.00     0.171 C 
HETATM   25  C20 UNK     1      20.296  -6.357  38.785  1.00  0.00     0.034 C 
ENDBRANCH  23  24
ENDBRANCH   9  23
TORSDOF 3
ENDMDL
MODEL 10
REMARK VINA RESULT:      -8.1      4.984     10.452
REMARK  3 active torsions:
REMARK  status: ('A' for Active; 'I' for Inactive)
REMARK    1  A    between atoms: C11_16  and  O3_3 
REMARK    2  A    between atoms: C19_24  and  O3_3 
REMARK    3  A    between atoms: C1_6  and  C3_8 
ROOT
HETATM    1  O1  UNK     1      17.803   0.962  36.044  1.00  0.00    -0.275 OA
HETATM    2  O5  UNK     1      17.412   0.892  38.293  1.00  0.00    -0.260 OA
HETATM    3  C1  UNK     1      18.779  -1.707  36.237  1.00  0.00    -0.001 A 
HETATM    4  C2  UNK     1      18.741  -1.005  34.939  1.00  0.00     0.009 A 
HETATM    5  C4  UNK     1      18.257   0.303  34.886  1.00  0.00     0.093 A 
HETATM    6  C7  UNK     1      19.161  -1.584  33.732  1.00  0.00     0.018 A 
HETATM    7  C8  UNK     1      18.332  -1.043  37.315  1.00  0.00     0.096 A 
HETATM    8  C9  UNK     1      18.190   1.030  33.694  1.00  0.00     0.075 A 
HETATM    9  C11 UNK     1      18.616   0.437  32.512  1.00  0.00     0.071 A 
HETATM   10  C13 UNK     1      19.100  -0.868  32.530  1.00  0.00     0.038 A 
HETATM   11  C14 UNK     1      17.812   0.335  37.277  1.00  0.00     0.289 A 
ENDROOT
BRANCH   3  12
HETATM   12  C3  UNK     1      19.272  -3.056  36.429  1.00  0.00     0.052 A 
HETATM   13  C12 UNK     1      20.743  -3.287  36.491  1.00  0.00     0.299 A 
HETATM   14  O2  UNK     1      21.169  -4.600  36.677  1.00  0.00    -0.274 OA
HETATM   15  O4  UNK     1      21.554  -2.373  36.385  1.00  0.00    -0.259 OA
HETATM   16  C10 UNK     1      20.265  -5.671  36.803  1.00  0.00     0.089 A 
HETATM   17  C6  UNK     1      18.896  -5.444  36.744  1.00  0.00    -0.001 A 
HETATM   18  C16 UNK     1      20.791  -6.947  36.986  1.00  0.00     0.038 A 
HETATM   19  C15 UNK     1      18.027  -6.529  36.873  1.00  0.00     0.014 A 
HETATM   20  C5  UNK     1      18.420  -4.084  36.551  1.00  0.00     0.032 A 
HETATM   21  C17 UNK     1      18.537  -7.817  37.056  1.00  0.00     0.001 A 
HETATM   22  C18 UNK     1      19.917  -8.026  37.113  1.00  0.00     0.003 A 
ENDBRANCH   3  12
BRANCH   9  23
HETATM   23  O3  UNK     1      18.559   1.128  31.341  1.00  0.00    -0.351 OA
BRANCH  23  24
HETATM   24  C19 UNK     1      19.430   0.705  30.294  1.00  0.00     0.171 C 
HETATM   25  C20 UNK     1      18.826   1.096  28.961  1.00  0.00     0.034 C 
ENDBRANCH  23  24
ENDBRANCH   9  23
TORSDOF 3
ENDMDL
