MODEL 1
REMARK VINA RESULT:      -7.9      0.000      0.000
REMARK  2 active torsions:
REMARK  status: ('A' for Active; 'I' for Inactive)
REMARK    1  A    between atoms: C1_3  and  C3_5 
REMARK    2  A    between atoms: C2_4  and  C4_6 
ROOT
HETATM    1  N1  UNK     1      17.899   2.822  32.512  1.00  0.00    -0.191 NA
HETATM    2  C3  UNK     1      18.731   0.367  32.717  1.00  0.00     0.055 C 
HETATM    3  C4  UNK     1      18.542  -0.267  33.904  1.00  0.00     0.038 C 
HETATM    4  C15 UNK     1      18.267   1.726  32.613  1.00  0.00     0.100 C 
ENDROOT
BRANCH   2   5
HETATM    5  C1  UNK     1      19.376  -0.245  31.566  1.00  0.00    -0.015 A 
HETATM    6  C7  UNK     1      19.706  -1.601  31.589  1.00  0.00     0.013 A 
HETATM    7  C11 UNK     1      20.325  -2.188  30.486  1.00  0.00     0.001 A 
HETATM    8  C14 UNK     1      20.612  -1.421  29.358  1.00  0.00     0.000 A 
HETATM    9  C12 UNK     1      20.281  -0.066  29.333  1.00  0.00     0.001 A 
HETATM   10  C8  UNK     1      19.663   0.522  30.437  1.00  0.00     0.013 A 
ENDBRANCH   2   5
BRANCH   3  11
HETATM   11  C2  UNK     1      17.902   0.315  35.093  1.00  0.00     0.004 A 
HETATM   12  C5  UNK     1      16.569   0.042  35.360  1.00  0.00     0.126 A 
HETATM   13  F1  UNK     1      15.845  -0.747  34.553  1.00  0.00    -0.205 F 
HETATM   14  C9  UNK     1      15.968   0.596  36.490  1.00  0.00     0.043 A 
HETATM   15  C13 UNK     1      16.706   1.419  37.341  1.00  0.00     0.003 A 
HETATM   16  C10 UNK     1      18.046   1.687  37.061  1.00  0.00     0.001 A 
HETATM   17  C6  UNK     1      18.647   1.132  35.932  1.00  0.00     0.014 A 
ENDBRANCH   3  11
TORSDOF 2
ENDMDL
MODEL 2
REMARK VINA RESULT:      -7.9      1.117      1.616
REMARK  2 active torsions:
REMARK  status: ('A' for Active; 'I' for Inactive)
REMARK    1  A    between atoms: C1_3  and  C3_5 
REMARK    2  A    between atoms: C2_4  and  C4_6 
ROOT
HETATM    1  N1  UNK     1      17.908   2.845  32.595  1.00  0.00    -0.191 NA
HETATM    2  C3  UNK     1      18.643   0.356  32.768  1.00  0.00     0.055 C 
HETATM    3  C4  UNK     1      18.360  -0.307  33.920  1.00  0.00     0.038 C 
HETATM    4  C15 UNK     1      18.232   1.733  32.681  1.00  0.00     0.100 C 
ENDROOT
BRANCH   2   5
HETATM    5  C1  UNK     1      19.336  -0.243  31.638  1.00  0.00    -0.015 A 
HETATM    6  C7  UNK     1      19.667  -1.598  31.660  1.00  0.00     0.013 A 
HETATM    7  C11 UNK     1      20.332  -2.171  30.578  1.00  0.00     0.001 A 
HETATM    8  C14 UNK     1      20.665  -1.392  29.471  1.00  0.00     0.000 A 
HETATM    9  C12 UNK     1      20.333  -0.037  29.447  1.00  0.00     0.001 A 
HETATM   10  C8  UNK     1      19.669   0.538  30.531  1.00  0.00     0.013 A 
ENDBRANCH   2   5
BRANCH   3  11
HETATM   11  C2  UNK     1      17.668   0.260  35.087  1.00  0.00     0.004 A 
HETATM   12  C5  UNK     1      18.383   0.999  36.018  1.00  0.00     0.126 A 
HETATM   13  F1  UNK     1      19.700   1.210  35.876  1.00  0.00    -0.205 F 
HETATM   14  C9  UNK     1      17.721   1.534  37.123  1.00  0.00     0.043 A 
HETATM   15  C13 UNK     1      16.352   1.324  37.286  1.00  0.00     0.003 A 
HETATM   16  C10 UNK     1      15.645   0.578  36.343  1.00  0.00     0.001 A 
HETATM   17  C6  UNK     1      16.305   0.044  35.238  1.00  0.00     0.014 A 
ENDBRANCH   3  11
TORSDOF 2
ENDMDL
MODEL 3
REMARK VINA RESULT:      -7.8      3.961      5.261
REMARK  2 active torsions:
REMARK  status: ('A' for Active; 'I' for Inactive)
REMARK    1  A    between atoms: C1_3  and  C3_5 
REMARK    2  A    between atoms: C2_4  and  C4_6 
ROOT
HETATM    1  N1  UNK     1      17.937   2.461  33.692  1.00  0.00    -0.191 NA
HETATM    2  C3  UNK     1      18.538   3.126  31.251  1.00  0.00     0.055 C 
HETATM    3  C4  UNK     1      18.656   4.450  30.969  1.00  0.00     0.038 C 
HETATM    4  C15 UNK     1      18.205   2.767  32.605  1.00  0.00     0.100 C 
ENDROOT
BRANCH   2   5
HETATM    5  C1  UNK     1      18.720   2.069  30.268  1.00  0.00    -0.015 A 
HETATM    6  C7  UNK     1      17.939   2.049  29.112  1.00  0.00     0.013 A 
HETATM    7  C11 UNK     1      18.113   1.035  28.171  1.00  0.00     0.001 A 
HETATM    8  C14 UNK     1      19.069   0.043  28.383  1.00  0.00     0.000 A 
HETATM    9  C12 UNK     1      19.851   0.064  29.538  1.00  0.00     0.001 A 
HETATM   10  C8  UNK     1      19.677   1.077  30.480  1.00  0.00     0.013 A 
ENDBRANCH   2   5
BRANCH   3  11
HETATM   11  C2  UNK     1      18.475   5.550  31.927  1.00  0.00     0.004 A 
HETATM   12  C5  UNK     1      19.581   6.243  32.397  1.00  0.00     0.126 A 
HETATM   13  F1  UNK     1      20.821   5.931  31.993  1.00  0.00    -0.205 F 
HETATM   14  C9  UNK     1      19.403   7.286  33.306  1.00  0.00     0.043 A 
HETATM   15  C13 UNK     1      18.120   7.624  33.737  1.00  0.00     0.003 A 
HETATM   16  C10 UNK     1      17.016   6.919  33.258  1.00  0.00     0.001 A 
HETATM   17  C6  UNK     1      17.194   5.878  32.349  1.00  0.00     0.014 A 
ENDBRANCH   3  11
TORSDOF 2
ENDMDL
MODEL 4
REMARK VINA RESULT:      -7.8      4.243      5.218
REMARK  2 active torsions:
REMARK  status: ('A' for Active; 'I' for Inactive)
REMARK    1  A    between atoms: C1_3  and  C3_5 
REMARK    2  A    between atoms: C2_4  and  C4_6 
ROOT
HETATM    1  N1  UNK     1      19.842   6.131  29.800  1.00  0.00    -0.191 NA
HETATM    2  C3  UNK     1      18.723   4.089  30.957  1.00  0.00     0.055 C 
HETATM    3  C4  UNK     1      18.195   4.276  32.195  1.00  0.00     0.038 C 
HETATM    4  C15 UNK     1      19.340   5.225  30.324  1.00  0.00     0.100 C 
ENDROOT
BRANCH   2   5
HETATM    5  C1  UNK     1      18.704   2.816  30.252  1.00  0.00    -0.015 A 
HETATM    6  C7  UNK     1      18.024   2.700  29.040  1.00  0.00     0.013 A 
HETATM    7  C11 UNK     1      18.005   1.480  28.365  1.00  0.00     0.001 A 
HETATM    8  C14 UNK     1      18.669   0.377  28.900  1.00  0.00     0.000 A 
HETATM    9  C12 UNK     1      19.351   0.493  30.111  1.00  0.00     0.001 A 
HETATM   10  C8  UNK     1      19.369   1.712  30.787  1.00  0.00     0.013 A 
ENDBRANCH   2   5
BRANCH   3  11
HETATM   11  C2  UNK     1      18.197   5.540  32.946  1.00  0.00     0.004 A 
HETATM   12  C5  UNK     1      17.098   6.384  32.876  1.00  0.00     0.126 A 
HETATM   13  F1  UNK     1      16.026   6.070  32.134  1.00  0.00    -0.205 F 
HETATM   14  C9  UNK     1      17.106   7.582  33.590  1.00  0.00     0.043 A 
HETATM   15  C13 UNK     1      18.213   7.924  34.366  1.00  0.00     0.003 A 
HETATM   16  C10 UNK     1      19.313   7.067  34.428  1.00  0.00     0.001 A 
HETATM   17  C6  UNK     1      19.305   5.869  33.715  1.00  0.00     0.014 A 
ENDBRANCH   3  11
TORSDOF 2
ENDMDL
MODEL 5
REMARK VINA RESULT:      -7.6      4.427      5.473
REMARK  2 active torsions:
REMARK  status: ('A' for Active; 'I' for Inactive)
REMARK    1  A    between atoms: C1_3  and  C3_5 
REMARK    2  A    between atoms: C2_4  and  C4_6 
ROOT
HETATM    1  N1  UNK     1      19.980   6.167  29.777  1.00  0.00    -0.191 NA
HETATM    2  C3  UNK     1      18.681   4.271  30.993  1.00  0.00     0.055 C 
HETATM    3  C4  UNK     1      18.046   4.584  32.153  1.00  0.00     0.038 C 
HETATM    4  C15 UNK     1      19.397   5.327  30.327  1.00  0.00     0.100 C 
ENDROOT
BRANCH   2   5
HETATM    5  C1  UNK     1      18.681   2.941  30.403  1.00  0.00    -0.015 A 
HETATM    6  C7  UNK     1      19.196   1.859  31.119  1.00  0.00     0.013 A 
HETATM    7  C11 UNK     1      19.197   0.585  30.553  1.00  0.00     0.001 A 
HETATM    8  C14 UNK     1      18.680   0.390  29.273  1.00  0.00     0.000 A 
HETATM    9  C12 UNK     1      18.164   1.471  28.557  1.00  0.00     0.001 A 
HETATM   10  C8  UNK     1      18.164   2.746  29.122  1.00  0.00     0.013 A 
ENDBRANCH   2   5
BRANCH   3  11
HETATM   11  C2  UNK     1      18.025   5.910  32.787  1.00  0.00     0.004 A 
HETATM   12  C5  UNK     1      18.949   6.214  33.776  1.00  0.00     0.126 A 
HETATM   13  F1  UNK     1      19.868   5.319  34.169  1.00  0.00    -0.205 F 
HETATM   14  C9  UNK     1      18.925   7.474  34.374  1.00  0.00     0.043 A 
HETATM   15  C13 UNK     1      17.976   8.416  33.977  1.00  0.00     0.003 A 
HETATM   16  C10 UNK     1      17.052   8.098  32.982  1.00  0.00     0.001 A 
HETATM   17  C6  UNK     1      17.077   6.840  32.384  1.00  0.00     0.014 A 
ENDBRANCH   3  11
TORSDOF 2
ENDMDL
MODEL 6
REMARK VINA RESULT:      -7.5      1.534      2.069
REMARK  2 active torsions:
REMARK  status: ('A' for Active; 'I' for Inactive)
REMARK    1  A    between atoms: C1_3  and  C3_5 
REMARK    2  A    between atoms: C2_4  and  C4_6 
ROOT
HETATM    1  N1  UNK     1      19.733  -2.161  34.723  1.00  0.00    -0.191 NA
HETATM    2  C3  UNK     1      19.056  -0.398  32.935  1.00  0.00     0.055 C 
HETATM    3  C4  UNK     1      18.279   0.642  33.337  1.00  0.00     0.038 C 
HETATM    4  C15 UNK     1      19.426  -1.368  33.932  1.00  0.00     0.100 C 
ENDROOT
BRANCH   2   5
HETATM    5  C1  UNK     1      19.520  -0.581  31.569  1.00  0.00    -0.015 A 
HETATM    6  C7  UNK     1      19.402   0.459  30.646  1.00  0.00     0.013 A 
HETATM    7  C11 UNK     1      19.847   0.282  29.336  1.00  0.00     0.001 A 
HETATM    8  C14 UNK     1      20.410  -0.933  28.949  1.00  0.00     0.000 A 
HETATM    9  C12 UNK     1      20.529  -1.973  29.871  1.00  0.00     0.001 A 
HETATM   10  C8  UNK     1      20.084  -1.797  31.181  1.00  0.00     0.013 A 
ENDBRANCH   2   5
BRANCH   3  11
HETATM   11  C2  UNK     1      17.783   0.863  34.703  1.00  0.00     0.004 A 
HETATM   12  C5  UNK     1      16.666   0.171  35.150  1.00  0.00     0.126 A 
HETATM   13  F1  UNK     1      16.025  -0.701  34.358  1.00  0.00    -0.205 F 
HETATM   14  C9  UNK     1      16.200   0.385  36.447  1.00  0.00     0.043 A 
HETATM   15  C13 UNK     1      16.855   1.288  37.284  1.00  0.00     0.003 A 
HETATM   16  C10 UNK     1      17.976   1.978  36.823  1.00  0.00     0.001 A 
HETATM   17  C6  UNK     1      18.443   1.765  35.527  1.00  0.00     0.014 A 
ENDBRANCH   3  11
TORSDOF 2
ENDMDL
MODEL 7
REMARK VINA RESULT:      -7.4     24.813     26.843
REMARK  2 active torsions:
REMARK  status: ('A' for Active; 'I' for Inactive)
REMARK    1  A    between atoms: C1_3  and  C3_5 
REMARK    2  A    between atoms: C2_4  and  C4_6 
ROOT
HETATM    1  N1  UNK     1      12.297   5.306  10.376  1.00  0.00    -0.191 NA
HETATM    2  C3  UNK     1      13.232   7.275   8.958  1.00  0.00     0.055 C 
HETATM    3  C4  UNK     1      12.456   7.750   7.949  1.00  0.00     0.038 C 
HETATM    4  C15 UNK     1      12.706   6.185   9.738  1.00  0.00     0.100 C 
ENDROOT
BRANCH   2   5
HETATM    5  C1  UNK     1      14.550   7.799   9.281  1.00  0.00    -0.015 A 
HETATM    6  C7  UNK     1      15.514   6.963   9.847  1.00  0.00     0.013 A 
HETATM    7  C11 UNK     1      16.776   7.465  10.158  1.00  0.00     0.001 A 
HETATM    8  C14 UNK     1      17.078   8.802   9.900  1.00  0.00     0.000 A 
HETATM    9  C12 UNK     1      16.116   9.638   9.333  1.00  0.00     0.001 A 
HETATM   10  C8  UNK     1      14.852   9.136   9.024  1.00  0.00     0.013 A 
ENDBRANCH   2   5
BRANCH   3  11
HETATM   11  C2  UNK     1      11.123   7.248   7.583  1.00  0.00     0.004 A 
HETATM   12  C5  UNK     1      10.960   6.514   6.417  1.00  0.00     0.126 A 
HETATM   13  F1  UNK     1      11.999   6.250   5.610  1.00  0.00    -0.205 F 
HETATM   14  C9  UNK     1       9.694   6.039   6.076  1.00  0.00     0.043 A 
HETATM   15  C13 UNK     1       8.603   6.304   6.904  1.00  0.00     0.003 A 
HETATM   16  C10 UNK     1       8.780   7.044   8.073  1.00  0.00     0.001 A 
HETATM   17  C6  UNK     1      10.045   7.518   8.415  1.00  0.00     0.014 A 
ENDBRANCH   3  11
TORSDOF 2
ENDMDL
MODEL 8
REMARK VINA RESULT:      -7.4      3.396      6.780
REMARK  2 active torsions:
REMARK  status: ('A' for Active; 'I' for Inactive)
REMARK    1  A    between atoms: C1_3  and  C3_5 
REMARK    2  A    between atoms: C2_4  and  C4_6 
ROOT
HETATM    1  N1  UNK     1      18.099   1.244  33.110  1.00  0.00    -0.191 NA
HETATM    2  C3  UNK     1      18.489   3.272  31.529  1.00  0.00     0.055 C 
HETATM    3  C4  UNK     1      18.917   3.014  30.265  1.00  0.00     0.038 C 
HETATM    4  C15 UNK     1      18.275   2.143  32.397  1.00  0.00     0.100 C 
ENDROOT
BRANCH   2   5
HETATM    5  C1  UNK     1      18.246   4.610  32.044  1.00  0.00    -0.015 A 
HETATM    6  C7  UNK     1      18.009   4.802  33.406  1.00  0.00     0.013 A 
HETATM    7  C11 UNK     1      17.775   6.085  33.900  1.00  0.00     0.001 A 
HETATM    8  C14 UNK     1      17.781   7.177  33.033  1.00  0.00     0.000 A 
HETATM    9  C12 UNK     1      18.019   6.986  31.672  1.00  0.00     0.001 A 
HETATM   10  C8  UNK     1      18.251   5.703  31.177  1.00  0.00     0.013 A 
ENDBRANCH   2   5
BRANCH   3  11
HETATM   11  C2  UNK     1      19.181   1.680  29.706  1.00  0.00     0.004 A 
HETATM   12  C5  UNK     1      18.435   1.226  28.627  1.00  0.00     0.126 A 
HETATM   13  F1  UNK     1      17.473   1.983  28.079  1.00  0.00    -0.205 F 
HETATM   14  C9  UNK     1      18.691  -0.040  28.101  1.00  0.00     0.043 A 
HETATM   15  C13 UNK     1      19.688  -0.839  28.658  1.00  0.00     0.003 A 
HETATM   16  C10 UNK     1      20.430  -0.372  29.743  1.00  0.00     0.001 A 
HETATM   17  C6  UNK     1      20.176   0.893  30.269  1.00  0.00     0.014 A 
ENDBRANCH   3  11
TORSDOF 2
ENDMDL
MODEL 9
REMARK VINA RESULT:      -7.3     24.733     26.792
REMARK  2 active torsions:
REMARK  status: ('A' for Active; 'I' for Inactive)
REMARK    1  A    between atoms: C1_3  and  C3_5 
REMARK    2  A    between atoms: C2_4  and  C4_6 
ROOT
HETATM    1  N1  UNK     1      12.679   5.419  10.198  1.00  0.00    -0.191 NA
HETATM    2  C3  UNK     1      13.390   7.529   8.855  1.00  0.00     0.055 C 
HETATM    3  C4  UNK     1      12.556   7.964   7.874  1.00  0.00     0.038 C 
HETATM    4  C15 UNK     1      12.988   6.361   9.593  1.00  0.00     0.100 C 
ENDROOT
BRANCH   2   5
HETATM    5  C1  UNK     1      14.654   8.170   9.187  1.00  0.00    -0.015 A 
HETATM    6  C7  UNK     1      15.619   7.474   9.915  1.00  0.00     0.013 A 
HETATM    7  C11 UNK     1      16.830   8.088  10.233  1.00  0.00     0.001 A 
HETATM    8  C14 UNK     1      17.077   9.397   9.823  1.00  0.00     0.000 A 
HETATM    9  C12 UNK     1      16.112  10.094   9.094  1.00  0.00     0.001 A 
HETATM   10  C8  UNK     1      14.901   9.480   8.776  1.00  0.00     0.013 A 
ENDBRANCH   2   5
BRANCH   3  11
HETATM   11  C2  UNK     1      11.276   7.345   7.501  1.00  0.00     0.004 A 
HETATM   12  C5  UNK     1      10.168   7.509   8.320  1.00  0.00     0.126 A 
HETATM   13  F1  UNK     1      10.239   8.225   9.452  1.00  0.00    -0.205 F 
HETATM   14  C9  UNK     1       8.956   6.919   7.961  1.00  0.00     0.043 A 
HETATM   15  C13 UNK     1       8.865   6.171   6.787  1.00  0.00     0.003 A 
HETATM   16  C10 UNK     1       9.986   6.014   5.973  1.00  0.00     0.001 A 
HETATM   17  C6  UNK     1      11.198   6.603   6.331  1.00  0.00     0.014 A 
ENDBRANCH   3  11
TORSDOF 2
ENDMDL
MODEL 10
REMARK VINA RESULT:      -7.1     24.325     26.915
REMARK  2 active torsions:
REMARK  status: ('A' for Active; 'I' for Inactive)
REMARK    1  A    between atoms: C1_3  and  C3_5 
REMARK    2  A    between atoms: C2_4  and  C4_6 
ROOT
HETATM    1  N1  UNK     1      14.603   5.506   8.087  1.00  0.00    -0.191 NA
HETATM    2  C3  UNK     1      12.679   7.251   8.202  1.00  0.00     0.055 C 
HETATM    3  C4  UNK     1      12.929   8.425   8.839  1.00  0.00     0.038 C 
HETATM    4  C15 UNK     1      13.750   6.291   8.143  1.00  0.00     0.100 C 
ENDROOT
BRANCH   2   5
HETATM    5  C1  UNK     1      11.401   6.916   7.593  1.00  0.00    -0.015 A 
HETATM    6  C7  UNK     1      11.352   6.470   6.272  1.00  0.00     0.013 A 
HETATM    7  C11 UNK     1      10.127   6.150   5.689  1.00  0.00     0.001 A 
HETATM    8  C14 UNK     1       8.950   6.273   6.425  1.00  0.00     0.000 A 
HETATM    9  C12 UNK     1       8.998   6.718   7.747  1.00  0.00     0.001 A 
HETATM   10  C8  UNK     1      10.223   7.040   8.331  1.00  0.00     0.013 A 
ENDBRANCH   2   5
BRANCH   3  11
HETATM   11  C2  UNK     1      14.201   8.802   9.474  1.00  0.00     0.004 A 
HETATM   12  C5  UNK     1      15.107   9.591   8.781  1.00  0.00     0.126 A 
HETATM   13  F1  UNK     1      14.848  10.022   7.538  1.00  0.00    -0.205 F 
HETATM   14  C9  UNK     1      16.312   9.945   9.388  1.00  0.00     0.043 A 
HETATM   15  C13 UNK     1      16.598   9.506  10.681  1.00  0.00     0.003 A 
HETATM   16  C10 UNK     1      15.678   8.712  11.366  1.00  0.00     0.001 A 
HETATM   17  C6  UNK     1      14.474   8.359  10.760  1.00  0.00     0.014 A 
ENDBRANCH   3  11
TORSDOF 2
ENDMDL
