MODEL 1
REMARK VINA RESULT:      -7.5      0.000      0.000
REMARK  4 active torsions:
REMARK  status: ('A' for Active; 'I' for Inactive)
REMARK    1  A    between atoms: C12_16  and  O2_2 
REMARK    2  A    between atoms: C4_8  and  O2_2 
REMARK    3  A    between atoms: C12_16  and  C6_10 
REMARK    4  A    between atoms: C6_10  and  C8_12 
ROOT
HETATM    1  O1  UNK     1      19.230  -0.389  32.848  1.00  0.00    -0.275 OA
HETATM    2  O4  UNK     1      20.079  -2.467  33.282  1.00  0.00    -0.260 OA
HETATM    3  C1  UNK     1      19.464   0.553  30.606  1.00  0.00     0.004 A 
HETATM    4  C2  UNK     1      19.018   0.654  31.924  1.00  0.00     0.092 A 
HETATM    5  C3  UNK     1      20.166  -0.670  30.193  1.00  0.00    -0.043 A 
HETATM    6  C4  UNK     1      18.103   2.843  31.533  1.00  0.00     0.082 A 
HETATM    7  C5  UNK     1      19.213   1.633  29.749  1.00  0.00     0.017 A 
HETATM    8  C7  UNK     1      18.342   1.780  32.399  1.00  0.00     0.075 A 
HETATM    9  C9  UNK     1      18.537   2.769  30.210  1.00  0.00     0.038 A 
HETATM   10  C10 UNK     1      20.354  -1.646  31.092  1.00  0.00     0.090 A 
HETATM   11  C11 UNK     1      20.659  -0.809  28.783  1.00  0.00     0.049 C 
HETATM   12  C14 UNK     1      19.888  -1.553  32.487  1.00  0.00     0.288 A 
ENDROOT
BRANCH   6  13
HETATM   13  O2  UNK     1      17.446   3.949  31.975  1.00  0.00    -0.279 OA
BRANCH  13  14
HETATM   14  C12 UNK     1      18.227   4.802  32.780  1.00  0.00     0.264 C 
HETATM   15  O3  UNK     1      18.584   4.559  33.924  1.00  0.00    -0.265 OA
BRANCH  14  16
HETATM   16  C6  UNK     1      18.553   6.062  32.009  1.00  0.00     0.111 C 
BRANCH  16  17
HETATM   17  C8  UNK     1      20.009   6.089  31.551  1.00  0.00     0.005 C 
HETATM   18  C13 UNK     1      20.123   5.911  30.046  1.00  0.00     0.005 C 
ENDBRANCH  16  17
ENDBRANCH  14  16
ENDBRANCH  13  14
ENDBRANCH   6  13
TORSDOF 4
ENDMDL
MODEL 2
REMARK VINA RESULT:      -7.3      0.727      1.021
REMARK  4 active torsions:
REMARK  status: ('A' for Active; 'I' for Inactive)
REMARK    1  A    between atoms: C12_16  and  O2_2 
REMARK    2  A    between atoms: C4_8  and  O2_2 
REMARK    3  A    between atoms: C12_16  and  C6_10 
REMARK    4  A    between atoms: C6_10  and  C8_12 
ROOT
HETATM    1  O1  UNK     1      19.201  -0.275  32.796  1.00  0.00    -0.275 OA
HETATM    2  O4  UNK     1      19.988  -2.365  33.284  1.00  0.00    -0.260 OA
HETATM    3  C1  UNK     1      19.438   0.591  30.523  1.00  0.00     0.004 A 
HETATM    4  C2  UNK     1      19.012   0.747  31.843  1.00  0.00     0.092 A 
HETATM    5  C3  UNK     1      20.095  -0.667  30.141  1.00  0.00    -0.043 A 
HETATM    6  C4  UNK     1      18.164   2.951  31.395  1.00  0.00     0.082 A 
HETATM    7  C5  UNK     1      19.212   1.652  29.637  1.00  0.00     0.017 A 
HETATM    8  C7  UNK     1      18.379   1.908  32.290  1.00  0.00     0.075 A 
HETATM    9  C9  UNK     1      18.579   2.823  30.071  1.00  0.00     0.038 A 
HETATM   10  C10 UNK     1      20.262  -1.621  31.067  1.00  0.00     0.090 A 
HETATM   11  C11 UNK     1      20.566  -0.865  28.730  1.00  0.00     0.049 C 
HETATM   12  C14 UNK     1      19.817  -1.470  32.463  1.00  0.00     0.288 A 
ENDROOT
BRANCH   6  13
HETATM   13  O2  UNK     1      17.549   4.091  31.810  1.00  0.00    -0.279 OA
BRANCH  13  14
HETATM   14  C12 UNK     1      18.284   4.833  32.756  1.00  0.00     0.264 C 
HETATM   15  O3  UNK     1      18.281   4.636  33.963  1.00  0.00    -0.265 OA
BRANCH  14  16
HETATM   16  C6  UNK     1      19.075   5.909  32.045  1.00  0.00     0.111 C 
BRANCH  16  17
HETATM   17  C8  UNK     1      20.256   6.394  32.881  1.00  0.00     0.005 C 
HETATM   18  C13 UNK     1      19.906   7.646  33.668  1.00  0.00     0.005 C 
ENDBRANCH  16  17
ENDBRANCH  14  16
ENDBRANCH  13  14
ENDBRANCH   6  13
TORSDOF 4
ENDMDL
MODEL 3
REMARK VINA RESULT:      -7.2      1.658      2.465
REMARK  4 active torsions:
REMARK  status: ('A' for Active; 'I' for Inactive)
REMARK    1  A    between atoms: C12_16  and  O2_2 
REMARK    2  A    between atoms: C4_8  and  O2_2 
REMARK    3  A    between atoms: C12_16  and  C6_10 
REMARK    4  A    between atoms: C6_10  and  C8_12 
ROOT
HETATM    1  O1  UNK     1      19.559   0.974  29.490  1.00  0.00    -0.275 OA
HETATM    2  O4  UNK     1      20.549  -0.622  28.187  1.00  0.00    -0.260 OA
HETATM    3  C1  UNK     1      19.093   0.481  31.837  1.00  0.00     0.004 A 
HETATM    4  C2  UNK     1      19.055   1.356  30.750  1.00  0.00     0.092 A 
HETATM    5  C3  UNK     1      19.671  -0.856  31.643  1.00  0.00    -0.043 A 
HETATM    6  C4  UNK     1      18.014   3.076  32.066  1.00  0.00     0.082 A 
HETATM    7  C5  UNK     1      18.574   0.936  33.056  1.00  0.00     0.017 A 
HETATM    8  C7  UNK     1      18.525   2.644  30.847  1.00  0.00     0.075 A 
HETATM    9  C9  UNK     1      18.039   2.224  33.169  1.00  0.00     0.038 A 
HETATM   10  C10 UNK     1      20.141  -1.192  30.435  1.00  0.00     0.090 A 
HETATM   11  C11 UNK     1      19.725  -1.820  32.793  1.00  0.00     0.049 C 
HETATM   12  C14 UNK     1      20.108  -0.280  29.279  1.00  0.00     0.288 A 
ENDROOT
BRANCH   6  13
HETATM   13  O2  UNK     1      17.492   4.328  32.182  1.00  0.00    -0.279 OA
BRANCH  13  14
HETATM   14  C12 UNK     1      18.434   5.316  32.531  1.00  0.00     0.264 C 
HETATM   15  O3  UNK     1      19.232   5.235  33.454  1.00  0.00    -0.265 OA
BRANCH  14  16
HETATM   16  C6  UNK     1      18.303   6.490  31.587  1.00  0.00     0.111 C 
BRANCH  16  17
HETATM   17  C8  UNK     1      18.839   6.165  30.195  1.00  0.00     0.005 C 
HETATM   18  C13 UNK     1      20.324   5.841  30.232  1.00  0.00     0.005 C 
ENDBRANCH  16  17
ENDBRANCH  14  16
ENDBRANCH  13  14
ENDBRANCH   6  13
TORSDOF 4
ENDMDL
MODEL 4
REMARK VINA RESULT:      -7.1     22.970     24.511
REMARK  4 active torsions:
REMARK  status: ('A' for Active; 'I' for Inactive)
REMARK    1  A    between atoms: C12_16  and  O2_2 
REMARK    2  A    between atoms: C4_8  and  O2_2 
REMARK    3  A    between atoms: C12_16  and  C6_10 
REMARK    4  A    between atoms: C6_10  and  C8_12 
ROOT
HETATM    1  O1  UNK     1       9.488   5.579   9.533  1.00  0.00    -0.275 OA
HETATM    2  O4  UNK     1       7.237   5.796   9.194  1.00  0.00    -0.260 OA
HETATM    3  C1  UNK     1      11.015   5.898   7.653  1.00  0.00     0.004 A 
HETATM    4  C2  UNK     1      10.793   5.614   9.001  1.00  0.00     0.092 A 
HETATM    5  C3  UNK     1       9.856   6.161   6.789  1.00  0.00    -0.043 A 
HETATM    6  C4  UNK     1      13.147   5.372   9.424  1.00  0.00     0.082 A 
HETATM    7  C5  UNK     1      12.342   5.914   7.203  1.00  0.00     0.017 A 
HETATM    8  C7  UNK     1      11.837   5.352   9.891  1.00  0.00     0.075 A 
HETATM    9  C9  UNK     1      13.399   5.653   8.082  1.00  0.00     0.038 A 
HETATM   10  C10 UNK     1       8.627   6.121   7.321  1.00  0.00     0.090 A 
HETATM   11  C11 UNK     1      10.063   6.468   5.335  1.00  0.00     0.049 C 
HETATM   12  C14 UNK     1       8.377   5.823   8.742  1.00  0.00     0.288 A 
ENDROOT
BRANCH   6  13
HETATM   13  O2  UNK     1      14.179   5.121  10.274  1.00  0.00    -0.279 OA
BRANCH  13  14
HETATM   14  C12 UNK     1      15.376   5.785   9.943  1.00  0.00     0.264 C 
HETATM   15  O3  UNK     1      16.266   5.326   9.241  1.00  0.00    -0.265 OA
BRANCH  14  16
HETATM   16  C6  UNK     1      15.387   7.153  10.590  1.00  0.00     0.111 C 
BRANCH  16  17
HETATM   17  C8  UNK     1      16.803   7.703  10.734  1.00  0.00     0.005 C 
HETATM   18  C13 UNK     1      17.037   8.889   9.812  1.00  0.00     0.005 C 
ENDBRANCH  16  17
ENDBRANCH  14  16
ENDBRANCH  13  14
ENDBRANCH   6  13
TORSDOF 4
ENDMDL
MODEL 5
REMARK VINA RESULT:      -7.1      3.294      5.572
REMARK  4 active torsions:
REMARK  status: ('A' for Active; 'I' for Inactive)
REMARK    1  A    between atoms: C12_16  and  O2_2 
REMARK    2  A    between atoms: C4_8  and  O2_2 
REMARK    3  A    between atoms: C12_16  and  C6_10 
REMARK    4  A    between atoms: C6_10  and  C8_12 
ROOT
HETATM    1  O1  UNK     1      20.621  -3.355  35.303  1.00  0.00    -0.275 OA
HETATM    2  O4  UNK     1      21.334  -4.476  37.163  1.00  0.00    -0.260 OA
HETATM    3  C1  UNK     1      18.916  -1.620  35.534  1.00  0.00     0.004 A 
HETATM    4  C2  UNK     1      19.786  -2.369  34.740  1.00  0.00     0.092 A 
HETATM    5  C3  UNK     1      18.885  -1.880  36.980  1.00  0.00    -0.043 A 
HETATM    6  C4  UNK     1      19.079  -1.228  32.746  1.00  0.00     0.082 A 
HETATM    7  C5  UNK     1      18.120  -0.659  34.898  1.00  0.00     0.017 A 
HETATM    8  C7  UNK     1      19.879  -2.187  33.359  1.00  0.00     0.075 A 
HETATM    9  C9  UNK     1      18.202  -0.465  33.515  1.00  0.00     0.038 A 
HETATM   10  C10 UNK     1      19.690  -2.823  37.489  1.00  0.00     0.090 A 
HETATM   11  C11 UNK     1      17.960  -1.092  37.861  1.00  0.00     0.049 C 
HETATM   12  C14 UNK     1      20.613  -3.621  36.663  1.00  0.00     0.288 A 
ENDROOT
BRANCH   6  13
HETATM   13  O2  UNK     1      19.154  -1.033  31.401  1.00  0.00    -0.279 OA
BRANCH  13  14
HETATM   14  C12 UNK     1      20.049  -0.017  31.013  1.00  0.00     0.264 C 
HETATM   15  O3  UNK     1      21.268  -0.082  31.096  1.00  0.00    -0.265 OA
BRANCH  14  16
HETATM   16  C6  UNK     1      19.268   1.163  30.479  1.00  0.00     0.111 C 
BRANCH  16  17
HETATM   17  C8  UNK     1      18.860   0.964  29.022  1.00  0.00     0.005 C 
HETATM   18  C13 UNK     1      17.822   1.987  28.589  1.00  0.00     0.005 C 
ENDBRANCH  16  17
ENDBRANCH  14  16
ENDBRANCH  13  14
ENDBRANCH   6  13
TORSDOF 4
ENDMDL
MODEL 6
REMARK VINA RESULT:      -7.0      3.193      5.784
REMARK  4 active torsions:
REMARK  status: ('A' for Active; 'I' for Inactive)
REMARK    1  A    between atoms: C12_16  and  O2_2 
REMARK    2  A    between atoms: C4_8  and  O2_2 
REMARK    3  A    between atoms: C12_16  and  C6_10 
REMARK    4  A    between atoms: C6_10  and  C8_12 
ROOT
HETATM    1  O1  UNK     1      16.564  -0.039  34.445  1.00  0.00    -0.275 OA
HETATM    2  O4  UNK     1      15.084   0.756  35.996  1.00  0.00    -0.260 OA
HETATM    3  C1  UNK     1      18.503  -1.324  35.194  1.00  0.00     0.004 A 
HETATM    4  C2  UNK     1      17.745  -0.757  34.168  1.00  0.00     0.092 A 
HETATM    5  C3  UNK     1      18.045  -1.157  36.580  1.00  0.00    -0.043 A 
HETATM    6  C4  UNK     1      19.264  -1.565  32.489  1.00  0.00     0.082 A 
HETATM    7  C5  UNK     1      19.663  -2.022  34.835  1.00  0.00     0.017 A 
HETATM    8  C7  UNK     1      18.108  -0.868  32.824  1.00  0.00     0.075 A 
HETATM    9  C9  UNK     1      20.040  -2.141  33.493  1.00  0.00     0.038 A 
HETATM   10  C10 UNK     1      16.919  -0.470  36.815  1.00  0.00     0.090 A 
HETATM   11  C11 UNK     1      18.839  -1.755  37.705  1.00  0.00     0.049 C 
HETATM   12  C14 UNK     1      16.109   0.133  35.743  1.00  0.00     0.288 A 
ENDROOT
BRANCH   6  13
HETATM   13  O2  UNK     1      19.635  -1.685  31.185  1.00  0.00    -0.279 OA
BRANCH  13  14
HETATM   14  C12 UNK     1      20.272  -0.545  30.658  1.00  0.00     0.264 C 
HETATM   15  O3  UNK     1      21.289  -0.034  31.108  1.00  0.00    -0.265 OA
BRANCH  14  16
HETATM   16  C6  UNK     1      19.505  -0.053  29.452  1.00  0.00     0.111 C 
BRANCH  16  17
HETATM   17  C8  UNK     1      18.988   1.370  29.646  1.00  0.00     0.005 C 
HETATM   18  C13 UNK     1      17.915   1.718  28.626  1.00  0.00     0.005 C 
ENDBRANCH  16  17
ENDBRANCH  14  16
ENDBRANCH  13  14
ENDBRANCH   6  13
TORSDOF 4
ENDMDL
MODEL 7
REMARK VINA RESULT:      -7.0      2.780      5.284
REMARK  4 active torsions:
REMARK  status: ('A' for Active; 'I' for Inactive)
REMARK    1  A    between atoms: C12_16  and  O2_2 
REMARK    2  A    between atoms: C4_8  and  O2_2 
REMARK    3  A    between atoms: C12_16  and  C6_10 
REMARK    4  A    between atoms: C6_10  and  C8_12 
ROOT
HETATM    1  O1  UNK     1      18.182   1.865  30.685  1.00  0.00    -0.275 OA
HETATM    2  O4  UNK     1      18.319   1.523  28.428  1.00  0.00    -0.260 OA
HETATM    3  C1  UNK     1      18.618   4.094  31.584  1.00  0.00     0.004 A 
HETATM    4  C2  UNK     1      18.286   2.752  31.775  1.00  0.00     0.092 A 
HETATM    5  C3  UNK     1      18.861   4.570  30.216  1.00  0.00    -0.043 A 
HETATM    6  C4  UNK     1      18.126   3.045  34.155  1.00  0.00     0.082 A 
HETATM    7  C5  UNK     1      18.700   4.911  32.719  1.00  0.00     0.017 A 
HETATM    8  C7  UNK     1      18.039   2.217  33.041  1.00  0.00     0.075 A 
HETATM    9  C9  UNK     1      18.456   4.390  33.995  1.00  0.00     0.038 A 
HETATM   10  C10 UNK     1      18.756   3.705  29.198  1.00  0.00     0.090 A 
HETATM   11  C11 UNK     1      19.221   6.008  29.978  1.00  0.00     0.049 C 
HETATM   12  C14 UNK     1      18.406   2.286  29.384  1.00  0.00     0.288 A 
ENDROOT
BRANCH   6  13
HETATM   13  O2  UNK     1      17.889   2.544  35.398  1.00  0.00    -0.279 OA
BRANCH  13  14
HETATM   14  C12 UNK     1      18.903   1.695  35.883  1.00  0.00     0.264 C 
HETATM   15  O3  UNK     1      20.060   2.030  36.098  1.00  0.00    -0.265 OA
BRANCH  14  16
HETATM   16  C6  UNK     1      18.338   0.309  36.096  1.00  0.00     0.111 C 
BRANCH  16  17
HETATM   17  C8  UNK     1      16.837   0.341  36.370  1.00  0.00     0.005 C 
HETATM   18  C13 UNK     1      16.048  -0.288  35.232  1.00  0.00     0.005 C 
ENDBRANCH  16  17
ENDBRANCH  14  16
ENDBRANCH  13  14
ENDBRANCH   6  13
TORSDOF 4
ENDMDL
MODEL 8
REMARK VINA RESULT:      -6.9      2.448      7.203
REMARK  4 active torsions:
REMARK  status: ('A' for Active; 'I' for Inactive)
REMARK    1  A    between atoms: C12_16  and  O2_2 
REMARK    2  A    between atoms: C4_8  and  O2_2 
REMARK    3  A    between atoms: C12_16  and  C6_10 
REMARK    4  A    between atoms: C6_10  and  C8_12 
ROOT
HETATM    1  O1  UNK     1      16.392   7.077  33.186  1.00  0.00    -0.275 OA
HETATM    2  O4  UNK     1      15.291   8.550  34.545  1.00  0.00    -0.260 OA
HETATM    3  C1  UNK     1      18.831   7.147  33.076  1.00  0.00     0.004 A 
HETATM    4  C2  UNK     1      17.614   6.593  32.678  1.00  0.00     0.092 A 
HETATM    5  C3  UNK     1      18.817   8.255  34.041  1.00  0.00    -0.043 A 
HETATM    6  C4  UNK     1      18.710   5.019  31.230  1.00  0.00     0.082 A 
HETATM    7  C5  UNK     1      20.002   6.609  32.525  1.00  0.00     0.017 A 
HETATM    8  C7  UNK     1      17.537   5.539  31.766  1.00  0.00     0.075 A 
HETATM    9  C9  UNK     1      19.940   5.552  31.610  1.00  0.00     0.038 A 
HETATM   10  C10 UNK     1      17.641   8.696  34.508  1.00  0.00     0.090 A 
HETATM   11  C11 UNK     1      20.110   8.872  34.488  1.00  0.00     0.049 C 
HETATM   12  C14 UNK     1      16.348   8.120  34.097  1.00  0.00     0.288 A 
ENDROOT
BRANCH   6  13
HETATM   13  O2  UNK     1      18.658   3.991  30.340  1.00  0.00    -0.279 OA
BRANCH  13  14
HETATM   14  C12 UNK     1      18.417   2.732  30.924  1.00  0.00     0.264 C 
HETATM   15  O3  UNK     1      17.924   2.550  32.028  1.00  0.00    -0.265 OA
BRANCH  14  16
HETATM   16  C6  UNK     1      18.862   1.643  29.972  1.00  0.00     0.111 C 
BRANCH  16  17
HETATM   17  C8  UNK     1      19.683   0.569  30.680  1.00  0.00     0.005 C 
HETATM   18  C13 UNK     1      20.460  -0.282  29.688  1.00  0.00     0.005 C 
ENDBRANCH  16  17
ENDBRANCH  14  16
ENDBRANCH  13  14
ENDBRANCH   6  13
TORSDOF 4
ENDMDL
MODEL 9
REMARK VINA RESULT:      -6.9     22.737     24.460
REMARK  4 active torsions:
REMARK  status: ('A' for Active; 'I' for Inactive)
REMARK    1  A    between atoms: C12_16  and  O2_2 
REMARK    2  A    between atoms: C4_8  and  O2_2 
REMARK    3  A    between atoms: C12_16  and  C6_10 
REMARK    4  A    between atoms: C6_10  and  C8_12 
ROOT
HETATM    1  O1  UNK     1      12.856   8.346  10.932  1.00  0.00    -0.275 OA
HETATM    2  O4  UNK     1      13.651   9.790  12.517  1.00  0.00    -0.260 OA
HETATM    3  C1  UNK     1      14.423   6.902   9.737  1.00  0.00     0.004 A 
HETATM    4  C2  UNK     1      13.122   7.350   9.971  1.00  0.00     0.092 A 
HETATM    5  C3  UNK     1      15.521   7.494  10.514  1.00  0.00    -0.043 A 
HETATM    6  C4  UNK     1      12.222   5.855   8.318  1.00  0.00     0.082 A 
HETATM    7  C5  UNK     1      14.603   5.908   8.766  1.00  0.00     0.017 A 
HETATM    8  C7  UNK     1      12.022   6.841   9.278  1.00  0.00     0.075 A 
HETATM    9  C9  UNK     1      13.510   5.389   8.063  1.00  0.00     0.038 A 
HETATM   10  C10 UNK     1      15.239   8.440  11.420  1.00  0.00     0.090 A 
HETATM   11  C11 UNK     1      16.931   7.035  10.284  1.00  0.00     0.049 C 
HETATM   12  C14 UNK     1      13.871   8.922  11.679  1.00  0.00     0.288 A 
ENDROOT
BRANCH   6  13
HETATM   13  O2  UNK     1      11.164   5.346   7.631  1.00  0.00    -0.279 OA
BRANCH  13  14
HETATM   14  C12 UNK     1      10.855   6.040   6.445  1.00  0.00     0.264 C 
HETATM   15  O3  UNK     1      11.675   6.546   5.691  1.00  0.00    -0.265 OA
BRANCH  14  16
HETATM   16  C6  UNK     1       9.356   6.062   6.251  1.00  0.00     0.111 C 
BRANCH  16  17
HETATM   17  C8  UNK     1       8.608   5.856   7.565  1.00  0.00     0.005 C 
HETATM   18  C13 UNK     1       8.056   7.167   8.104  1.00  0.00     0.005 C 
ENDBRANCH  16  17
ENDBRANCH  14  16
ENDBRANCH  13  14
ENDBRANCH   6  13
TORSDOF 4
ENDMDL
MODEL 10
REMARK VINA RESULT:      -6.9     23.076     24.641
REMARK  4 active torsions:
REMARK  status: ('A' for Active; 'I' for Inactive)
REMARK    1  A    between atoms: C12_16  and  O2_2 
REMARK    2  A    between atoms: C4_8  and  O2_2 
REMARK    3  A    between atoms: C12_16  and  C6_10 
REMARK    4  A    between atoms: C6_10  and  C8_12 
ROOT
HETATM    1  O1  UNK     1      15.560   5.421   8.666  1.00  0.00    -0.275 OA
HETATM    2  O4  UNK     1      17.781   5.410   9.207  1.00  0.00    -0.260 OA
HETATM    3  C1  UNK     1      14.073   7.027   9.752  1.00  0.00     0.004 A 
HETATM    4  C2  UNK     1      14.279   5.978   8.855  1.00  0.00     0.092 A 
HETATM    5  C3  UNK     1      15.224   7.544  10.505  1.00  0.00    -0.043 A 
HETATM    6  C4  UNK     1      11.955   5.938   8.242  1.00  0.00     0.082 A 
HETATM    7  C5  UNK     1      12.771   7.526   9.881  1.00  0.00     0.017 A 
HETATM    8  C7  UNK     1      13.242   5.428   8.099  1.00  0.00     0.075 A 
HETATM    9  C9  UNK     1      11.720   6.985   9.131  1.00  0.00     0.038 A 
HETATM   10  C10 UNK     1      16.431   6.994  10.307  1.00  0.00     0.090 A 
HETATM   11  C11 UNK     1      15.036   8.670  11.478  1.00  0.00     0.049 C 
HETATM   12  C14 UNK     1      16.663   5.888   9.363  1.00  0.00     0.288 A 
ENDROOT
BRANCH   6  13
HETATM   13  O2  UNK     1      10.930   5.417   7.515  1.00  0.00    -0.279 OA
BRANCH  13  14
HETATM   14  C12 UNK     1      10.549   6.200   6.408  1.00  0.00     0.264 C 
HETATM   15  O3  UNK     1      11.321   6.777   5.654  1.00  0.00    -0.265 OA
BRANCH  14  16
HETATM   16  C6  UNK     1       9.041   6.216   6.298  1.00  0.00     0.111 C 
BRANCH  16  17
HETATM   17  C8  UNK     1       8.369   5.953   7.643  1.00  0.00     0.005 C 
HETATM   18  C13 UNK     1       7.898   7.244   8.294  1.00  0.00     0.005 C 
ENDBRANCH  16  17
ENDBRANCH  14  16
ENDBRANCH  13  14
ENDBRANCH   6  13
TORSDOF 4
ENDMDL
