MODEL 1
REMARK VINA RESULT:      -8.8      0.000      0.000
REMARK  4 active torsions:
REMARK  status: ('A' for Active; 'I' for Inactive)
REMARK    1  A    between atoms: C8_14  and  O2_2 
REMARK    2  A    between atoms: C12_18  and  O3_3 
REMARK    3  A    between atoms: C10_16  and  N1_6 
REMARK       I    between atoms: C7_13  and  N1_6 
REMARK    4  A    between atoms: C3_9  and  C7_13 
ROOT
HETATM    1  O1  UNK     1      19.170   6.509  31.138  1.00  0.00    -0.274 OA
HETATM    2  O5  UNK     1      19.708   4.982  29.525  1.00  0.00    -0.259 OA
HETATM    3  C1  UNK     1      17.796   5.828  33.025  1.00  0.00    -0.001 A 
HETATM    4  C2  UNK     1      18.512   6.810  32.346  1.00  0.00     0.092 A 
HETATM    5  C3  UNK     1      18.365   4.207  31.317  1.00  0.00     0.108 A 
HETATM    6  C4  UNK     1      17.738   4.486  32.465  1.00  0.00     0.037 A 
HETATM    7  C5  UNK     1      17.156   6.166  34.220  1.00  0.00     0.017 A 
HETATM    8  C6  UNK     1      18.607   8.113  32.828  1.00  0.00     0.075 A 
HETATM    9  C8  UNK     1      17.967   8.441  34.021  1.00  0.00     0.070 A 
HETATM   10  C9  UNK     1      19.132   5.235  30.578  1.00  0.00     0.304 A 
HETATM   11  C11 UNK     1      17.243   7.470  34.716  1.00  0.00     0.038 A 
ENDROOT
BRANCH   5  12
HETATM   12  C7  UNK     1      18.248   2.826  30.833  1.00  0.00     0.262 C 
HETATM   13  O4  UNK     1      17.175   2.427  30.379  1.00  0.00    -0.267 OA
HETATM   14  N1  UNK     1      19.435   2.121  30.966  1.00  0.00    -0.320 N 
HETATM   15  H5  UNK     1      20.233   2.591  31.388  1.00  0.00     0.169 HD
BRANCH  14  16
HETATM   16  C10 UNK     1      19.686   0.775  30.607  1.00  0.00     0.068 A 
HETATM   17  C12 UNK     1      19.530  -0.233  31.545  1.00  0.00     0.095 A 
HETATM   18  C14 UNK     1      19.780  -1.554  31.175  1.00  0.00     0.039 A 
HETATM   19  C16 UNK     1      20.183  -1.850  29.873  1.00  0.00     0.003 A 
HETATM   20  C15 UNK     1      20.336  -0.825  28.940  1.00  0.00     0.002 A 
HETATM   21  C13 UNK     1      20.086   0.497  29.309  1.00  0.00     0.032 A 
BRANCH  17  22
HETATM   22  O3  UNK     1      19.139   0.035  32.823  1.00  0.00    -0.354 OA
HETATM   23  C18 UNK     1      18.696  -1.068  33.610  1.00  0.00     0.210 C 
ENDBRANCH  17  22
ENDBRANCH  14  16
ENDBRANCH   5  12
BRANCH   9  24
HETATM   24  O2  UNK     1      18.047   9.708  34.510  1.00  0.00    -0.356 OA
HETATM   25  C17 UNK     1      16.988  10.603  34.172  1.00  0.00     0.210 C 
ENDBRANCH   9  24
TORSDOF 4
ENDMDL
MODEL 2
REMARK VINA RESULT:      -8.7     14.733     19.085
REMARK  4 active torsions:
REMARK  status: ('A' for Active; 'I' for Inactive)
REMARK    1  A    between atoms: C8_14  and  O2_2 
REMARK    2  A    between atoms: C12_18  and  O3_3 
REMARK    3  A    between atoms: C10_16  and  N1_6 
REMARK       I    between atoms: C7_13  and  N1_6 
REMARK    4  A    between atoms: C3_9  and  C7_13 
ROOT
HETATM    1  O1  UNK     1      19.462  -2.052  13.056  1.00  0.00    -0.274 OA
HETATM    2  O5  UNK     1      19.427  -0.140  14.308  1.00  0.00    -0.259 OA
HETATM    3  C1  UNK     1      18.577  -4.114  13.990  1.00  0.00    -0.001 A 
HETATM    4  C2  UNK     1      19.171  -3.425  12.938  1.00  0.00     0.092 A 
HETATM    5  C3  UNK     1      18.539  -2.089  15.320  1.00  0.00     0.108 A 
HETATM    6  C4  UNK     1      18.260  -3.394  15.215  1.00  0.00     0.037 A 
HETATM    7  C5  UNK     1      18.306  -5.476  13.836  1.00  0.00     0.017 A 
HETATM    8  C6  UNK     1      19.500  -4.056  11.741  1.00  0.00     0.075 A 
HETATM    9  C8  UNK     1      19.225  -5.414  11.594  1.00  0.00     0.070 A 
HETATM   10  C9  UNK     1      19.170  -1.336  14.214  1.00  0.00     0.304 A 
HETATM   11  C11 UNK     1      18.629  -6.122  12.640  1.00  0.00     0.038 A 
ENDROOT
BRANCH   5  12
HETATM   12  C7  UNK     1      18.182  -1.451  16.593  1.00  0.00     0.262 C 
HETATM   13  O4  UNK     1      17.080  -1.667  17.096  1.00  0.00    -0.267 OA
HETATM   14  N1  UNK     1      19.200  -0.642  17.078  1.00  0.00    -0.320 N 
HETATM   15  H5  UNK     1      20.049  -0.549  16.525  1.00  0.00     0.169 HD
BRANCH  14  16
HETATM   16  C10 UNK     1      19.204   0.122  18.269  1.00  0.00     0.068 A 
HETATM   17  C12 UNK     1      18.959   1.485  18.219  1.00  0.00     0.095 A 
HETATM   18  C14 UNK     1      18.965   2.223  19.402  1.00  0.00     0.039 A 
HETATM   19  C16 UNK     1      19.215   1.589  20.619  1.00  0.00     0.003 A 
HETATM   20  C15 UNK     1      19.460   0.217  20.654  1.00  0.00     0.002 A 
HETATM   21  C13 UNK     1      19.454  -0.522  19.471  1.00  0.00     0.032 A 
BRANCH  17  22
HETATM   22  O3  UNK     1      18.713   2.123  17.040  1.00  0.00    -0.354 OA
HETATM   23  C18 UNK     1      19.569   3.213  16.702  1.00  0.00     0.210 C 
ENDBRANCH  17  22
ENDBRANCH  14  16
ENDBRANCH   5  12
BRANCH   9  24
HETATM   24  O2  UNK     1      19.537  -6.050  10.433  1.00  0.00    -0.356 OA
HETATM   25  C17 UNK     1      18.522  -6.863   9.845  1.00  0.00     0.210 C 
ENDBRANCH   9  24
TORSDOF 4
ENDMDL
MODEL 3
REMARK VINA RESULT:      -8.4      5.696      8.914
REMARK  4 active torsions:
REMARK  status: ('A' for Active; 'I' for Inactive)
REMARK    1  A    between atoms: C8_14  and  O2_2 
REMARK    2  A    between atoms: C12_18  and  O3_3 
REMARK    3  A    between atoms: C10_16  and  N1_6 
REMARK       I    between atoms: C7_13  and  N1_6 
REMARK    4  A    between atoms: C3_9  and  C7_13 
ROOT
HETATM    1  O1  UNK     1      18.701  -0.254  33.743  1.00  0.00    -0.274 OA
HETATM    2  O5  UNK     1      18.223  -0.491  35.966  1.00  0.00    -0.259 OA
HETATM    3  C1  UNK     1      20.106  -1.901  32.637  1.00  0.00    -0.001 A 
HETATM    4  C2  UNK     1      19.349  -0.735  32.589  1.00  0.00     0.092 A 
HETATM    5  C3  UNK     1      19.601  -2.155  34.993  1.00  0.00     0.108 A 
HETATM    6  C4  UNK     1      20.219  -2.616  33.899  1.00  0.00     0.037 A 
HETATM    7  C5  UNK     1      20.735  -2.345  31.471  1.00  0.00     0.017 A 
HETATM    8  C6  UNK     1      19.202  -0.003  31.412  1.00  0.00     0.075 A 
HETATM    9  C8  UNK     1      19.831  -0.453  30.254  1.00  0.00     0.070 A 
HETATM   10  C9  UNK     1      18.790  -0.916  34.965  1.00  0.00     0.304 A 
HETATM   11  C11 UNK     1      20.596  -1.622  30.283  1.00  0.00     0.038 A 
ENDROOT
BRANCH   5  12
HETATM   12  C7  UNK     1      19.774  -2.945  36.217  1.00  0.00     0.262 C 
HETATM   13  O4  UNK     1      19.950  -2.373  37.293  1.00  0.00    -0.267 OA
HETATM   14  N1  UNK     1      19.712  -4.310  35.974  1.00  0.00    -0.320 N 
HETATM   15  H5  UNK     1      19.583  -4.626  35.016  1.00  0.00     0.169 HD
BRANCH  14  16
HETATM   16  C10 UNK     1      19.837  -5.362  36.913  1.00  0.00     0.068 A 
HETATM   17  C12 UNK     1      18.837  -6.313  37.026  1.00  0.00     0.095 A 
HETATM   18  C14 UNK     1      18.975  -7.344  37.955  1.00  0.00     0.039 A 
HETATM   19  C16 UNK     1      20.113  -7.409  38.759  1.00  0.00     0.003 A 
HETATM   20  C15 UNK     1      21.112  -6.444  38.635  1.00  0.00     0.002 A 
HETATM   21  C13 UNK     1      20.974  -5.413  37.706  1.00  0.00     0.032 A 
BRANCH  17  22
HETATM   22  O3  UNK     1      17.717  -6.266  36.250  1.00  0.00    -0.354 OA
HETATM   23  C18 UNK     1      17.442  -7.406  35.438  1.00  0.00     0.210 C 
ENDBRANCH  17  22
ENDBRANCH  14  16
ENDBRANCH   5  12
BRANCH   9  24
HETATM   24  O2  UNK     1      19.701   0.245  29.094  1.00  0.00    -0.356 OA
HETATM   25  C17 UNK     1      18.637   1.193  29.022  1.00  0.00     0.210 C 
ENDBRANCH   9  24
TORSDOF 4
ENDMDL
MODEL 4
REMARK VINA RESULT:      -8.3      5.868      9.034
REMARK  4 active torsions:
REMARK  status: ('A' for Active; 'I' for Inactive)
REMARK    1  A    between atoms: C8_14  and  O2_2 
REMARK    2  A    between atoms: C12_18  and  O3_3 
REMARK    3  A    between atoms: C10_16  and  N1_6 
REMARK       I    between atoms: C7_13  and  N1_6 
REMARK    4  A    between atoms: C3_9  and  C7_13 
ROOT
HETATM    1  O1  UNK     1      19.618  -1.423  34.621  1.00  0.00    -0.274 OA
HETATM    2  O5  UNK     1      20.632  -3.421  34.170  1.00  0.00    -0.259 OA
HETATM    3  C1  UNK     1      18.689  -1.021  36.831  1.00  0.00    -0.001 A 
HETATM    4  C2  UNK     1      18.945  -0.588  35.534  1.00  0.00     0.092 A 
HETATM    5  C3  UNK     1      19.764  -3.140  36.357  1.00  0.00     0.108 A 
HETATM    6  C4  UNK     1      19.126  -2.351  37.229  1.00  0.00     0.037 A 
HETATM    7  C5  UNK     1      18.018  -0.165  37.708  1.00  0.00     0.017 A 
HETATM    8  C6  UNK     1      18.553   0.672  35.091  1.00  0.00     0.075 A 
HETATM    9  C8  UNK     1      17.886   1.521  35.971  1.00  0.00     0.070 A 
HETATM   10  C9  UNK     1      20.048  -2.700  34.972  1.00  0.00     0.304 A 
HETATM   11  C11 UNK     1      17.619   1.104  37.277  1.00  0.00     0.038 A 
ENDROOT
BRANCH   5  12
HETATM   12  C7  UNK     1      20.165  -4.463  36.851  1.00  0.00     0.262 C 
HETATM   13  O4  UNK     1      21.345  -4.678  37.129  1.00  0.00    -0.267 OA
HETATM   14  N1  UNK     1      19.092  -5.338  36.939  1.00  0.00    -0.320 N 
HETATM   15  H5  UNK     1      18.175  -5.010  36.645  1.00  0.00     0.169 HD
BRANCH  14  16
HETATM   16  C10 UNK     1      19.109  -6.686  37.371  1.00  0.00     0.068 A 
HETATM   17  C12 UNK     1      18.661  -7.690  36.528  1.00  0.00     0.095 A 
HETATM   18  C14 UNK     1      18.685  -9.012  36.969  1.00  0.00     0.039 A 
HETATM   19  C16 UNK     1      19.157  -9.313  38.247  1.00  0.00     0.003 A 
HETATM   20  C15 UNK     1      19.604  -8.293  39.084  1.00  0.00     0.002 A 
HETATM   21  C13 UNK     1      19.580  -6.969  38.644  1.00  0.00     0.032 A 
BRANCH  17  22
HETATM   22  O3  UNK     1      18.196  -7.415  35.277  1.00  0.00    -0.354 OA
HETATM   23  C18 UNK     1      16.790  -7.536  35.067  1.00  0.00     0.210 C 
ENDBRANCH  17  22
ENDBRANCH  14  16
ENDBRANCH   5  12
BRANCH   9  24
HETATM   24  O2  UNK     1      17.495   2.757  35.560  1.00  0.00    -0.356 OA
HETATM   25  C17 UNK     1      18.169   3.309  34.430  1.00  0.00     0.210 C 
ENDBRANCH   9  24
TORSDOF 4
ENDMDL
MODEL 5
REMARK VINA RESULT:      -8.2     14.864     17.750
REMARK  4 active torsions:
REMARK  status: ('A' for Active; 'I' for Inactive)
REMARK    1  A    between atoms: C8_14  and  O2_2 
REMARK    2  A    between atoms: C12_18  and  O3_3 
REMARK    3  A    between atoms: C10_16  and  N1_6 
REMARK       I    between atoms: C7_13  and  N1_6 
REMARK    4  A    between atoms: C3_9  and  C7_13 
ROOT
HETATM    1  O1  UNK     1      19.310   0.732  15.137  1.00  0.00    -0.274 OA
HETATM    2  O5  UNK     1      19.226  -0.668  13.333  1.00  0.00    -0.259 OA
HETATM    3  C1  UNK     1      18.892  -0.152  17.363  1.00  0.00    -0.001 A 
HETATM    4  C2  UNK     1      19.196   0.919  16.529  1.00  0.00     0.092 A 
HETATM    5  C3  UNK     1      18.802  -1.639  15.452  1.00  0.00     0.108 A 
HETATM    6  C4  UNK     1      18.692  -1.469  16.775  1.00  0.00     0.037 A 
HETATM    7  C5  UNK     1      18.786   0.073  18.738  1.00  0.00     0.017 A 
HETATM    8  C6  UNK     1      19.398   2.203  17.029  1.00  0.00     0.075 A 
HETATM    9  C8  UNK     1      19.292   2.419  18.401  1.00  0.00     0.070 A 
HETATM   10  C9  UNK     1      19.125  -0.514  14.546  1.00  0.00     0.304 A 
HETATM   11  C11 UNK     1      18.987   1.356  19.254  1.00  0.00     0.038 A 
ENDROOT
BRANCH   5  12
HETATM   12  C7  UNK     1      18.584  -3.003  14.954  1.00  0.00     0.262 C 
HETATM   13  O4  UNK     1      17.533  -3.587  15.215  1.00  0.00    -0.267 OA
HETATM   14  N1  UNK     1      19.661  -3.470  14.215  1.00  0.00    -0.320 N 
HETATM   15  H5  UNK     1      20.474  -2.867  14.109  1.00  0.00     0.169 HD
BRANCH  14  16
HETATM   16  C10 UNK     1      19.797  -4.732  13.588  1.00  0.00     0.068 A 
HETATM   17  C12 UNK     1      19.233  -4.951  12.342  1.00  0.00     0.095 A 
HETATM   18  C14 UNK     1      19.376  -6.199  11.737  1.00  0.00     0.039 A 
HETATM   19  C16 UNK     1      20.083  -7.211  12.386  1.00  0.00     0.003 A 
HETATM   20  C15 UNK     1      20.645  -6.976  13.640  1.00  0.00     0.002 A 
HETATM   21  C13 UNK     1      20.502  -5.728  14.246  1.00  0.00     0.032 A 
BRANCH  17  22
HETATM   22  O3  UNK     1      18.538  -3.975  11.692  1.00  0.00    -0.354 OA
HETATM   23  C18 UNK     1      19.189  -3.335  10.596  1.00  0.00     0.210 C 
ENDBRANCH  17  22
ENDBRANCH  14  16
ENDBRANCH   5  12
BRANCH   9  24
HETATM   24  O2  UNK     1      19.486   3.665  18.910  1.00  0.00    -0.356 OA
HETATM   25  C17 UNK     1      20.681   4.344  18.529  1.00  0.00     0.210 C 
ENDBRANCH   9  24
TORSDOF 4
ENDMDL
MODEL 6
REMARK VINA RESULT:      -8.2     14.933     19.129
REMARK  4 active torsions:
REMARK  status: ('A' for Active; 'I' for Inactive)
REMARK    1  A    between atoms: C8_14  and  O2_2 
REMARK    2  A    between atoms: C12_18  and  O3_3 
REMARK    3  A    between atoms: C10_16  and  N1_6 
REMARK       I    between atoms: C7_13  and  N1_6 
REMARK    4  A    between atoms: C3_9  and  C7_13 
ROOT
HETATM    1  O1  UNK     1      18.552  -4.218  13.770  1.00  0.00    -0.274 OA
HETATM    2  O5  UNK     1      17.504  -4.366  15.796  1.00  0.00    -0.259 OA
HETATM    3  C1  UNK     1      19.620  -2.132  13.122  1.00  0.00    -0.001 A 
HETATM    4  C2  UNK     1      19.283  -3.453  12.840  1.00  0.00     0.092 A 
HETATM    5  C3  UNK     1      18.511  -2.287  15.270  1.00  0.00     0.108 A 
HETATM    6  C4  UNK     1      19.205  -1.555  14.391  1.00  0.00     0.037 A 
HETATM    7  C5  UNK     1      20.345  -1.405  12.174  1.00  0.00     0.017 A 
HETATM    8  C6  UNK     1      19.649  -4.064  11.644  1.00  0.00     0.075 A 
HETATM    9  C8  UNK     1      20.373  -3.333  10.705  1.00  0.00     0.070 A 
HETATM   10  C9  UNK     1      18.141  -3.693  14.992  1.00  0.00     0.304 A 
HETATM   11  C11 UNK     1      20.720  -2.006  10.969  1.00  0.00     0.038 A 
ENDROOT
BRANCH   5  12
HETATM   12  C7  UNK     1      18.138  -1.617  16.521  1.00  0.00     0.262 C 
HETATM   13  O4  UNK     1      17.036  -1.834  17.025  1.00  0.00    -0.267 OA
HETATM   14  N1  UNK     1      19.142  -0.780  16.988  1.00  0.00    -0.320 N 
HETATM   15  H5  UNK     1      19.993  -0.690  16.437  1.00  0.00     0.169 HD
BRANCH  14  16
HETATM   16  C10 UNK     1      19.128   0.019  18.156  1.00  0.00     0.068 A 
HETATM   17  C12 UNK     1      18.928   1.387  18.059  1.00  0.00     0.095 A 
HETATM   18  C14 UNK     1      18.916   2.160  19.219  1.00  0.00     0.039 A 
HETATM   19  C16 UNK     1      19.103   1.554  20.462  1.00  0.00     0.003 A 
HETATM   20  C15 UNK     1      19.303   0.177  20.545  1.00  0.00     0.002 A 
HETATM   21  C13 UNK     1      19.316  -0.597  19.384  1.00  0.00     0.032 A 
BRANCH  17  22
HETATM   22  O3  UNK     1      18.744   1.997  16.853  1.00  0.00    -0.354 OA
HETATM   23  C18 UNK     1      19.560   3.131  16.570  1.00  0.00     0.210 C 
ENDBRANCH  17  22
ENDBRANCH  14  16
ENDBRANCH   5  12
BRANCH   9  24
HETATM   24  O2  UNK     1      20.742  -3.911   9.530  1.00  0.00    -0.356 OA
HETATM   25  C17 UNK     1      21.944  -3.438   8.923  1.00  0.00     0.210 C 
ENDBRANCH   9  24
TORSDOF 4
ENDMDL
MODEL 7
REMARK VINA RESULT:      -8.1      5.518      9.465
REMARK  4 active torsions:
REMARK  status: ('A' for Active; 'I' for Inactive)
REMARK    1  A    between atoms: C8_14  and  O2_2 
REMARK    2  A    between atoms: C12_18  and  O3_3 
REMARK    3  A    between atoms: C10_16  and  N1_6 
REMARK       I    between atoms: C7_13  and  N1_6 
REMARK    4  A    between atoms: C3_9  and  C7_13 
ROOT
HETATM    1  O1  UNK     1      18.588  -1.012  35.419  1.00  0.00    -0.274 OA
HETATM    2  O5  UNK     1      18.587  -2.015  37.472  1.00  0.00    -0.259 OA
HETATM    3  C1  UNK     1      19.834  -2.021  33.591  1.00  0.00    -0.001 A 
HETATM    4  C2  UNK     1      19.015  -1.007  34.076  1.00  0.00     0.092 A 
HETATM    5  C3  UNK     1      19.835  -3.087  35.767  1.00  0.00     0.108 A 
HETATM    6  C4  UNK     1      20.244  -3.088  34.493  1.00  0.00     0.037 A 
HETATM    7  C5  UNK     1      20.237  -1.980  32.254  1.00  0.00     0.017 A 
HETATM    8  C6  UNK     1      18.588   0.042  33.266  1.00  0.00     0.075 A 
HETATM    9  C8  UNK     1      18.993   0.075  31.933  1.00  0.00     0.070 A 
HETATM   10  C9  UNK     1      18.963  -2.019  36.305  1.00  0.00     0.304 A 
HETATM   11  C11 UNK     1      19.816  -0.934  31.428  1.00  0.00     0.038 A 
ENDROOT
BRANCH   5  12
HETATM   12  C7  UNK     1      20.300  -4.204  36.598  1.00  0.00     0.262 C 
HETATM   13  O4  UNK     1      21.446  -4.194  37.047  1.00  0.00    -0.267 OA
HETATM   14  N1  UNK     1      19.323  -5.175  36.767  1.00  0.00    -0.320 N 
HETATM   15  H5  UNK     1      18.426  -5.045  36.306  1.00  0.00     0.169 HD
BRANCH  14  16
HETATM   16  C10 UNK     1      19.421  -6.381  37.502  1.00  0.00     0.068 A 
HETATM   17  C12 UNK     1      19.089  -7.585  36.904  1.00  0.00     0.095 A 
HETATM   18  C14 UNK     1      19.192  -8.765  37.640  1.00  0.00     0.039 A 
HETATM   19  C16 UNK     1      19.626  -8.724  38.965  1.00  0.00     0.003 A 
HETATM   20  C15 UNK     1      19.957  -7.505  39.554  1.00  0.00     0.002 A 
HETATM   21  C13 UNK     1      19.854  -6.324  38.818  1.00  0.00     0.032 A 
BRANCH  17  22
HETATM   22  O3  UNK     1      18.662  -7.646  35.610  1.00  0.00    -0.354 OA
HETATM   23  C18 UNK     1      17.257  -7.546  35.387  1.00  0.00     0.210 C 
ENDBRANCH  17  22
ENDBRANCH  14  16
ENDBRANCH   5  12
BRANCH   9  24
HETATM   24  O2  UNK     1      18.587   1.090  31.124  1.00  0.00    -0.356 OA
HETATM   25  C17 UNK     1      19.163   1.150  29.819  1.00  0.00     0.210 C 
ENDBRANCH   9  24
TORSDOF 4
ENDMDL
MODEL 8
REMARK VINA RESULT:      -8.1      6.616     12.530
REMARK  4 active torsions:
REMARK  status: ('A' for Active; 'I' for Inactive)
REMARK    1  A    between atoms: C8_14  and  O2_2 
REMARK    2  A    between atoms: C12_18  and  O3_3 
REMARK    3  A    between atoms: C10_16  and  N1_6 
REMARK       I    between atoms: C7_13  and  N1_6 
REMARK    4  A    between atoms: C3_9  and  C7_13 
ROOT
HETATM    1  O1  UNK     1      20.628  -6.576  35.335  1.00  0.00    -0.274 OA
HETATM    2  O5  UNK     1      20.294  -4.476  34.499  1.00  0.00    -0.259 OA
HETATM    3  C1  UNK     1      20.464  -6.954  37.731  1.00  0.00    -0.001 A 
HETATM    4  C2  UNK     1      20.689  -7.439  36.447  1.00  0.00     0.092 A 
HETATM    5  C3  UNK     1      20.108  -4.726  36.847  1.00  0.00     0.108 A 
HETATM    6  C4  UNK     1      20.164  -5.541  37.908  1.00  0.00     0.037 A 
HETATM    7  C5  UNK     1      20.534  -7.840  38.808  1.00  0.00     0.017 A 
HETATM    8  C6  UNK     1      20.981  -8.780  36.210  1.00  0.00     0.075 A 
HETATM    9  C8  UNK     1      21.047  -9.658  37.290  1.00  0.00     0.070 A 
HETATM   10  C9  UNK     1      20.345  -5.220  35.472  1.00  0.00     0.304 A 
HETATM   11  C11 UNK     1      20.824  -9.190  38.586  1.00  0.00     0.038 A 
ENDROOT
BRANCH   5  12
HETATM   12  C7  UNK     1      19.800  -3.318  37.127  1.00  0.00     0.262 C 
HETATM   13  O4  UNK     1      20.379  -2.738  38.044  1.00  0.00    -0.267 OA
HETATM   14  N1  UNK     1      18.838  -2.811  36.264  1.00  0.00    -0.320 N 
HETATM   15  H5  UNK     1      18.436  -3.433  35.567  1.00  0.00     0.169 HD
BRANCH  14  16
HETATM   16  C10 UNK     1      18.302  -1.501  36.243  1.00  0.00     0.068 A 
HETATM   17  C12 UNK     1      18.574  -0.658  35.178  1.00  0.00     0.095 A 
HETATM   18  C14 UNK     1      18.037   0.628  35.171  1.00  0.00     0.039 A 
HETATM   19  C16 UNK     1      17.234   1.055  36.229  1.00  0.00     0.003 A 
HETATM   20  C15 UNK     1      16.969   0.196  37.294  1.00  0.00     0.002 A 
HETATM   21  C13 UNK     1      17.506  -1.092  37.302  1.00  0.00     0.032 A 
BRANCH  17  22
HETATM   22  O3  UNK     1      19.357  -1.056  34.135  1.00  0.00    -0.354 OA
HETATM   23  C18 UNK     1      18.729  -1.167  32.859  1.00  0.00     0.210 C 
ENDBRANCH  17  22
ENDBRANCH  14  16
ENDBRANCH   5  12
BRANCH   9  24
HETATM   24  O2  UNK     1      21.330 -10.972  37.081  1.00  0.00    -0.356 OA
HETATM   25  C17 UNK     1      22.256 -11.281  36.041  1.00  0.00     0.210 C 
ENDBRANCH   9  24
TORSDOF 4
ENDMDL
MODEL 9
REMARK VINA RESULT:      -8.0      2.012      8.193
REMARK  4 active torsions:
REMARK  status: ('A' for Active; 'I' for Inactive)
REMARK    1  A    between atoms: C8_14  and  O2_2 
REMARK    2  A    between atoms: C12_18  and  O3_3 
REMARK    3  A    between atoms: C10_16  and  N1_6 
REMARK       I    between atoms: C7_13  and  N1_6 
REMARK    4  A    between atoms: C3_9  and  C7_13 
ROOT
HETATM    1  O1  UNK     1      18.696   1.219  32.647  1.00  0.00    -0.274 OA
HETATM    2  O5  UNK     1      17.953   3.060  33.781  1.00  0.00    -0.259 OA
HETATM    3  C1  UNK     1      19.251   1.408  30.288  1.00  0.00    -0.001 A 
HETATM    4  C2  UNK     1      19.145   0.641  31.444  1.00  0.00     0.092 A 
HETATM    5  C3  UNK     1      18.465   3.360  31.487  1.00  0.00     0.108 A 
HETATM    6  C4  UNK     1      18.891   2.817  30.341  1.00  0.00     0.037 A 
HETATM    7  C5  UNK     1      19.699   0.798  29.113  1.00  0.00     0.017 A 
HETATM    8  C6  UNK     1      19.474  -0.712  31.459  1.00  0.00     0.075 A 
HETATM    9  C8  UNK     1      19.921  -1.313  30.285  1.00  0.00     0.070 A 
HETATM   10  C9  UNK     1      18.344   2.564  32.729  1.00  0.00     0.304 A 
HETATM   11  C11 UNK     1      20.034  -0.559  29.114  1.00  0.00     0.038 A 
ENDROOT
BRANCH   5  12
HETATM   12  C7  UNK     1      18.125   4.788  31.441  1.00  0.00     0.262 C 
HETATM   13  O4  UNK     1      18.634   5.508  30.583  1.00  0.00    -0.267 OA
HETATM   14  N1  UNK     1      17.223   5.145  32.434  1.00  0.00    -0.320 N 
HETATM   15  H5  UNK     1      16.913   4.429  33.086  1.00  0.00     0.169 HD
BRANCH  14  16
HETATM   16  C10 UNK     1      16.680   6.427  32.687  1.00  0.00     0.068 A 
HETATM   17  C12 UNK     1      17.320   7.291  33.561  1.00  0.00     0.095 A 
HETATM   18  C14 UNK     1      16.773   8.550  33.799  1.00  0.00     0.039 A 
HETATM   19  C16 UNK     1      15.592   8.930  33.160  1.00  0.00     0.003 A 
HETATM   20  C15 UNK     1      14.959   8.050  32.283  1.00  0.00     0.002 A 
HETATM   21  C13 UNK     1      15.506   6.789  32.045  1.00  0.00     0.032 A 
BRANCH  17  22
HETATM   22  O3  UNK     1      18.474   6.938  34.196  1.00  0.00    -0.354 OA
HETATM   23  C18 UNK     1      19.688   7.483  33.684  1.00  0.00     0.210 C 
ENDBRANCH  17  22
ENDBRANCH  14  16
ENDBRANCH   5  12
BRANCH   9  24
HETATM   24  O2  UNK     1      20.249  -2.633  30.277  1.00  0.00    -0.356 OA
HETATM   25  C17 UNK     1      20.885  -3.151  31.445  1.00  0.00     0.210 C 
ENDBRANCH   9  24
TORSDOF 4
ENDMDL
MODEL 10
REMARK VINA RESULT:      -7.9      2.739      8.008
REMARK  4 active torsions:
REMARK  status: ('A' for Active; 'I' for Inactive)
REMARK    1  A    between atoms: C8_14  and  O2_2 
REMARK    2  A    between atoms: C12_18  and  O3_3 
REMARK    3  A    between atoms: C10_16  and  N1_6 
REMARK       I    between atoms: C7_13  and  N1_6 
REMARK    4  A    between atoms: C3_9  and  C7_13 
ROOT
HETATM    1  O1  UNK     1      18.213   0.743  33.065  1.00  0.00    -0.274 OA
HETATM    2  O5  UNK     1      18.306   2.200  31.306  1.00  0.00    -0.259 OA
HETATM    3  C1  UNK     1      18.165   1.608  35.337  1.00  0.00    -0.001 A 
HETATM    4  C2  UNK     1      18.164   0.530  34.457  1.00  0.00     0.092 A 
HETATM    5  C3  UNK     1      18.264   3.154  33.474  1.00  0.00     0.108 A 
HETATM    6  C4  UNK     1      18.217   2.958  34.797  1.00  0.00     0.037 A 
HETATM    7  C5  UNK     1      18.117   1.356  36.710  1.00  0.00     0.017 A 
HETATM    8  C6  UNK     1      18.116  -0.786  34.909  1.00  0.00     0.075 A 
HETATM    9  C8  UNK     1      18.067  -1.029  36.279  1.00  0.00     0.070 A 
HETATM   10  C9  UNK     1      18.264   2.023  32.519  1.00  0.00     0.304 A 
HETATM   11  C11 UNK     1      18.067   0.040  37.179  1.00  0.00     0.038 A 
ENDROOT
BRANCH   5  12
HETATM   12  C7  UNK     1      18.314   4.551  33.027  1.00  0.00     0.262 C 
HETATM   13  O4  UNK     1      18.436   4.804  31.828  1.00  0.00    -0.267 OA
HETATM   14  N1  UNK     1      18.213   5.445  34.083  1.00  0.00    -0.320 N 
HETATM   15  H5  UNK     1      18.142   5.072  35.027  1.00  0.00     0.169 HD
BRANCH  14  16
HETATM   16  C10 UNK     1      18.227   6.859  34.024  1.00  0.00     0.068 A 
HETATM   17  C12 UNK     1      17.074   7.549  33.686  1.00  0.00     0.095 A 
HETATM   18  C14 UNK     1      17.103   8.942  33.633  1.00  0.00     0.039 A 
HETATM   19  C16 UNK     1      18.284   9.627  33.918  1.00  0.00     0.003 A 
HETATM   20  C15 UNK     1      19.437   8.919  34.256  1.00  0.00     0.002 A 
HETATM   21  C13 UNK     1      19.409   7.525  34.310  1.00  0.00     0.032 A 
BRANCH  17  22
HETATM   22  O3  UNK     1      15.910   6.898  33.403  1.00  0.00    -0.354 OA
HETATM   23  C18 UNK     1      15.324   7.145  32.126  1.00  0.00     0.210 C 
ENDBRANCH  17  22
ENDBRANCH  14  16
ENDBRANCH   5  12
BRANCH   9  24
HETATM   24  O2  UNK     1      18.019  -2.307  36.743  1.00  0.00    -0.356 OA
HETATM   25  C17 UNK     1      19.236  -3.052  36.722  1.00  0.00     0.210 C 
ENDBRANCH   9  24
TORSDOF 4
ENDMDL
