MODEL 1
REMARK VINA RESULT:      -9.2      0.000      0.000
REMARK  2 active torsions:
REMARK  status: ('A' for Active; 'I' for Inactive)
REMARK    1  A    between atoms: C7_12  and  O4_4 
REMARK    2  A    between atoms: C1_6  and  C2_7 
ROOT
HETATM    1  O1  UNK     1      19.514   1.462  31.285  1.00  0.00    -0.306 OA
HETATM    2  O5  UNK     1      18.740   0.049  27.542  1.00  0.00    -0.284 OA
HETATM    3  C2  UNK     1      18.946   2.268  30.311  1.00  0.00     0.123 A 
HETATM    4  C3  UNK     1      19.561  -0.384  29.710  1.00  0.00     0.051 A 
HETATM    5  C4  UNK     1      19.804   0.161  30.969  1.00  0.00     0.091 A 
HETATM    6  C7  UNK     1      18.671   1.869  29.056  1.00  0.00     0.152 A 
HETATM    7  C9  UNK     1      18.970   0.470  28.669  1.00  0.00     0.220 A 
HETATM    8  C11 UNK     1      20.366  -0.628  31.973  1.00  0.00     0.045 A 
HETATM    9  C12 UNK     1      20.684  -1.961  31.713  1.00  0.00    -0.059 A 
HETATM   10  C14 UNK     1      19.877  -1.719  29.445  1.00  0.00     0.019 A 
HETATM   11  C15 UNK     1      20.439  -2.505  30.451  1.00  0.00     0.008 A 
HETATM   12  C17 UNK     1      21.286  -2.807  32.784  1.00  0.00     0.048 C 
ENDROOT
BRANCH   3  13
HETATM   13  C1  UNK     1      18.687   3.641  30.781  1.00  0.00     0.004 A 
HETATM   14  C6  UNK     1      18.076   3.847  32.021  1.00  0.00     0.054 A 
HETATM   15  C5  UNK     1      17.852   5.149  32.419  1.00  0.00     0.105 A 
HETATM   16  O2  UNK     1      17.271   5.539  33.584  1.00  0.00    -0.323 OA
HETATM   17  C8  UNK     1      18.214   6.218  31.631  1.00  0.00     0.105 A 
HETATM   18  C16 UNK     1      17.308   6.974  33.445  1.00  0.00     0.352 A 
HETATM   19  O3  UNK     1      17.906   7.412  32.207  1.00  0.00    -0.323 OA
HETATM   20  C13 UNK     1      18.820   6.044  30.403  1.00  0.00     0.040 A 
HETATM   21  C10 UNK     1      19.057   4.734  29.977  1.00  0.00     0.017 A 
ENDBRANCH   3  13
BRANCH   6  22
HETATM   22  O4  UNK     1      18.136   2.706  28.101  1.00  0.00    -0.355 OA
HETATM   23  H12 UNK     1      18.774   3.402  27.877  1.00  0.00     0.218 HD
ENDBRANCH   6  22
TORSDOF 2
ENDMDL
MODEL 2
REMARK VINA RESULT:      -8.9      2.133      3.041
REMARK  2 active torsions:
REMARK  status: ('A' for Active; 'I' for Inactive)
REMARK    1  A    between atoms: C7_12  and  O4_4 
REMARK    2  A    between atoms: C1_6  and  C2_7 
ROOT
HETATM    1  O1  UNK     1      18.079   3.239  33.263  1.00  0.00    -0.306 OA
HETATM    2  O5  UNK     1      19.229   1.701  29.669  1.00  0.00    -0.284 OA
HETATM    3  C2  UNK     1      18.242   4.047  32.150  1.00  0.00     0.123 A 
HETATM    4  C3  UNK     1      18.692   1.305  31.931  1.00  0.00     0.051 A 
HETATM    5  C4  UNK     1      18.300   1.893  33.131  1.00  0.00     0.091 A 
HETATM    6  C7  UNK     1      18.626   3.608  30.937  1.00  0.00     0.152 A 
HETATM    7  C9  UNK     1      18.880   2.159  30.749  1.00  0.00     0.220 A 
HETATM    8  C11 UNK     1      18.118   1.104  34.268  1.00  0.00     0.045 A 
HETATM    9  C12 UNK     1      18.329  -0.273  34.198  1.00  0.00    -0.059 A 
HETATM   10  C14 UNK     1      18.904  -0.074  31.857  1.00  0.00     0.019 A 
HETATM   11  C15 UNK     1      18.721  -0.861  32.994  1.00  0.00     0.008 A 
HETATM   12  C17 UNK     1      18.136  -1.120  35.411  1.00  0.00     0.048 C 
ENDROOT
BRANCH   3  13
HETATM   13  C1  UNK     1      17.973   5.470  32.428  1.00  0.00     0.004 A 
HETATM   14  C6  UNK     1      16.685   5.981  32.250  1.00  0.00     0.054 A 
HETATM   15  C5  UNK     1      16.481   7.318  32.522  1.00  0.00     0.105 A 
HETATM   16  O2  UNK     1      15.302   7.986  32.405  1.00  0.00    -0.323 OA
HETATM   17  C8  UNK     1      17.503   8.132  32.955  1.00  0.00     0.105 A 
HETATM   18  C16 UNK     1      15.694   9.312  32.815  1.00  0.00     0.352 A 
HETATM   19  O3  UNK     1      17.090   9.412  33.165  1.00  0.00    -0.323 OA
HETATM   20  C13 UNK     1      18.784   7.654  33.141  1.00  0.00     0.040 A 
HETATM   21  C10 UNK     1      19.016   6.302  32.871  1.00  0.00     0.017 A 
ENDBRANCH   3  13
BRANCH   6  22
HETATM   22  O4  UNK     1      18.811   4.444  29.857  1.00  0.00    -0.355 OA
HETATM   23  H12 UNK     1      19.070   3.925  29.079  1.00  0.00     0.218 HD
ENDBRANCH   6  22
TORSDOF 2
ENDMDL
MODEL 3
REMARK VINA RESULT:      -8.8      2.172      3.151
REMARK  2 active torsions:
REMARK  status: ('A' for Active; 'I' for Inactive)
REMARK    1  A    between atoms: C7_12  and  O4_4 
REMARK    2  A    between atoms: C1_6  and  C2_7 
ROOT
HETATM    1  O1  UNK     1      18.042   3.280  33.313  1.00  0.00    -0.306 OA
HETATM    2  O5  UNK     1      19.232   1.711  29.746  1.00  0.00    -0.284 OA
HETATM    3  C2  UNK     1      18.227   4.080  32.197  1.00  0.00     0.123 A 
HETATM    4  C3  UNK     1      18.661   1.333  32.002  1.00  0.00     0.051 A 
HETATM    5  C4  UNK     1      18.256   1.931  33.193  1.00  0.00     0.091 A 
HETATM    6  C7  UNK     1      18.624   3.630  30.993  1.00  0.00     0.152 A 
HETATM    7  C9  UNK     1      18.871   2.178  30.818  1.00  0.00     0.220 A 
HETATM    8  C11 UNK     1      18.053   1.151  34.332  1.00  0.00     0.045 A 
HETATM    9  C12 UNK     1      18.256  -0.228  34.274  1.00  0.00    -0.059 A 
HETATM   10  C14 UNK     1      18.865  -0.048  31.940  1.00  0.00     0.019 A 
HETATM   11  C15 UNK     1      18.661  -0.826  33.080  1.00  0.00     0.008 A 
HETATM   12  C17 UNK     1      18.040  -1.065  35.490  1.00  0.00     0.048 C 
ENDROOT
BRANCH   3  13
HETATM   13  C1  UNK     1      17.964   5.506  32.463  1.00  0.00     0.004 A 
HETATM   14  C6  UNK     1      18.928   6.280  33.114  1.00  0.00     0.054 A 
HETATM   15  C5  UNK     1      18.637   7.609  33.342  1.00  0.00     0.105 A 
HETATM   16  O2  UNK     1      19.448   8.509  33.961  1.00  0.00    -0.323 OA
HETATM   17  C8  UNK     1      17.443   8.167  32.946  1.00  0.00     0.105 A 
HETATM   18  C16 UNK     1      18.632   9.697  33.908  1.00  0.00     0.352 A 
HETATM   19  O3  UNK     1      17.358   9.487  33.265  1.00  0.00    -0.323 OA
HETATM   20  C13 UNK     1      16.474   7.426  32.300  1.00  0.00     0.040 A 
HETATM   21  C10 UNK     1      16.744   6.077  32.057  1.00  0.00     0.017 A 
ENDBRANCH   3  13
BRANCH   6  22
HETATM   22  O4  UNK     1      18.830   4.458  29.911  1.00  0.00    -0.355 OA
HETATM   23  H12 UNK     1      18.580   3.999  29.093  1.00  0.00     0.218 HD
ENDBRANCH   6  22
TORSDOF 2
ENDMDL
MODEL 4
REMARK VINA RESULT:      -8.8     12.425     16.090
REMARK  2 active torsions:
REMARK  status: ('A' for Active; 'I' for Inactive)
REMARK    1  A    between atoms: C7_12  and  O4_4 
REMARK    2  A    between atoms: C1_6  and  C2_7 
ROOT
HETATM    1  O1  UNK     1      19.312  -0.952  17.689  1.00  0.00    -0.306 OA
HETATM    2  O5  UNK     1      19.169   2.352  15.309  1.00  0.00    -0.284 OA
HETATM    3  C2  UNK     1      19.246  -1.058  16.309  1.00  0.00     0.123 A 
HETATM    4  C3  UNK     1      19.299   1.467  17.491  1.00  0.00     0.051 A 
HETATM    5  C4  UNK     1      19.342   0.299  18.248  1.00  0.00     0.091 A 
HETATM    6  C7  UNK     1      19.189  -0.011  15.466  1.00  0.00     0.152 A 
HETATM    7  C9  UNK     1      19.216   1.361  16.026  1.00  0.00     0.220 A 
HETATM    8  C11 UNK     1      19.418   0.372  19.640  1.00  0.00     0.045 A 
HETATM    9  C12 UNK     1      19.452   1.618  20.269  1.00  0.00    -0.059 A 
HETATM   10  C14 UNK     1      19.333   2.716  18.116  1.00  0.00     0.019 A 
HETATM   11  C15 UNK     1      19.410   2.787  19.507  1.00  0.00     0.008 A 
HETATM   12  C17 UNK     1      19.533   1.700  21.756  1.00  0.00     0.048 C 
ENDROOT
BRANCH   3  13
HETATM   13  C1  UNK     1      19.219  -2.455  15.841  1.00  0.00     0.004 A 
HETATM   14  C6  UNK     1      20.418  -3.138  15.625  1.00  0.00     0.054 A 
HETATM   15  C5  UNK     1      20.344  -4.444  15.186  1.00  0.00     0.105 A 
HETATM   16  O2  UNK     1      21.400  -5.259  14.921  1.00  0.00    -0.323 OA
HETATM   17  C8  UNK     1      19.136  -5.065  14.964  1.00  0.00     0.105 A 
HETATM   18  C16 UNK     1      20.723  -6.464  14.510  1.00  0.00     0.352 A 
HETATM   19  O3  UNK     1      19.285  -6.348  14.535  1.00  0.00    -0.323 OA
HETATM   20  C13 UNK     1      17.936  -4.415  15.171  1.00  0.00     0.040 A 
HETATM   21  C10 UNK     1      17.985  -3.091  15.616  1.00  0.00     0.017 A 
ENDBRANCH   3  13
BRANCH   6  22
HETATM   22  O4  UNK     1      19.090  -0.151  14.098  1.00  0.00    -0.355 OA
HETATM   23  H12 UNK     1      19.965  -0.041  13.692  1.00  0.00     0.218 HD
ENDBRANCH   6  22
TORSDOF 2
ENDMDL
MODEL 5
REMARK VINA RESULT:      -8.8     21.777     23.788
REMARK  2 active torsions:
REMARK  status: ('A' for Active; 'I' for Inactive)
REMARK    1  A    between atoms: C7_12  and  O4_4 
REMARK    2  A    between atoms: C1_6  and  C2_7 
ROOT
HETATM    1  O1  UNK     1      13.575   7.709   8.913  1.00  0.00    -0.306 OA
HETATM    2  O5  UNK     1      15.610   4.265   9.687  1.00  0.00    -0.284 OA
HETATM    3  C2  UNK     1      12.968   6.469   8.797  1.00  0.00     0.123 A 
HETATM    4  C3  UNK     1      15.636   6.621   9.593  1.00  0.00     0.051 A 
HETATM    5  C4  UNK     1      14.886   7.760   9.311  1.00  0.00     0.091 A 
HETATM    6  C7  UNK     1      13.581   5.294   9.030  1.00  0.00     0.152 A 
HETATM    7  C9  UNK     1      15.000   5.302   9.459  1.00  0.00     0.220 A 
HETATM    8  C11 UNK     1      15.466   9.024   9.427  1.00  0.00     0.045 A 
HETATM    9  C12 UNK     1      16.798   9.142   9.827  1.00  0.00    -0.059 A 
HETATM   10  C14 UNK     1      16.969   6.735   9.994  1.00  0.00     0.019 A 
HETATM   11  C15 UNK     1      17.547   7.999  10.110  1.00  0.00     0.008 A 
HETATM   12  C17 UNK     1      17.421  10.491   9.953  1.00  0.00     0.048 C 
ENDROOT
BRANCH   3  13
HETATM   13  C1  UNK     1      11.562   6.556   8.362  1.00  0.00     0.004 A 
HETATM   14  C6  UNK     1      10.589   7.023   9.249  1.00  0.00     0.054 A 
HETATM   15  C5  UNK     1       9.286   7.086   8.799  1.00  0.00     0.105 A 
HETATM   16  O2  UNK     1       8.212   7.509   9.518  1.00  0.00    -0.323 OA
HETATM   17  C8  UNK     1       8.944   6.707   7.520  1.00  0.00     0.105 A 
HETATM   18  C16 UNK     1       7.154   7.356   8.549  1.00  0.00     0.352 A 
HETATM   19  O3  UNK     1       7.612   6.847   7.279  1.00  0.00    -0.323 OA
HETATM   20  C13 UNK     1       9.885   6.244   6.623  1.00  0.00     0.040 A 
HETATM   21  C10 UNK     1      11.211   6.170   7.056  1.00  0.00     0.017 A 
ENDBRANCH   3  13
BRANCH   6  22
HETATM   22  O4  UNK     1      12.957   4.076   8.873  1.00  0.00    -0.355 OA
HETATM   23  H12 UNK     1      13.257   3.461   9.562  1.00  0.00     0.218 HD
ENDBRANCH   6  22
TORSDOF 2
ENDMDL
MODEL 6
REMARK VINA RESULT:      -8.7      2.527      8.758
REMARK  2 active torsions:
REMARK  status: ('A' for Active; 'I' for Inactive)
REMARK    1  A    between atoms: C7_12  and  O4_4 
REMARK    2  A    between atoms: C1_6  and  C2_7 
ROOT
HETATM    1  O1  UNK     1      16.882   7.541  32.243  1.00  0.00    -0.306 OA
HETATM    2  O5  UNK     1      19.619   9.418  34.608  1.00  0.00    -0.284 OA
HETATM    3  C2  UNK     1      18.164   7.040  32.404  1.00  0.00     0.123 A 
HETATM    4  C3  UNK     1      17.428   9.375  33.737  1.00  0.00     0.051 A 
HETATM    5  C4  UNK     1      16.540   8.688  32.912  1.00  0.00     0.091 A 
HETATM    6  C7  UNK     1      19.117   7.611  33.162  1.00  0.00     0.152 A 
HETATM    7  C9  UNK     1      18.793   8.854  33.902  1.00  0.00     0.220 A 
HETATM    8  C11 UNK     1      15.240   9.162  32.737  1.00  0.00     0.045 A 
HETATM    9  C12 UNK     1      14.832  10.325  33.391  1.00  0.00    -0.059 A 
HETATM   10  C14 UNK     1      17.023  10.539  34.394  1.00  0.00     0.019 A 
HETATM   11  C15 UNK     1      15.722  11.012  34.218  1.00  0.00     0.008 A 
HETATM   12  C17 UNK     1      13.442  10.836  33.206  1.00  0.00     0.048 C 
ENDROOT
BRANCH   3  13
HETATM   13  C1  UNK     1      18.399   5.807  31.631  1.00  0.00     0.004 A 
HETATM   14  C6  UNK     1      18.124   4.563  32.207  1.00  0.00     0.054 A 
HETATM   15  C5  UNK     1      18.360   3.437  31.446  1.00  0.00     0.105 A 
HETATM   16  O2  UNK     1      18.155   2.151  31.838  1.00  0.00    -0.323 OA
HETATM   17  C8  UNK     1      18.851   3.521  30.163  1.00  0.00     0.105 A 
HETATM   18  C16 UNK     1      18.569   1.433  30.658  1.00  0.00     0.352 A 
HETATM   19  O3  UNK     1      19.012   2.297  29.590  1.00  0.00    -0.323 OA
HETATM   20  C13 UNK     1      19.130   4.735  29.569  1.00  0.00     0.040 A 
HETATM   21  C10 UNK     1      18.899   5.891  30.319  1.00  0.00     0.017 A 
ENDBRANCH   3  13
BRANCH   6  22
HETATM   22  O4  UNK     1      20.394   7.104  33.275  1.00  0.00    -0.355 OA
HETATM   23  H12 UNK     1      20.412   6.402  33.945  1.00  0.00     0.218 HD
ENDBRANCH   6  22
TORSDOF 2
ENDMDL
MODEL 7
REMARK VINA RESULT:      -8.7      3.293      6.924
REMARK  2 active torsions:
REMARK  status: ('A' for Active; 'I' for Inactive)
REMARK    1  A    between atoms: C7_12  and  O4_4 
REMARK    2  A    between atoms: C1_6  and  C2_7 
ROOT
HETATM    1  O1  UNK     1      18.036   3.108  33.561  1.00  0.00    -0.306 OA
HETATM    2  O5  UNK     1      18.941   2.440  29.644  1.00  0.00    -0.284 OA
HETATM    3  C2  UNK     1      18.186   1.824  33.062  1.00  0.00     0.123 A 
HETATM    4  C3  UNK     1      18.525   4.005  31.359  1.00  0.00     0.051 A 
HETATM    5  C4  UNK     1      18.212   4.165  32.707  1.00  0.00     0.091 A 
HETATM    6  C7  UNK     1      18.477   1.532  31.781  1.00  0.00     0.152 A 
HETATM    7  C9  UNK     1      18.673   2.644  30.821  1.00  0.00     0.220 A 
HETATM    8  C11 UNK     1      18.064   5.446  33.241  1.00  0.00     0.045 A 
HETATM    9  C12 UNK     1      18.230   6.563  32.422  1.00  0.00    -0.059 A 
HETATM   10  C14 UNK     1      18.693   5.121  30.536  1.00  0.00     0.019 A 
HETATM   11  C15 UNK     1      18.544   6.400  31.072  1.00  0.00     0.008 A 
HETATM   12  C17 UNK     1      18.072   7.934  32.989  1.00  0.00     0.048 C 
ENDROOT
BRANCH   3  13
HETATM   13  C1  UNK     1      17.969   0.782  34.083  1.00  0.00     0.004 A 
HETATM   14  C6  UNK     1      19.045   0.004  34.519  1.00  0.00     0.054 A 
HETATM   15  C5  UNK     1      18.794  -0.959  35.475  1.00  0.00     0.105 A 
HETATM   16  O2  UNK     1      19.711  -1.807  36.014  1.00  0.00    -0.323 OA
HETATM   17  C8  UNK     1      17.533  -1.156  35.990  1.00  0.00     0.105 A 
HETATM   18  C16 UNK     1      18.888  -2.559  36.928  1.00  0.00     0.352 A 
HETATM   19  O3  UNK     1      17.504  -2.152  36.917  1.00  0.00    -0.323 OA
HETATM   20  C13 UNK     1      16.454  -0.401  35.578  1.00  0.00     0.040 A 
HETATM   21  C10 UNK     1      16.681   0.581  34.610  1.00  0.00     0.017 A 
ENDBRANCH   3  13
BRANCH   6  22
HETATM   22  O4  UNK     1      18.587   0.241  31.310  1.00  0.00    -0.355 OA
HETATM   23  H12 UNK     1      19.292  -0.225  31.786  1.00  0.00     0.218 HD
ENDBRANCH   6  22
TORSDOF 2
ENDMDL
MODEL 8
REMARK VINA RESULT:      -8.7      5.771     10.030
REMARK  2 active torsions:
REMARK  status: ('A' for Active; 'I' for Inactive)
REMARK    1  A    between atoms: C7_12  and  O4_4 
REMARK    2  A    between atoms: C1_6  and  C2_7 
ROOT
HETATM    1  O1  UNK     1      20.270  -3.340  34.820  1.00  0.00    -0.306 OA
HETATM    2  O5  UNK     1      17.830  -0.354  36.138  1.00  0.00    -0.284 OA
HETATM    3  C2  UNK     1      19.814  -3.303  36.128  1.00  0.00     0.123 A 
HETATM    4  C3  UNK     1      19.036  -1.303  34.348  1.00  0.00     0.051 A 
HETATM    5  C4  UNK     1      19.871  -2.350  33.961  1.00  0.00     0.091 A 
HETATM    6  C7  UNK     1      19.014  -2.345  36.631  1.00  0.00     0.152 A 
HETATM    7  C9  UNK     1      18.560  -1.252  35.738  1.00  0.00     0.220 A 
HETATM    8  C11 UNK     1      20.338  -2.420  32.648  1.00  0.00     0.045 A 
HETATM    9  C12 UNK     1      19.968  -1.440  31.726  1.00  0.00    -0.059 A 
HETATM   10  C14 UNK     1      18.663  -0.321  33.427  1.00  0.00     0.019 A 
HETATM   11  C15 UNK     1      19.131  -0.393  32.115  1.00  0.00     0.008 A 
HETATM   12  C17 UNK     1      20.466  -1.512  30.322  1.00  0.00     0.048 C 
ENDROOT
BRANCH   3  13
HETATM   13  C1  UNK     1      20.318  -4.423  36.943  1.00  0.00     0.004 A 
HETATM   14  C6  UNK     1      21.600  -4.359  37.495  1.00  0.00     0.054 A 
HETATM   15  C5  UNK     1      22.029  -5.432  38.250  1.00  0.00     0.105 A 
HETATM   16  O2  UNK     1      23.239  -5.546  38.860  1.00  0.00    -0.323 OA
HETATM   17  C8  UNK     1      21.230  -6.533  38.461  1.00  0.00     0.105 A 
HETATM   18  C16 UNK     1      23.114  -6.842  39.480  1.00  0.00     0.352 A 
HETATM   19  O3  UNK     1      21.841  -7.474  39.231  1.00  0.00    -0.323 OA
HETATM   20  C13 UNK     1      19.960  -6.622  37.930  1.00  0.00     0.040 A 
HETATM   21  C10 UNK     1      19.502  -5.549  37.160  1.00  0.00     0.017 A 
ENDBRANCH   3  13
BRANCH   6  22
HETATM   22  O4  UNK     1      18.606  -2.320  37.947  1.00  0.00    -0.355 OA
HETATM   23  H12 UNK     1      17.812  -2.867  38.056  1.00  0.00     0.218 HD
ENDBRANCH   6  22
TORSDOF 2
ENDMDL
MODEL 9
REMARK VINA RESULT:      -8.6     22.049     24.445
REMARK  2 active torsions:
REMARK  status: ('A' for Active; 'I' for Inactive)
REMARK    1  A    between atoms: C7_12  and  O4_4 
REMARK    2  A    between atoms: C1_6  and  C2_7 
ROOT
HETATM    1  O1  UNK     1      14.067   9.103   8.146  1.00  0.00    -0.306 OA
HETATM    2  O5  UNK     1      16.342   7.527  11.137  1.00  0.00    -0.284 OA
HETATM    3  C2  UNK     1      13.726   7.909   8.761  1.00  0.00     0.123 A 
HETATM    4  C3  UNK     1      16.007   9.278   9.594  1.00  0.00     0.051 A 
HETATM    5  C4  UNK     1      15.189   9.762   8.575  1.00  0.00     0.091 A 
HETATM    6  C7  UNK     1      14.434   7.329   9.747  1.00  0.00     0.152 A 
HETATM    7  C9  UNK     1      15.658   8.005  10.241  1.00  0.00     0.220 A 
HETATM    8  C11 UNK     1      15.500  10.966   7.943  1.00  0.00     0.045 A 
HETATM    9  C12 UNK     1      16.631  11.684   8.334  1.00  0.00    -0.059 A 
HETATM   10  C14 UNK     1      17.140   9.994   9.989  1.00  0.00     0.019 A 
HETATM   11  C15 UNK     1      17.449  11.198   9.356  1.00  0.00     0.008 A 
HETATM   12  C17 UNK     1      16.967  12.972   7.661  1.00  0.00     0.048 C 
ENDROOT
BRANCH   3  13
HETATM   13  C1  UNK     1      12.501   7.306   8.205  1.00  0.00     0.004 A 
HETATM   14  C6  UNK     1      11.276   7.505   8.848  1.00  0.00     0.054 A 
HETATM   15  C5  UNK     1      10.156   6.921   8.292  1.00  0.00     0.105 A 
HETATM   16  O2  UNK     1       8.888   7.004   8.777  1.00  0.00    -0.323 OA
HETATM   17  C8  UNK     1      10.229   6.165   7.145  1.00  0.00     0.105 A 
HETATM   18  C16 UNK     1       8.170   6.218   7.806  1.00  0.00     0.352 A 
HETATM   19  O3  UNK     1       9.015   5.682   6.766  1.00  0.00    -0.323 OA
HETATM   20  C13 UNK     1      11.425   5.953   6.489  1.00  0.00     0.040 A 
HETATM   21  C10 UNK     1      12.574   6.534   7.032  1.00  0.00     0.017 A 
ENDBRANCH   3  13
BRANCH   6  22
HETATM   22  O4  UNK     1      14.086   6.123  10.315  1.00  0.00    -0.355 OA
HETATM   23  H12 UNK     1      14.870   5.555  10.389  1.00  0.00     0.218 HD
ENDBRANCH   6  22
TORSDOF 2
ENDMDL
MODEL 10
REMARK VINA RESULT:      -8.6     22.333     24.417
REMARK  2 active torsions:
REMARK  status: ('A' for Active; 'I' for Inactive)
REMARK    1  A    between atoms: C7_12  and  O4_4 
REMARK    2  A    between atoms: C1_6  and  C2_7 
ROOT
HETATM    1  O1  UNK     1      10.205   5.451   9.603  1.00  0.00    -0.306 OA
HETATM    2  O5  UNK     1      10.284   7.026   5.846  1.00  0.00    -0.284 OA
HETATM    3  C2  UNK     1       9.037   5.760   8.925  1.00  0.00     0.123 A 
HETATM    4  C3  UNK     1      11.499   6.206   7.694  1.00  0.00     0.051 A 
HETATM    5  C4  UNK     1      11.404   5.673   8.977  1.00  0.00     0.091 A 
HETATM    6  C7  UNK     1       8.991   6.288   7.688  1.00  0.00     0.152 A 
HETATM    7  C9  UNK     1      10.263   6.549   6.973  1.00  0.00     0.220 A 
HETATM    8  C11 UNK     1      12.561   5.342   9.683  1.00  0.00     0.045 A 
HETATM    9  C12 UNK     1      13.812   5.546   9.099  1.00  0.00    -0.059 A 
HETATM   10  C14 UNK     1      12.749   6.411   7.106  1.00  0.00     0.019 A 
HETATM   11  C15 UNK     1      13.905   6.079   7.813  1.00  0.00     0.008 A 
HETATM   12  C17 UNK     1      15.051   5.194   9.850  1.00  0.00     0.048 C 
ENDROOT
BRANCH   3  13
HETATM   13  C1  UNK     1       7.823   5.474   9.710  1.00  0.00     0.004 A 
HETATM   14  C6  UNK     1       7.185   4.238   9.575  1.00  0.00     0.054 A 
HETATM   15  C5  UNK     1       6.051   4.015  10.329  1.00  0.00     0.105 A 
HETATM   16  O2  UNK     1       5.301   2.880  10.327  1.00  0.00    -0.323 OA
HETATM   17  C8  UNK     1       5.556   4.968  11.190  1.00  0.00     0.105 A 
HETATM   18  C16 UNK     1       4.279   3.224  11.284  1.00  0.00     0.352 A 
HETATM   19  O3  UNK     1       4.434   4.548  11.836  1.00  0.00    -0.323 OA
HETATM   20  C13 UNK     1       6.167   6.196  11.344  1.00  0.00     0.040 A 
HETATM   21  C10 UNK     1       7.317   6.446  10.590  1.00  0.00     0.017 A 
ENDBRANCH   3  13
BRANCH   6  22
HETATM   22  O4  UNK     1       7.812   6.616   7.053  1.00  0.00    -0.355 OA
HETATM   23  H12 UNK     1       7.995   6.892   6.141  1.00  0.00     0.218 HD
ENDBRANCH   6  22
TORSDOF 2
ENDMDL
