MODEL 1
REMARK VINA RESULT:     -11.5      0.000      0.000
REMARK  3 active torsions:
REMARK  status: ('A' for Active; 'I' for Inactive)
REMARK       I    between atoms: C10_16  and  N1_4 
REMARK    1  A    between atoms: C8_14  and  N1_4 
REMARK    2  A    between atoms: C10_16  and  C2_8 
REMARK    3  A    between atoms: C18_24  and  C7_13 
ROOT
HETATM    1  N2  UNK     1      18.715   0.138  33.128  1.00  0.00    -0.247 NA
HETATM    2  C1  UNK     1      18.950  -0.881  35.300  1.00  0.00     0.009 A 
HETATM    3  C2  UNK     1      19.681  -1.914  34.717  1.00  0.00     0.047 A 
HETATM    4  C3  UNK     1      18.477   0.144  34.454  1.00  0.00     0.068 A 
HETATM    5  C4  UNK     1      18.683  -0.841  36.679  1.00  0.00     0.021 A 
HETATM    6  C5  UNK     1      19.933  -1.934  33.359  1.00  0.00     0.050 A 
HETATM    7  C7  UNK     1      19.429  -0.888  32.612  1.00  0.00     0.070 A 
HETATM    8  C9  UNK     1      17.950   0.208  37.225  1.00  0.00    -0.061 A 
HETATM    9  C12 UNK     1      17.747   1.182  35.027  1.00  0.00     0.033 A 
HETATM   10  C15 UNK     1      17.481   1.221  36.398  1.00  0.00     0.009 A 
HETATM   11  C19 UNK     1      17.667   0.246  38.689  1.00  0.00     0.048 C 
ENDROOT
BRANCH   3  12
HETATM   12  C10 UNK     1      20.223  -3.035  35.506  1.00  0.00     0.257 C 
HETATM   13  O2  UNK     1      21.136  -2.859  36.308  1.00  0.00    -0.267 OA
HETATM   14  N1  UNK     1      19.592  -4.277  35.293  1.00  0.00    -0.323 N 
HETATM   15  H4  UNK     1      18.843  -4.291  34.603  1.00  0.00     0.169 HD
BRANCH  14  16
HETATM   16  C8  UNK     1      19.853  -5.501  35.910  1.00  0.00     0.037 A 
HETATM   17  C13 UNK     1      20.403  -6.548  35.177  1.00  0.00     0.067 A 
HETATM   18  C11 UNK     1      20.657  -7.763  35.814  1.00  0.00     0.092 A 
HETATM   19  O1  UNK     1      21.214  -8.787  35.021  1.00  0.00    -0.275 OA
HETATM   20  C6  UNK     1      20.379  -7.970  37.166  1.00  0.00     0.004 A 
HETATM   21  C22 UNK     1      21.508 -10.035  35.548  1.00  0.00     0.288 A 
HETATM   22  C20 UNK     1      21.209 -10.236  36.976  1.00  0.00     0.090 A 
HETATM   23  O3  UNK     1      21.994 -10.931  34.868  1.00  0.00    -0.260 OA
HETATM   24  C14 UNK     1      20.679  -9.283  37.754  1.00  0.00    -0.043 A 
HETATM   25  C21 UNK     1      20.391  -9.535  39.205  1.00  0.00     0.049 C 
HETATM   26  C16 UNK     1      19.825  -6.903  37.886  1.00  0.00     0.017 A 
HETATM   27  C17 UNK     1      19.565  -5.678  37.262  1.00  0.00     0.030 A 
ENDBRANCH  14  16
ENDBRANCH   3  12
BRANCH   7  28
HETATM   28  C18 UNK     1      19.641  -0.822  31.186  1.00  0.00     0.010 A 
HETATM   29  C23 UNK     1      20.106  -1.925  30.477  1.00  0.00     0.017 A 
HETATM   30  C25 UNK     1      20.300  -1.831  29.104  1.00  0.00     0.020 A 
HETATM   31  C26 UNK     1      20.018  -0.622  28.490  1.00  0.00     0.116 A 
HETATM   32  N3  UNK     1      19.565   0.472  29.144  1.00  0.00    -0.272 NA
HETATM   33  C24 UNK     1      19.388   0.343  30.478  1.00  0.00     0.130 A 
ENDBRANCH   7  28
TORSDOF 3
ENDMDL
MODEL 2
REMARK VINA RESULT:     -11.0      1.590      1.691
REMARK  3 active torsions:
REMARK  status: ('A' for Active; 'I' for Inactive)
REMARK       I    between atoms: C10_16  and  N1_4 
REMARK    1  A    between atoms: C8_14  and  N1_4 
REMARK    2  A    between atoms: C10_16  and  C2_8 
REMARK    3  A    between atoms: C18_24  and  C7_13 
ROOT
HETATM    1  N2  UNK     1      18.701   0.288  33.108  1.00  0.00    -0.247 NA
HETATM    2  C1  UNK     1      18.865  -0.546  35.364  1.00  0.00     0.009 A 
HETATM    3  C2  UNK     1      19.585  -1.641  34.888  1.00  0.00     0.047 A 
HETATM    4  C3  UNK     1      18.435   0.412  34.422  1.00  0.00     0.068 A 
HETATM    5  C4  UNK     1      18.569  -0.383  36.727  1.00  0.00     0.021 A 
HETATM    6  C5  UNK     1      19.866  -1.783  33.543  1.00  0.00     0.050 A 
HETATM    7  C7  UNK     1      19.403  -0.794  32.698  1.00  0.00     0.070 A 
HETATM    8  C9  UNK     1      17.849   0.724  37.165  1.00  0.00    -0.061 A 
HETATM    9  C12 UNK     1      17.716   1.511  34.887  1.00  0.00     0.033 A 
HETATM   10  C15 UNK     1      17.422   1.672  36.243  1.00  0.00     0.009 A 
HETATM   11  C19 UNK     1      17.534   0.894  38.613  1.00  0.00     0.048 C 
ENDROOT
BRANCH   3  12
HETATM   12  C10 UNK     1      20.083  -2.701  35.782  1.00  0.00     0.257 C 
HETATM   13  O2  UNK     1      21.011  -2.487  36.560  1.00  0.00    -0.267 OA
HETATM   14  N1  UNK     1      19.396  -3.929  35.697  1.00  0.00    -0.323 N 
HETATM   15  H4  UNK     1      18.642  -3.977  35.015  1.00  0.00     0.169 HD
BRANCH  14  16
HETATM   16  C8  UNK     1      19.608  -5.096  36.431  1.00  0.00     0.037 A 
HETATM   17  C13 UNK     1      20.865  -5.368  36.960  1.00  0.00     0.067 A 
HETATM   18  C11 UNK     1      21.055  -6.541  37.693  1.00  0.00     0.092 A 
HETATM   19  O1  UNK     1      22.350  -6.762  38.204  1.00  0.00    -0.275 OA
HETATM   20  C6  UNK     1      20.026  -7.457  37.916  1.00  0.00     0.004 A 
HETATM   21  C22 UNK     1      22.653  -7.894  38.947  1.00  0.00     0.288 A 
HETATM   22  C20 UNK     1      21.556  -8.850  39.173  1.00  0.00     0.090 A 
HETATM   23  O3  UNK     1      23.775  -8.096  39.397  1.00  0.00    -0.260 OA
HETATM   24  C14 UNK     1      20.316  -8.666  38.699  1.00  0.00    -0.043 A 
HETATM   25  C21 UNK     1      19.230  -9.669  38.955  1.00  0.00     0.049 C 
HETATM   26  C16 UNK     1      18.767  -7.164  37.374  1.00  0.00     0.017 A 
HETATM   27  C17 UNK     1      18.561  -5.992  36.637  1.00  0.00     0.030 A 
ENDBRANCH  14  16
ENDBRANCH   3  12
BRANCH   7  28
HETATM   28  C18 UNK     1      19.647  -0.855  31.277  1.00  0.00     0.010 A 
HETATM   29  C23 UNK     1      20.134  -2.014  30.681  1.00  0.00     0.017 A 
HETATM   30  C25 UNK     1      20.359  -2.042  29.310  1.00  0.00     0.020 A 
HETATM   31  C26 UNK     1      20.085  -0.895  28.583  1.00  0.00     0.116 A 
HETATM   32  N3  UNK     1      19.611   0.249  29.126  1.00  0.00    -0.272 NA
HETATM   33  C24 UNK     1      19.404   0.239  30.462  1.00  0.00     0.130 A 
ENDBRANCH   7  28
TORSDOF 3
ENDMDL
MODEL 3
REMARK VINA RESULT:      -9.8      1.483      4.580
REMARK  3 active torsions:
REMARK  status: ('A' for Active; 'I' for Inactive)
REMARK       I    between atoms: C10_16  and  N1_4 
REMARK    1  A    between atoms: C8_14  and  N1_4 
REMARK    2  A    between atoms: C10_16  and  C2_8 
REMARK    3  A    between atoms: C18_24  and  C7_13 
ROOT
HETATM    1  N2  UNK     1      18.487  -0.374  34.035  1.00  0.00    -0.247 NA
HETATM    2  C1  UNK     1      19.812  -2.372  33.787  1.00  0.00     0.009 A 
HETATM    3  C2  UNK     1      19.563  -2.682  35.124  1.00  0.00     0.047 A 
HETATM    4  C3  UNK     1      19.243  -1.187  33.275  1.00  0.00     0.068 A 
HETATM    5  C4  UNK     1      20.596  -3.197  32.963  1.00  0.00     0.021 A 
HETATM    6  C5  UNK     1      18.789  -1.857  35.917  1.00  0.00     0.050 A 
HETATM    7  C7  UNK     1      18.277  -0.719  35.326  1.00  0.00     0.070 A 
HETATM    8  C9  UNK     1      20.821  -2.855  31.634  1.00  0.00    -0.061 A 
HETATM    9  C12 UNK     1      19.485  -0.869  31.940  1.00  0.00     0.033 A 
HETATM   10  C15 UNK     1      20.264  -1.690  31.122  1.00  0.00     0.009 A 
HETATM   11  C19 UNK     1      21.655  -3.732  30.762  1.00  0.00     0.048 C 
ENDROOT
BRANCH   3  12
HETATM   12  C10 UNK     1      20.106  -3.894  35.763  1.00  0.00     0.257 C 
HETATM   13  O2  UNK     1      21.116  -3.841  36.460  1.00  0.00    -0.267 OA
HETATM   14  N1  UNK     1      19.364  -5.071  35.542  1.00  0.00    -0.323 N 
HETATM   15  H4  UNK     1      18.542  -4.982  34.948  1.00  0.00     0.169 HD
BRANCH  14  16
HETATM   16  C8  UNK     1      19.602  -6.353  36.037  1.00  0.00     0.037 A 
HETATM   17  C13 UNK     1      20.527  -7.183  35.411  1.00  0.00     0.067 A 
HETATM   18  C11 UNK     1      20.750  -8.461  35.924  1.00  0.00     0.092 A 
HETATM   19  O1  UNK     1      21.699  -9.255  35.247  1.00  0.00    -0.275 OA
HETATM   20  C6  UNK     1      20.077  -8.943  37.047  1.00  0.00     0.004 A 
HETATM   21  C22 UNK     1      22.001 -10.542  35.668  1.00  0.00     0.288 A 
HETATM   22  C20 UNK     1      21.282 -11.034  36.855  1.00  0.00     0.090 A 
HETATM   23  O3  UNK     1      22.824 -11.240  35.088  1.00  0.00    -0.260 OA
HETATM   24  C14 UNK     1      20.375 -10.303  37.518  1.00  0.00    -0.043 A 
HETATM   25  C21 UNK     1      19.668 -10.849  38.723  1.00  0.00     0.049 C 
HETATM   26  C16 UNK     1      19.149  -8.092  37.663  1.00  0.00     0.017 A 
HETATM   27  C17 UNK     1      18.914  -6.807  37.162  1.00  0.00     0.030 A 
ENDBRANCH  14  16
ENDBRANCH   3  12
BRANCH   7  28
HETATM   28  C18 UNK     1      17.457   0.203  36.075  1.00  0.00     0.010 A 
HETATM   29  C23 UNK     1      18.005   1.010  37.066  1.00  0.00     0.017 A 
HETATM   30  C25 UNK     1      17.190   1.888  37.770  1.00  0.00     0.020 A 
HETATM   31  C26 UNK     1      15.843   1.922  37.450  1.00  0.00     0.116 A 
HETATM   32  N3  UNK     1      15.273   1.153  36.494  1.00  0.00    -0.272 NA
HETATM   33  C24 UNK     1      16.097   0.311  35.830  1.00  0.00     0.130 A 
ENDBRANCH   7  28
TORSDOF 3
ENDMDL
MODEL 4
REMARK VINA RESULT:      -9.6      6.185     11.708
REMARK  3 active torsions:
REMARK  status: ('A' for Active; 'I' for Inactive)
REMARK       I    between atoms: C10_16  and  N1_4 
REMARK    1  A    between atoms: C8_14  and  N1_4 
REMARK    2  A    between atoms: C10_16  and  C2_8 
REMARK    3  A    between atoms: C18_24  and  C7_13 
ROOT
HETATM    1  N2  UNK     1      18.476   0.059  32.969  1.00  0.00    -0.247 NA
HETATM    2  C1  UNK     1      18.331   1.719  34.712  1.00  0.00     0.009 A 
HETATM    3  C2  UNK     1      18.665   2.701  33.780  1.00  0.00     0.047 A 
HETATM    4  C3  UNK     1      18.246   0.387  34.255  1.00  0.00     0.068 A 
HETATM    5  C4  UNK     1      18.085   2.023  36.061  1.00  0.00     0.021 A 
HETATM    6  C5  UNK     1      18.903   2.380  32.458  1.00  0.00     0.050 A 
HETATM    7  C7  UNK     1      18.797   1.050  32.106  1.00  0.00     0.070 A 
HETATM    8  C9  UNK     1      17.754   1.016  36.962  1.00  0.00    -0.061 A 
HETATM    9  C12 UNK     1      17.913  -0.602  35.178  1.00  0.00     0.033 A 
HETATM   10  C15 UNK     1      17.668  -0.299  36.519  1.00  0.00     0.009 A 
HETATM   11  C19 UNK     1      17.494   1.342  38.394  1.00  0.00     0.048 C 
ENDROOT
BRANCH   3  12
HETATM   12  C10 UNK     1      18.781   4.123  34.147  1.00  0.00     0.257 C 
HETATM   13  O2  UNK     1      19.686   4.514  34.881  1.00  0.00    -0.267 OA
HETATM   14  N1  UNK     1      17.818   4.973  33.565  1.00  0.00    -0.323 N 
HETATM   15  H4  UNK     1      17.123   4.526  32.970  1.00  0.00     0.169 HD
BRANCH  14  16
HETATM   16  C8  UNK     1      17.691   6.356  33.691  1.00  0.00     0.037 A 
HETATM   17  C13 UNK     1      16.453   6.919  33.982  1.00  0.00     0.067 A 
HETATM   18  C11 UNK     1      16.348   8.305  34.104  1.00  0.00     0.092 A 
HETATM   19  O1  UNK     1      15.068   8.818  34.399  1.00  0.00    -0.275 OA
HETATM   20  C6  UNK     1      17.445   9.154  33.946  1.00  0.00     0.004 A 
HETATM   21  C22 UNK     1      14.848  10.179  34.544  1.00  0.00     0.288 A 
HETATM   22  C20 UNK     1      16.016  11.060  34.374  1.00  0.00     0.090 A 
HETATM   23  O3  UNK     1      13.740  10.635  34.802  1.00  0.00    -0.260 OA
HETATM   24  C14 UNK     1      17.243  10.602  34.093  1.00  0.00    -0.043 A 
HETATM   25  C21 UNK     1      18.403  11.539  33.929  1.00  0.00     0.049 C 
HETATM   26  C16 UNK     1      18.683   8.567  33.654  1.00  0.00     0.017 A 
HETATM   27  C17 UNK     1      18.805   7.178  33.528  1.00  0.00     0.030 A 
ENDBRANCH  14  16
ENDBRANCH   3  12
BRANCH   7  28
HETATM   28  C18 UNK     1      19.028   0.619  30.748  1.00  0.00     0.010 A 
HETATM   29  C23 UNK     1      19.868  -0.454  30.468  1.00  0.00     0.017 A 
HETATM   30  C25 UNK     1      20.072  -0.846  29.150  1.00  0.00     0.020 A 
HETATM   31  C26 UNK     1      19.417  -0.138  28.155  1.00  0.00     0.116 A 
HETATM   32  N3  UNK     1      18.594   0.909  28.387  1.00  0.00    -0.272 NA
HETATM   33  C24 UNK     1      18.421   1.261  29.680  1.00  0.00     0.130 A 
ENDBRANCH   7  28
TORSDOF 3
ENDMDL
MODEL 5
REMARK VINA RESULT:      -9.4      6.273     12.560
REMARK  3 active torsions:
REMARK  status: ('A' for Active; 'I' for Inactive)
REMARK       I    between atoms: C10_16  and  N1_4 
REMARK    1  A    between atoms: C8_14  and  N1_4 
REMARK    2  A    between atoms: C10_16  and  C2_8 
REMARK    3  A    between atoms: C18_24  and  C7_13 
ROOT
HETATM    1  N2  UNK     1      18.661   0.030  34.016  1.00  0.00    -0.247 NA
HETATM    2  C1  UNK     1      18.549   1.739  32.320  1.00  0.00     0.009 A 
HETATM    3  C2  UNK     1      18.219   2.670  33.303  1.00  0.00     0.047 A 
HETATM    4  C3  UNK     1      18.766   0.406  32.728  1.00  0.00     0.068 A 
HETATM    5  C4  UNK     1      18.668   2.094  30.965  1.00  0.00     0.021 A 
HETATM    6  C5  UNK     1      18.108   2.299  34.629  1.00  0.00     0.050 A 
HETATM    7  C7  UNK     1      18.338   0.972  34.932  1.00  0.00     0.070 A 
HETATM    8  C9  UNK     1      18.999   1.137  30.012  1.00  0.00    -0.061 A 
HETATM    9  C12 UNK     1      19.097  -0.532  31.752  1.00  0.00     0.033 A 
HETATM   10  C15 UNK     1      19.215  -0.178  30.406  1.00  0.00     0.009 A 
HETATM   11  C19 UNK     1      19.123   1.517  28.575  1.00  0.00     0.048 C 
ENDROOT
BRANCH   3  12
HETATM   12  C10 UNK     1      17.972   4.088  32.990  1.00  0.00     0.257 C 
HETATM   13  O2  UNK     1      17.537   4.426  31.892  1.00  0.00    -0.267 OA
HETATM   14  N1  UNK     1      18.232   4.988  34.043  1.00  0.00    -0.323 N 
HETATM   15  H4  UNK     1      18.585   4.582  34.907  1.00  0.00     0.169 HD
BRANCH  14  16
HETATM   16  C8  UNK     1      18.062   6.373  34.064  1.00  0.00     0.037 A 
HETATM   17  C13 UNK     1      16.801   6.918  34.282  1.00  0.00     0.067 A 
HETATM   18  C11 UNK     1      16.654   8.306  34.300  1.00  0.00     0.092 A 
HETATM   19  O1  UNK     1      15.353   8.799  34.526  1.00  0.00    -0.275 OA
HETATM   20  C6  UNK     1      17.731   9.173  34.107  1.00  0.00     0.004 A 
HETATM   21  C22 UNK     1      15.090  10.160  34.565  1.00  0.00     0.288 A 
HETATM   22  C20 UNK     1      16.237  11.062  34.360  1.00  0.00     0.090 A 
HETATM   23  O3  UNK     1      13.963  10.600  34.761  1.00  0.00    -0.260 OA
HETATM   24  C14 UNK     1      17.484  10.621  34.143  1.00  0.00    -0.043 A 
HETATM   25  C21 UNK     1      18.621  11.579  33.939  1.00  0.00     0.049 C 
HETATM   26  C16 UNK     1      18.992   8.604  33.889  1.00  0.00     0.017 A 
HETATM   27  C17 UNK     1      19.156   7.214  33.868  1.00  0.00     0.030 A 
ENDBRANCH  14  16
ENDBRANCH   3  12
BRANCH   7  28
HETATM   28  C18 UNK     1      18.245   0.491  36.290  1.00  0.00     0.010 A 
HETATM   29  C23 UNK     1      18.399  -0.859  36.585  1.00  0.00     0.017 A 
HETATM   30  C25 UNK     1      18.304  -1.292  37.902  1.00  0.00     0.020 A 
HETATM   31  C26 UNK     1      18.055  -0.343  38.881  1.00  0.00     0.116 A 
HETATM   32  N3  UNK     1      17.899   0.977  38.633  1.00  0.00    -0.272 NA
HETATM   33  C24 UNK     1      17.998   1.361  37.341  1.00  0.00     0.130 A 
ENDBRANCH   7  28
TORSDOF 3
ENDMDL
MODEL 6
REMARK VINA RESULT:      -9.2     16.102     21.283
REMARK  3 active torsions:
REMARK  status: ('A' for Active; 'I' for Inactive)
REMARK       I    between atoms: C10_16  and  N1_4 
REMARK    1  A    between atoms: C8_14  and  N1_4 
REMARK    2  A    between atoms: C10_16  and  C2_8 
REMARK    3  A    between atoms: C18_24  and  C7_13 
ROOT
HETATM    1  N2  UNK     1      18.333  -5.627  11.896  1.00  0.00    -0.247 NA
HETATM    2  C1  UNK     1      18.296  -4.988  14.220  1.00  0.00     0.009 A 
HETATM    3  C2  UNK     1      19.119  -3.904  13.917  1.00  0.00     0.047 A 
HETATM    4  C3  UNK     1      17.919  -5.839  13.160  1.00  0.00     0.068 A 
HETATM    5  C4  UNK     1      17.845  -5.241  15.526  1.00  0.00     0.021 A 
HETATM    6  C5  UNK     1      19.551  -3.674  12.626  1.00  0.00     0.050 A 
HETATM    7  C7  UNK     1      19.131  -4.562  11.656  1.00  0.00     0.070 A 
HETATM    8  C9  UNK     1      17.024  -6.332  15.790  1.00  0.00    -0.061 A 
HETATM    9  C12 UNK     1      17.096  -6.924  13.452  1.00  0.00     0.033 A 
HETATM   10  C15 UNK     1      16.649  -7.175  14.751  1.00  0.00     0.009 A 
HETATM   11  C19 UNK     1      16.548  -6.598  17.179  1.00  0.00     0.048 C 
ENDROOT
BRANCH   3  12
HETATM   12  C10 UNK     1      19.573  -2.952  14.946  1.00  0.00     0.257 C 
HETATM   13  O2  UNK     1      20.618  -3.141  15.564  1.00  0.00    -0.267 OA
HETATM   14  N1  UNK     1      18.749  -1.823  15.122  1.00  0.00    -0.323 N 
HETATM   15  H4  UNK     1      17.911  -1.780  14.544  1.00  0.00     0.169 HD
BRANCH  14  16
HETATM   16  C8  UNK     1      18.930  -0.741  15.984  1.00  0.00     0.037 A 
HETATM   17  C13 UNK     1      18.866  -0.928  17.360  1.00  0.00     0.067 A 
HETATM   18  C11 UNK     1      19.052   0.168  18.205  1.00  0.00     0.092 A 
HETATM   19  O1  UNK     1      18.976  -0.083  19.590  1.00  0.00    -0.275 OA
HETATM   20  C6  UNK     1      19.300   1.452  17.718  1.00  0.00     0.004 A 
HETATM   21  C22 UNK     1      19.144   0.931  20.521  1.00  0.00     0.288 A 
HETATM   22  C20 UNK     1      19.406   2.279  19.991  1.00  0.00     0.090 A 
HETATM   23  O3  UNK     1      19.082   0.723  21.727  1.00  0.00    -0.260 OA
HETATM   24  C14 UNK     1      19.483   2.548  18.680  1.00  0.00    -0.043 A 
HETATM   25  C21 UNK     1      19.752   3.939  18.187  1.00  0.00     0.049 C 
HETATM   26  C16 UNK     1      19.360   1.619  16.328  1.00  0.00     0.017 A 
HETATM   27  C17 UNK     1      19.177   0.530  15.468  1.00  0.00     0.030 A 
ENDBRANCH  14  16
ENDBRANCH   3  12
BRANCH   7  28
HETATM   28  C18 UNK     1      19.531  -4.403  10.278  1.00  0.00     0.010 A 
HETATM   29  C23 UNK     1      19.469  -5.467   9.385  1.00  0.00     0.017 A 
HETATM   30  C25 UNK     1      19.861  -5.284   8.064  1.00  0.00     0.020 A 
HETATM   31  C26 UNK     1      20.305  -4.026   7.688  1.00  0.00     0.116 A 
HETATM   32  N3  UNK     1      20.379  -2.968   8.526  1.00  0.00    -0.272 NA
HETATM   33  C24 UNK     1      19.990  -3.184   9.803  1.00  0.00     0.130 A 
ENDBRANCH   7  28
TORSDOF 3
ENDMDL
MODEL 7
REMARK VINA RESULT:      -9.2      7.372     13.550
REMARK  3 active torsions:
REMARK  status: ('A' for Active; 'I' for Inactive)
REMARK       I    between atoms: C10_16  and  N1_4 
REMARK    1  A    between atoms: C8_14  and  N1_4 
REMARK    2  A    between atoms: C10_16  and  C2_8 
REMARK    3  A    between atoms: C18_24  and  C7_13 
ROOT
HETATM    1  N2  UNK     1      18.263   1.757  33.074  1.00  0.00    -0.247 NA
HETATM    2  C1  UNK     1      18.471   4.057  32.382  1.00  0.00     0.009 A 
HETATM    3  C2  UNK     1      18.311   4.453  33.709  1.00  0.00     0.047 A 
HETATM    4  C3  UNK     1      18.440   2.674  32.104  1.00  0.00     0.068 A 
HETATM    5  C4  UNK     1      18.658   4.985  31.344  1.00  0.00     0.021 A 
HETATM    6  C5  UNK     1      18.129   3.524  34.715  1.00  0.00     0.050 A 
HETATM    7  C7  UNK     1      18.112   2.194  34.346  1.00  0.00     0.070 A 
HETATM    8  C9  UNK     1      18.814   4.552  30.031  1.00  0.00    -0.061 A 
HETATM    9  C12 UNK     1      18.600   2.268  30.782  1.00  0.00     0.033 A 
HETATM   10  C15 UNK     1      18.785   3.191  29.750  1.00  0.00     0.009 A 
HETATM   11  C19 UNK     1      19.011   5.539  28.931  1.00  0.00     0.048 C 
ENDROOT
BRANCH   3  12
HETATM   12  C10 UNK     1      18.327   5.869  34.113  1.00  0.00     0.257 C 
HETATM   13  O2  UNK     1      19.332   6.373  34.610  1.00  0.00    -0.267 OA
HETATM   14  N1  UNK     1      17.139   6.581  33.850  1.00  0.00    -0.323 N 
HETATM   15  H4  UNK     1      16.378   6.050  33.430  1.00  0.00     0.169 HD
BRANCH  14  16
HETATM   16  C8  UNK     1      16.864   7.928  34.082  1.00  0.00     0.037 A 
HETATM   17  C13 UNK     1      17.765   8.905  33.674  1.00  0.00     0.067 A 
HETATM   18  C11 UNK     1      17.470  10.248  33.915  1.00  0.00     0.092 A 
HETATM   19  O1  UNK     1      18.421  11.192  33.478  1.00  0.00    -0.275 OA
HETATM   20  C6  UNK     1      16.296  10.650  34.555  1.00  0.00     0.004 A 
HETATM   21  C22 UNK     1      18.231  12.553  33.665  1.00  0.00     0.288 A 
HETATM   22  C20 UNK     1      16.988  12.960  34.342  1.00  0.00     0.090 A 
HETATM   23  O3  UNK     1      19.051  13.382  33.288  1.00  0.00    -0.260 OA
HETATM   24  C14 UNK     1      16.067  12.086  34.768  1.00  0.00    -0.043 A 
HETATM   25  C21 UNK     1      14.815  12.549  35.453  1.00  0.00     0.049 C 
HETATM   26  C16 UNK     1      15.401   9.650  34.959  1.00  0.00     0.017 A 
HETATM   27  C17 UNK     1      15.683   8.300  34.724  1.00  0.00     0.030 A 
ENDBRANCH  14  16
ENDBRANCH   3  12
BRANCH   7  28
HETATM   28  C18 UNK     1      17.927   1.151  35.327  1.00  0.00     0.010 A 
HETATM   29  C23 UNK     1      17.746   1.455  36.672  1.00  0.00     0.017 A 
HETATM   30  C25 UNK     1      17.571   0.429  37.593  1.00  0.00     0.020 A 
HETATM   31  C26 UNK     1      17.585  -0.874  37.124  1.00  0.00     0.116 A 
HETATM   32  N3  UNK     1      17.758  -1.209  35.825  1.00  0.00    -0.272 NA
HETATM   33  C24 UNK     1      17.926  -0.185  34.959  1.00  0.00     0.130 A 
ENDBRANCH   7  28
TORSDOF 3
ENDMDL
MODEL 8
REMARK VINA RESULT:      -9.1     26.883     29.490
REMARK  3 active torsions:
REMARK  status: ('A' for Active; 'I' for Inactive)
REMARK       I    between atoms: C10_16  and  N1_4 
REMARK    1  A    between atoms: C8_14  and  N1_4 
REMARK    2  A    between atoms: C10_16  and  C2_8 
REMARK    3  A    between atoms: C18_24  and  C7_13 
ROOT
HETATM    1  N2  UNK     1      22.409  13.226   9.639  1.00  0.00    -0.247 NA
HETATM    2  C1  UNK     1      20.269  12.694   8.666  1.00  0.00     0.009 A 
HETATM    3  C2  UNK     1      19.861  12.170   9.892  1.00  0.00     0.047 A 
HETATM    4  C3  UNK     1      21.574  13.222   8.582  1.00  0.00     0.068 A 
HETATM    5  C4  UNK     1      19.425  12.706   7.543  1.00  0.00     0.021 A 
HETATM    6  C5  UNK     1      20.706  12.167  10.984  1.00  0.00     0.050 A 
HETATM    7  C7  UNK     1      21.965  12.705  10.806  1.00  0.00     0.070 A 
HETATM    8  C9  UNK     1      19.867  13.239   6.335  1.00  0.00    -0.061 A 
HETATM    9  C12 UNK     1      21.991  13.749   7.362  1.00  0.00     0.033 A 
HETATM   10  C15 UNK     1      21.152  13.761   6.246  1.00  0.00     0.009 A 
HETATM   11  C19 UNK     1      18.970  13.249   5.144  1.00  0.00     0.048 C 
ENDROOT
BRANCH   3  12
HETATM   12  C10 UNK     1      18.520  11.594  10.092  1.00  0.00     0.257 C 
HETATM   13  O2  UNK     1      17.668  12.189  10.748  1.00  0.00    -0.267 OA
HETATM   14  N1  UNK     1      18.297  10.358   9.452  1.00  0.00    -0.323 N 
HETATM   15  H4  UNK     1      19.083   9.969   8.935  1.00  0.00     0.169 HD
BRANCH  14  16
HETATM   16  C8  UNK     1      17.132   9.591   9.427  1.00  0.00     0.037 A 
HETATM   17  C13 UNK     1      17.177   8.243   9.768  1.00  0.00     0.067 A 
HETATM   18  C11 UNK     1      16.000   7.494   9.737  1.00  0.00     0.092 A 
HETATM   19  O1  UNK     1      16.108   6.134  10.093  1.00  0.00    -0.275 OA
HETATM   20  C6  UNK     1      14.771   8.049   9.374  1.00  0.00     0.004 A 
HETATM   21  C22 UNK     1      15.003   5.296  10.097  1.00  0.00     0.288 A 
HETATM   22  C20 UNK     1      13.715   5.897   9.712  1.00  0.00     0.090 A 
HETATM   23  O3  UNK     1      15.085   4.113  10.406  1.00  0.00    -0.260 OA
HETATM   24  C14 UNK     1      13.583   7.186   9.368  1.00  0.00    -0.043 A 
HETATM   25  C21 UNK     1      12.248   7.753   8.983  1.00  0.00     0.049 C 
HETATM   26  C16 UNK     1      14.748   9.408   9.033  1.00  0.00     0.017 A 
HETATM   27  C17 UNK     1      15.920  10.172   9.060  1.00  0.00     0.030 A 
ENDBRANCH  14  16
ENDBRANCH   3  12
BRANCH   7  28
HETATM   28  C18 UNK     1      22.918  12.746  11.890  1.00  0.00     0.010 A 
HETATM   29  C23 UNK     1      24.255  13.050  11.659  1.00  0.00     0.017 A 
HETATM   30  C25 UNK     1      25.148  13.082  12.722  1.00  0.00     0.020 A 
HETATM   31  C26 UNK     1      24.660  12.805  13.989  1.00  0.00     0.116 A 
HETATM   32  N3  UNK     1      23.368  12.506  14.253  1.00  0.00    -0.272 NA
HETATM   33  C24 UNK     1      22.529  12.484  13.194  1.00  0.00     0.130 A 
ENDBRANCH   7  28
TORSDOF 3
ENDMDL
MODEL 9
REMARK VINA RESULT:      -9.0      9.464     12.868
REMARK  3 active torsions:
REMARK  status: ('A' for Active; 'I' for Inactive)
REMARK       I    between atoms: C10_16  and  N1_4 
REMARK    1  A    between atoms: C8_14  and  N1_4 
REMARK    2  A    between atoms: C10_16  and  C2_8 
REMARK    3  A    between atoms: C18_24  and  C7_13 
ROOT
HETATM    1  N2  UNK     1      26.344  -8.619  37.679  1.00  0.00    -0.247 NA
HETATM    2  C1  UNK     1      28.581  -7.870  37.182  1.00  0.00     0.009 A 
HETATM    3  C2  UNK     1      28.628  -8.771  36.118  1.00  0.00     0.047 A 
HETATM    4  C3  UNK     1      27.398  -7.826  37.949  1.00  0.00     0.068 A 
HETATM    5  C4  UNK     1      29.661  -7.027  37.494  1.00  0.00     0.021 A 
HETATM    6  C5  UNK     1      27.555  -9.590  35.828  1.00  0.00     0.050 A 
HETATM    7  C7  UNK     1      26.441  -9.476  36.636  1.00  0.00     0.070 A 
HETATM    8  C9  UNK     1      29.577  -6.141  38.562  1.00  0.00    -0.061 A 
HETATM    9  C12 UNK     1      27.341  -6.929  39.013  1.00  0.00     0.033 A 
HETATM   10  C15 UNK     1      28.416  -6.091  39.323  1.00  0.00     0.009 A 
HETATM   11  C19 UNK     1      30.726  -5.248  38.892  1.00  0.00     0.048 C 
ENDROOT
BRANCH   3  12
HETATM   12  C10 UNK     1      29.812  -8.901  35.251  1.00  0.00     0.257 C 
HETATM   13  O2  UNK     1      30.650  -9.776  35.454  1.00  0.00    -0.267 OA
HETATM   14  N1  UNK     1      29.873  -7.987  34.180  1.00  0.00    -0.323 N 
HETATM   15  H4  UNK     1      29.113  -7.312  34.118  1.00  0.00     0.169 HD
BRANCH  14  16
HETATM   16  C8  UNK     1      30.840  -7.884  33.179  1.00  0.00     0.037 A 
HETATM   17  C13 UNK     1      30.565  -8.340  31.894  1.00  0.00     0.067 A 
HETATM   18  C11 UNK     1      31.546  -8.227  30.908  1.00  0.00     0.092 A 
HETATM   19  O1  UNK     1      31.209  -8.705  29.626  1.00  0.00    -0.275 OA
HETATM   20  C6  UNK     1      32.801  -7.671  31.163  1.00  0.00     0.004 A 
HETATM   21  C22 UNK     1      32.106  -8.643  28.570  1.00  0.00     0.288 A 
HETATM   22  C20 UNK     1      33.425  -8.054  28.856  1.00  0.00     0.090 A 
HETATM   23  O3  UNK     1      31.824  -9.055  27.451  1.00  0.00    -0.260 OA
HETATM   24  C14 UNK     1      33.773  -7.591  30.065  1.00  0.00    -0.043 A 
HETATM   25  C21 UNK     1      35.130  -6.999  30.309  1.00  0.00     0.049 C 
HETATM   26  C16 UNK     1      33.058  -7.218  32.465  1.00  0.00     0.017 A 
HETATM   27  C17 UNK     1      32.084  -7.324  33.464  1.00  0.00     0.030 A 
ENDBRANCH  14  16
ENDBRANCH   3  12
BRANCH   7  28
HETATM   28  C18 UNK     1      25.271 -10.291  36.411  1.00  0.00     0.010 A 
HETATM   29  C23 UNK     1      25.385 -11.644  36.111  1.00  0.00     0.017 A 
HETATM   30  C25 UNK     1      24.240 -12.402  35.899  1.00  0.00     0.020 A 
HETATM   31  C26 UNK     1      23.013 -11.767  35.997  1.00  0.00     0.116 A 
HETATM   32  N3  UNK     1      22.862 -10.454  36.286  1.00  0.00    -0.272 NA
HETATM   33  C24 UNK     1      23.997  -9.749  36.486  1.00  0.00     0.130 A 
ENDBRANCH   7  28
TORSDOF 3
ENDMDL
MODEL 10
REMARK VINA RESULT:      -9.0      7.369     13.536
REMARK  3 active torsions:
REMARK  status: ('A' for Active; 'I' for Inactive)
REMARK       I    between atoms: C10_16  and  N1_4 
REMARK    1  A    between atoms: C8_14  and  N1_4 
REMARK    2  A    between atoms: C10_16  and  C2_8 
REMARK    3  A    between atoms: C18_24  and  C7_13 
ROOT
HETATM    1  N2  UNK     1      18.229   1.738  33.106  1.00  0.00    -0.247 NA
HETATM    2  C1  UNK     1      18.508   4.025  32.397  1.00  0.00     0.009 A 
HETATM    3  C2  UNK     1      18.413   4.432  33.727  1.00  0.00     0.047 A 
HETATM    4  C3  UNK     1      18.409   2.644  32.126  1.00  0.00     0.068 A 
HETATM    5  C4  UNK     1      18.695   4.941  31.348  1.00  0.00     0.021 A 
HETATM    6  C5  UNK     1      18.228   3.514  34.743  1.00  0.00     0.050 A 
HETATM    7  C7  UNK     1      18.143   2.185  34.381  1.00  0.00     0.070 A 
HETATM    8  C9  UNK     1      18.786   4.498  30.033  1.00  0.00    -0.061 A 
HETATM    9  C12 UNK     1      18.504   2.228  30.801  1.00  0.00     0.033 A 
HETATM   10  C15 UNK     1      18.690   3.139  29.759  1.00  0.00     0.009 A 
HETATM   11  C19 UNK     1      18.984   5.474  28.922  1.00  0.00     0.048 C 
ENDROOT
BRANCH   3  12
HETATM   12  C10 UNK     1      18.502   5.847  34.124  1.00  0.00     0.257 C 
HETATM   13  O2  UNK     1      19.519   6.292  34.652  1.00  0.00    -0.267 OA
HETATM   14  N1  UNK     1      17.371   6.628  33.816  1.00  0.00    -0.323 N 
HETATM   15  H4  UNK     1      16.593   6.142  33.373  1.00  0.00     0.169 HD
BRANCH  14  16
HETATM   16  C8  UNK     1      17.171   7.992  34.032  1.00  0.00     0.037 A 
HETATM   17  C13 UNK     1      16.051   8.432  34.729  1.00  0.00     0.067 A 
HETATM   18  C11 UNK     1      15.871   9.800  34.935  1.00  0.00     0.092 A 
HETATM   19  O1  UNK     1      14.718  10.185  35.648  1.00  0.00    -0.275 OA
HETATM   20  C6  UNK     1      16.779  10.751  34.465  1.00  0.00     0.004 A 
HETATM   21  C22 UNK     1      14.438  11.518  35.911  1.00  0.00     0.288 A 
HETATM   22  C20 UNK     1      15.406  12.508  35.409  1.00  0.00     0.090 A 
HETATM   23  O3  UNK     1      13.439  11.863  36.531  1.00  0.00    -0.260 OA
HETATM   24  C14 UNK     1      16.510  12.172  34.728  1.00  0.00    -0.043 A 
HETATM   25  C21 UNK     1      17.467  13.217  34.235  1.00  0.00     0.049 C 
HETATM   26  C16 UNK     1      17.900  10.288  33.765  1.00  0.00     0.017 A 
HETATM   27  C17 UNK     1      18.095   8.919  33.550  1.00  0.00     0.030 A 
ENDBRANCH  14  16
ENDBRANCH   3  12
BRANCH   7  28
HETATM   28  C18 UNK     1      17.951   1.154  35.372  1.00  0.00     0.010 A 
HETATM   29  C23 UNK     1      17.627  -0.147  35.002  1.00  0.00     0.017 A 
HETATM   30  C25 UNK     1      17.448  -1.118  35.980  1.00  0.00     0.020 A 
HETATM   31  C26 UNK     1      17.601  -0.742  37.304  1.00  0.00     0.116 A 
HETATM   32  N3  UNK     1      17.915   0.511  37.703  1.00  0.00    -0.272 NA
HETATM   33  C24 UNK     1      18.082   1.429  36.724  1.00  0.00     0.130 A 
ENDBRANCH   7  28
TORSDOF 3
ENDMDL
