MODEL 1
REMARK VINA RESULT:     -10.8      0.000      0.000
REMARK  5 active torsions:
REMARK  status: ('A' for Active; 'I' for Inactive)
REMARK    1  A    between atoms: C5_11  and  N1_4 
REMARK    2  A    between atoms: C6_12  and  N2_5 
REMARK    3  A    between atoms: C5_11  and  C7_13 
REMARK    4  A    between atoms: C6_12  and  C8_14 
REMARK    5  A    between atoms: C14_20  and  C20_26 
ROOT
HETATM    1  N1  UNK     1      19.208  -3.196  36.073  1.00  0.00     0.096 N 
HETATM    2  N2  UNK     1      17.993  -0.661  35.397  1.00  0.00     0.097 N 
HETATM    3  C1  UNK     1      19.905  -2.218  35.230  1.00  0.00     0.303 C 
HETATM    4  C2  UNK     1      18.298  -2.515  37.003  1.00  0.00     0.303 C 
HETATM    5  C3  UNK     1      18.903  -1.342  34.468  1.00  0.00     0.303 C 
HETATM    6  C4  UNK     1      17.297  -1.639  36.242  1.00  0.00     0.303 C 
ENDROOT
BRANCH   2   7
HETATM    7  C6  UNK     1      17.036   0.170  34.670  1.00  0.00     0.334 C 
BRANCH   7   8
HETATM    8  C8  UNK     1      17.677   1.478  34.333  1.00  0.00     0.095 A 
HETATM    9  C10 UNK     1      18.454   2.289  35.123  1.00  0.00     0.078 A 
HETATM   10  O1  UNK     1      18.813   3.376  34.383  1.00  0.00    -0.294 OA
HETATM   11  C16 UNK     1      18.943   2.230  36.504  1.00  0.00     0.079 C 
HETATM   12  C14 UNK     1      18.222   3.149  33.178  1.00  0.00     0.180 A 
HETATM   13  N3  UNK     1      17.533   2.035  33.088  1.00  0.00    -0.224 NA
BRANCH  12  14
HETATM   14  C20 UNK     1      18.445   4.166  32.188  1.00  0.00     0.023 A 
HETATM   15  C21 UNK     1      18.744   3.832  30.868  1.00  0.00    -0.048 A 
HETATM   16  C24 UNK     1      18.955   4.837  29.924  1.00  0.00     0.007 A 
HETATM   17  C25 UNK     1      18.848   2.407  30.425  1.00  0.00     0.049 C 
HETATM   18  C27 UNK     1      18.865   6.177  30.302  1.00  0.00     0.001 A 
HETATM   19  C26 UNK     1      18.565   6.512  31.622  1.00  0.00     0.001 A 
HETATM   20  C23 UNK     1      18.355   5.506  32.565  1.00  0.00     0.016 A 
ENDBRANCH  12  14
ENDBRANCH   7   8
ENDBRANCH   2   7
BRANCH   1  21
HETATM   21  C5  UNK     1      20.163  -4.030  36.800  1.00  0.00     0.312 C 
BRANCH  21  22
HETATM   22  C7  UNK     1      20.198  -5.426  36.282  1.00  0.00    -0.011 A 
HETATM   23  C11 UNK     1      20.299  -5.675  34.968  1.00  0.00     0.092 A 
HETATM   24  C15 UNK     1      20.338  -7.037  34.410  1.00  0.00     0.288 A 
HETATM   25  O2  UNK     1      20.262  -8.084  35.316  1.00  0.00    -0.275 OA
HETATM   26  O3  UNK     1      20.431  -7.227  33.202  1.00  0.00    -0.260 OA
HETATM   27  C12 UNK     1      20.155  -7.853  36.702  1.00  0.00     0.090 A 
HETATM   28  C9  UNK     1      20.119  -6.557  37.217  1.00  0.00     0.006 A 
HETATM   29  C17 UNK     1      20.085  -8.982  37.519  1.00  0.00     0.045 A 
HETATM   30  C13 UNK     1      20.011  -6.412  38.606  1.00  0.00     0.015 A 
HETATM   31  C18 UNK     1      19.940  -7.534  39.439  1.00  0.00     0.007 A 
HETATM   32  C19 UNK     1      19.978  -8.818  38.896  1.00  0.00    -0.059 A 
HETATM   33  C22 UNK     1      19.904 -10.009  39.790  1.00  0.00     0.048 C 
ENDBRANCH  21  22
ENDBRANCH   1  21
TORSDOF 5
ENDMDL
MODEL 2
REMARK VINA RESULT:     -10.4      2.157      3.239
REMARK  5 active torsions:
REMARK  status: ('A' for Active; 'I' for Inactive)
REMARK    1  A    between atoms: C5_11  and  N1_4 
REMARK    2  A    between atoms: C6_12  and  N2_5 
REMARK    3  A    between atoms: C5_11  and  C7_13 
REMARK    4  A    between atoms: C6_12  and  C8_14 
REMARK    5  A    between atoms: C14_20  and  C20_26 
ROOT
HETATM    1  N1  UNK     1      19.886  -4.027  36.663  1.00  0.00     0.096 N 
HETATM    2  N2  UNK     1      18.886  -1.356  36.185  1.00  0.00     0.097 N 
HETATM    3  C1  UNK     1      18.575  -3.601  37.170  1.00  0.00     0.303 C 
HETATM    4  C2  UNK     1      20.222  -3.295  35.435  1.00  0.00     0.303 C 
HETATM    5  C3  UNK     1      18.549  -2.088  37.413  1.00  0.00     0.303 C 
HETATM    6  C4  UNK     1      20.196  -1.782  35.678  1.00  0.00     0.303 C 
ENDROOT
BRANCH   2   7
HETATM    7  C6  UNK     1      18.865   0.086  36.420  1.00  0.00     0.334 C 
BRANCH   7   8
HETATM    8  C8  UNK     1      18.258   0.768  35.236  1.00  0.00     0.095 A 
HETATM    9  C10 UNK     1      16.960   0.733  34.789  1.00  0.00     0.078 A 
HETATM   10  O1  UNK     1      16.880   1.511  33.673  1.00  0.00    -0.294 OA
HETATM   11  C16 UNK     1      15.728   0.075  35.236  1.00  0.00     0.079 C 
HETATM   12  C14 UNK     1      18.150   1.973  33.515  1.00  0.00     0.180 A 
HETATM   13  N3  UNK     1      19.015   1.565  34.415  1.00  0.00    -0.224 NA
BRANCH  12  14
HETATM   14  C20 UNK     1      18.350   2.838  32.385  1.00  0.00     0.023 A 
HETATM   15  C21 UNK     1      18.376   4.223  32.535  1.00  0.00    -0.048 A 
HETATM   16  C24 UNK     1      18.572   5.042  31.422  1.00  0.00     0.007 A 
HETATM   17  C25 UNK     1      18.196   4.870  33.872  1.00  0.00     0.049 C 
HETATM   18  C27 UNK     1      18.744   4.473  30.160  1.00  0.00     0.001 A 
HETATM   19  C26 UNK     1      18.719   3.086  30.010  1.00  0.00     0.001 A 
HETATM   20  C23 UNK     1      18.523   2.269  31.123  1.00  0.00     0.016 A 
ENDBRANCH  12  14
ENDBRANCH   7   8
ENDBRANCH   2   7
BRANCH   1  21
HETATM   21  C5  UNK     1      19.910  -5.470  36.430  1.00  0.00     0.312 C 
BRANCH  21  22
HETATM   22  C7  UNK     1      21.069  -6.126  37.095  1.00  0.00    -0.011 A 
HETATM   23  C11 UNK     1      21.751  -5.508  38.070  1.00  0.00     0.092 A 
HETATM   24  C15 UNK     1      22.902  -6.117  38.756  1.00  0.00     0.288 A 
HETATM   25  O2  UNK     1      23.270  -7.389  38.345  1.00  0.00    -0.275 OA
HETATM   26  O3  UNK     1      23.502  -5.521  39.644  1.00  0.00    -0.260 OA
HETATM   27  C12 UNK     1      22.573  -8.064  37.324  1.00  0.00     0.090 A 
HETATM   28  C9  UNK     1      21.483  -7.474  36.682  1.00  0.00     0.006 A 
HETATM   29  C17 UNK     1      23.032  -9.340  36.993  1.00  0.00     0.045 A 
HETATM   30  C13 UNK     1      20.844  -8.211  35.676  1.00  0.00     0.015 A 
HETATM   31  C18 UNK     1      21.292  -9.491  35.332  1.00  0.00     0.007 A 
HETATM   32  C19 UNK     1      22.384 -10.056  35.991  1.00  0.00    -0.059 A 
HETATM   33  C22 UNK     1      22.855 -11.421  35.621  1.00  0.00     0.048 C 
ENDBRANCH  21  22
ENDBRANCH   1  21
TORSDOF 5
ENDMDL
MODEL 3
REMARK VINA RESULT:     -10.1      3.887     12.225
REMARK  5 active torsions:
REMARK  status: ('A' for Active; 'I' for Inactive)
REMARK    1  A    between atoms: C5_11  and  N1_4 
REMARK    2  A    between atoms: C6_12  and  N2_5 
REMARK    3  A    between atoms: C5_11  and  C7_13 
REMARK    4  A    between atoms: C6_12  and  C8_14 
REMARK    5  A    between atoms: C14_20  and  C20_26 
ROOT
HETATM    1  N1  UNK     1      18.168   5.287  31.674  1.00  0.00     0.096 N 
HETATM    2  N2  UNK     1      19.022   2.593  31.062  1.00  0.00     0.097 N 
HETATM    3  C1  UNK     1      18.179   4.239  32.702  1.00  0.00     0.303 C 
HETATM    4  C2  UNK     1      19.202   5.026  30.665  1.00  0.00     0.303 C 
HETATM    5  C3  UNK     1      17.988   2.855  32.072  1.00  0.00     0.303 C 
HETATM    6  C4  UNK     1      19.011   3.642  30.035  1.00  0.00     0.303 C 
ENDROOT
BRANCH   2   7
HETATM    7  C6  UNK     1      18.836   1.275  30.459  1.00  0.00     0.334 C 
BRANCH   7   8
HETATM    8  C8  UNK     1      19.071   0.223  31.495  1.00  0.00     0.095 A 
HETATM    9  C10 UNK     1      19.726  -0.978  31.374  1.00  0.00     0.078 A 
HETATM   10  O1  UNK     1      19.688  -1.599  32.586  1.00  0.00    -0.294 OA
HETATM   11  C16 UNK     1      20.411  -1.680  30.284  1.00  0.00     0.079 C 
HETATM   12  C14 UNK     1      19.004  -0.723  33.372  1.00  0.00     0.180 A 
HETATM   13  N3  UNK     1      18.612   0.380  32.778  1.00  0.00    -0.224 NA
BRANCH  12  14
HETATM   14  C20 UNK     1      18.816  -1.141  34.734  1.00  0.00     0.023 A 
HETATM   15  C21 UNK     1      17.681  -0.769  35.451  1.00  0.00    -0.048 A 
HETATM   16  C24 UNK     1      17.521  -1.188  36.772  1.00  0.00     0.007 A 
HETATM   17  C25 UNK     1      16.611   0.080  34.839  1.00  0.00     0.049 C 
HETATM   18  C27 UNK     1      18.498  -1.981  37.375  1.00  0.00     0.001 A 
HETATM   19  C26 UNK     1      19.634  -2.354  36.657  1.00  0.00     0.001 A 
HETATM   20  C23 UNK     1      19.793  -1.935  35.337  1.00  0.00     0.016 A 
ENDBRANCH  12  14
ENDBRANCH   7   8
ENDBRANCH   2   7
BRANCH   1  21
HETATM   21  C5  UNK     1      18.351   6.607  32.275  1.00  0.00     0.312 C 
BRANCH  21  22
HETATM   22  C7  UNK     1      17.058   7.316  32.479  1.00  0.00    -0.011 A 
HETATM   23  C11 UNK     1      15.898   6.766  32.092  1.00  0.00     0.092 A 
HETATM   24  C15 UNK     1      14.595   7.428  32.272  1.00  0.00     0.288 A 
HETATM   25  O2  UNK     1      14.609   8.678  32.874  1.00  0.00    -0.275 OA
HETATM   26  O3  UNK     1      13.553   6.894  31.905  1.00  0.00    -0.260 OA
HETATM   27  C12 UNK     1      15.812   9.281  33.291  1.00  0.00     0.090 A 
HETATM   28  C9  UNK     1      17.040   8.641  33.113  1.00  0.00     0.006 A 
HETATM   29  C17 UNK     1      15.707  10.539  33.884  1.00  0.00     0.045 A 
HETATM   30  C13 UNK     1      18.190   9.307  33.555  1.00  0.00     0.015 A 
HETATM   31  C18 UNK     1      18.101  10.570  34.151  1.00  0.00     0.007 A 
HETATM   32  C19 UNK     1      16.861  11.185  34.317  1.00  0.00    -0.059 A 
HETATM   33  C22 UNK     1      16.772  12.530  34.954  1.00  0.00     0.048 C 
ENDBRANCH  21  22
ENDBRANCH   1  21
TORSDOF 5
ENDMDL
MODEL 4
REMARK VINA RESULT:      -9.8      1.773      2.863
REMARK  5 active torsions:
REMARK  status: ('A' for Active; 'I' for Inactive)
REMARK    1  A    between atoms: C5_11  and  N1_4 
REMARK    2  A    between atoms: C6_12  and  N2_5 
REMARK    3  A    between atoms: C5_11  and  C7_13 
REMARK    4  A    between atoms: C6_12  and  C8_14 
REMARK    5  A    between atoms: C14_20  and  C20_26 
ROOT
HETATM    1  N1  UNK     1      19.504  -3.433  36.415  1.00  0.00     0.096 N 
HETATM    2  N2  UNK     1      17.912  -1.020  36.335  1.00  0.00     0.097 N 
HETATM    3  C1  UNK     1      20.117  -2.109  36.577  1.00  0.00     0.303 C 
HETATM    4  C2  UNK     1      18.118  -3.418  36.899  1.00  0.00     0.303 C 
HETATM    5  C3  UNK     1      19.299  -1.035  35.851  1.00  0.00     0.303 C 
HETATM    6  C4  UNK     1      17.299  -2.344  36.174  1.00  0.00     0.303 C 
ENDROOT
BRANCH   2   7
HETATM    7  C6  UNK     1      17.131   0.001  35.639  1.00  0.00     0.334 C 
BRANCH   7   8
HETATM    8  C8  UNK     1      17.868   0.431  34.411  1.00  0.00     0.095 A 
HETATM    9  C10 UNK     1      18.390   1.664  34.104  1.00  0.00     0.078 A 
HETATM   10  O1  UNK     1      18.973   1.577  32.875  1.00  0.00    -0.294 OA
HETATM   11  C16 UNK     1      18.445   2.964  34.780  1.00  0.00     0.079 C 
HETATM   12  C14 UNK     1      18.763   0.282  32.514  1.00  0.00     0.180 A 
HETATM   13  N3  UNK     1      18.111  -0.450  33.389  1.00  0.00    -0.224 NA
BRANCH  12  14
HETATM   14  C20 UNK     1      19.288  -0.087  31.228  1.00  0.00     0.023 A 
HETATM   15  C21 UNK     1      19.103   0.729  30.114  1.00  0.00    -0.048 A 
HETATM   16  C24 UNK     1      19.623   0.349  28.877  1.00  0.00     0.007 A 
HETATM   17  C25 UNK     1      18.351   2.019  30.204  1.00  0.00     0.049 C 
HETATM   18  C27 UNK     1      20.331  -0.847  28.756  1.00  0.00     0.001 A 
HETATM   19  C26 UNK     1      20.517  -1.664  29.871  1.00  0.00     0.001 A 
HETATM   20  C23 UNK     1      19.996  -1.283  31.108  1.00  0.00     0.016 A 
ENDBRANCH  12  14
ENDBRANCH   7   8
ENDBRANCH   2   7
BRANCH   1  21
HETATM   21  C5  UNK     1      20.285  -4.456  37.108  1.00  0.00     0.312 C 
BRANCH  21  22
HETATM   22  C7  UNK     1      20.256  -5.763  36.396  1.00  0.00    -0.011 A 
HETATM   23  C11 UNK     1      20.440  -5.834  35.070  1.00  0.00     0.092 A 
HETATM   24  C15 UNK     1      20.420  -7.102  34.323  1.00  0.00     0.288 A 
HETATM   25  O2  UNK     1      20.196  -8.256  35.060  1.00  0.00    -0.275 OA
HETATM   26  O3  UNK     1      20.593  -7.129  33.109  1.00  0.00    -0.260 OA
HETATM   27  C12 UNK     1      19.999  -8.213  36.454  1.00  0.00     0.090 A 
HETATM   28  C9  UNK     1      20.020  -7.002  37.149  1.00  0.00     0.006 A 
HETATM   29  C17 UNK     1      19.781  -9.435  37.092  1.00  0.00     0.045 A 
HETATM   30  C13 UNK     1      19.815  -7.044  38.534  1.00  0.00     0.015 A 
HETATM   31  C18 UNK     1      19.596  -8.262  39.189  1.00  0.00     0.007 A 
HETATM   32  C19 UNK     1      19.580  -9.456  38.468  1.00  0.00    -0.059 A 
HETATM   33  C22 UNK     1      19.347 -10.750  39.171  1.00  0.00     0.048 C 
ENDBRANCH  21  22
ENDBRANCH   1  21
TORSDOF 5
ENDMDL
MODEL 5
REMARK VINA RESULT:      -9.7     14.057     17.680
REMARK  5 active torsions:
REMARK  status: ('A' for Active; 'I' for Inactive)
REMARK    1  A    between atoms: C5_11  and  N1_4 
REMARK    2  A    between atoms: C6_12  and  N2_5 
REMARK    3  A    between atoms: C5_11  and  C7_13 
REMARK    4  A    between atoms: C6_12  and  C8_14 
REMARK    5  A    between atoms: C14_20  and  C20_26 
ROOT
HETATM    1  N1  UNK     1      31.932  -5.842  35.895  1.00  0.00     0.096 N 
HETATM    2  N2  UNK     1      34.508  -6.397  34.705  1.00  0.00     0.097 N 
HETATM    3  C1  UNK     1      32.605  -4.857  35.040  1.00  0.00     0.303 C 
HETATM    4  C2  UNK     1      32.313  -7.205  35.503  1.00  0.00     0.303 C 
HETATM    5  C3  UNK     1      34.126  -5.034  35.097  1.00  0.00     0.303 C 
HETATM    6  C4  UNK     1      33.834  -7.383  35.559  1.00  0.00     0.303 C 
ENDROOT
BRANCH   2   7
HETATM    7  C6  UNK     1      35.958  -6.566  34.763  1.00  0.00     0.334 C 
BRANCH   7   8
HETATM    8  C8  UNK     1      36.380  -7.553  33.723  1.00  0.00     0.095 A 
HETATM    9  C10 UNK     1      36.190  -7.512  32.364  1.00  0.00     0.078 A 
HETATM   10  O1  UNK     1      36.749  -8.633  31.829  1.00  0.00    -0.294 OA
HETATM   11  C16 UNK     1      35.552  -6.574  31.435  1.00  0.00     0.079 C 
HETATM   12  C14 UNK     1      37.249  -9.288  32.912  1.00  0.00     0.180 A 
HETATM   13  N3  UNK     1      37.060  -8.694  34.068  1.00  0.00    -0.224 NA
BRANCH  12  14
HETATM   14  C20 UNK     1      37.908 -10.533  32.624  1.00  0.00     0.023 A 
HETATM   15  C21 UNK     1      37.190 -11.725  32.545  1.00  0.00    -0.048 A 
HETATM   16  C24 UNK     1      37.853 -12.920  32.263  1.00  0.00     0.007 A 
HETATM   17  C25 UNK     1      35.710 -11.765  32.755  1.00  0.00     0.049 C 
HETATM   18  C27 UNK     1      39.233 -12.921  32.060  1.00  0.00     0.001 A 
HETATM   19  C26 UNK     1      39.951 -11.728  32.139  1.00  0.00     0.001 A 
HETATM   20  C23 UNK     1      39.288 -10.533  32.421  1.00  0.00     0.016 A 
ENDBRANCH  12  14
ENDBRANCH   7   8
ENDBRANCH   2   7
BRANCH   1  21
HETATM   21  C5  UNK     1      30.481  -5.673  35.840  1.00  0.00     0.312 C 
BRANCH  21  22
HETATM   22  C7  UNK     1      29.868  -5.632  37.197  1.00  0.00    -0.011 A 
HETATM   23  C11 UNK     1      29.939  -4.529  37.956  1.00  0.00     0.092 A 
HETATM   24  C15 UNK     1      29.349  -4.440  39.302  1.00  0.00     0.288 A 
HETATM   25  O2  UNK     1      28.700  -5.571  39.773  1.00  0.00    -0.275 OA
HETATM   26  O3  UNK     1      29.434  -3.414  39.968  1.00  0.00    -0.260 OA
HETATM   27  C12 UNK     1      28.609  -6.745  38.999  1.00  0.00     0.090 A 
HETATM   28  C9  UNK     1      29.174  -6.814  37.724  1.00  0.00     0.006 A 
HETATM   29  C17 UNK     1      27.933  -7.822  39.574  1.00  0.00     0.045 A 
HETATM   30  C13 UNK     1      29.041  -8.017  37.018  1.00  0.00     0.015 A 
HETATM   31  C18 UNK     1      28.365  -9.106  37.581  1.00  0.00     0.007 A 
HETATM   32  C19 UNK     1      27.811  -9.008  38.857  1.00  0.00    -0.059 A 
HETATM   33  C22 UNK     1      27.092 -10.171  39.451  1.00  0.00     0.048 C 
ENDBRANCH  21  22
ENDBRANCH   1  21
TORSDOF 5
ENDMDL
MODEL 6
REMARK VINA RESULT:      -9.5     27.073     30.358
REMARK  5 active torsions:
REMARK  status: ('A' for Active; 'I' for Inactive)
REMARK    1  A    between atoms: C5_11  and  N1_4 
REMARK    2  A    between atoms: C6_12  and  N2_5 
REMARK    3  A    between atoms: C5_11  and  C7_13 
REMARK    4  A    between atoms: C6_12  and  C8_14 
REMARK    5  A    between atoms: C14_20  and  C20_26 
ROOT
HETATM    1  N1  UNK     1      15.450   9.425   9.649  1.00  0.00     0.096 N 
HETATM    2  N2  UNK     1      16.772  11.897   8.939  1.00  0.00     0.097 N 
HETATM    3  C1  UNK     1      16.312  10.131  10.605  1.00  0.00     0.303 C 
HETATM    4  C2  UNK     1      14.835  10.377   8.715  1.00  0.00     0.303 C 
HETATM    5  C3  UNK     1      17.385  10.945   9.874  1.00  0.00     0.303 C 
HETATM    6  C4  UNK     1      15.908  11.192   7.984  1.00  0.00     0.303 C 
ENDROOT
BRANCH   2   7
HETATM    7  C6  UNK     1      17.795  12.670   8.240  1.00  0.00     0.334 C 
BRANCH   7   8
HETATM    8  C8  UNK     1      17.149  13.818   7.534  1.00  0.00     0.095 A 
HETATM    9  C10 UNK     1      17.462  14.373   6.318  1.00  0.00     0.078 A 
HETATM   10  O1  UNK     1      16.595  15.399   6.089  1.00  0.00    -0.294 OA
HETATM   11  C16 UNK     1      18.469  14.106   5.286  1.00  0.00     0.079 C 
HETATM   12  C14 UNK     1      15.803  15.399   7.196  1.00  0.00     0.180 A 
HETATM   13  N3  UNK     1      16.084  14.480   8.091  1.00  0.00    -0.224 NA
BRANCH  12  14
HETATM   14  C20 UNK     1      14.778  16.406   7.214  1.00  0.00     0.023 A 
HETATM   15  C21 UNK     1      14.973  17.619   7.872  1.00  0.00    -0.048 A 
HETATM   16  C24 UNK     1      13.963  18.581   7.875  1.00  0.00     0.007 A 
HETATM   17  C25 UNK     1      16.251  17.927   8.585  1.00  0.00     0.049 C 
HETATM   18  C27 UNK     1      12.758  18.329   7.219  1.00  0.00     0.001 A 
HETATM   19  C26 UNK     1      12.562  17.115   6.560  1.00  0.00     0.001 A 
HETATM   20  C23 UNK     1      13.573  16.153   6.558  1.00  0.00     0.016 A 
ENDBRANCH  12  14
ENDBRANCH   7   8
ENDBRANCH   2   7
BRANCH   1  21
HETATM   21  C5  UNK     1      14.426   8.649  10.347  1.00  0.00     0.312 C 
BRANCH  21  22
HETATM   22  C7  UNK     1      14.253   7.292   9.760  1.00  0.00    -0.011 A 
HETATM   23  C11 UNK     1      15.091   6.292  10.068  1.00  0.00     0.092 A 
HETATM   24  C15 UNK     1      14.960   4.934   9.514  1.00  0.00     0.288 A 
HETATM   25  O2  UNK     1      13.909   4.719   8.635  1.00  0.00    -0.275 OA
HETATM   26  O3  UNK     1      15.746   4.043   9.818  1.00  0.00    -0.260 OA
HETATM   27  C12 UNK     1      13.012   5.751   8.292  1.00  0.00     0.090 A 
HETATM   28  C9  UNK     1      13.150   7.033   8.825  1.00  0.00     0.006 A 
HETATM   29  C17 UNK     1      11.993   5.420   7.398  1.00  0.00     0.045 A 
HETATM   30  C13 UNK     1      12.217   8.003   8.435  1.00  0.00     0.015 A 
HETATM   31  C18 UNK     1      11.189   7.688   7.539  1.00  0.00     0.007 A 
HETATM   32  C19 UNK     1      11.077   6.397   7.022  1.00  0.00    -0.059 A 
HETATM   33  C22 UNK     1       9.979   6.067   6.069  1.00  0.00     0.048 C 
ENDBRANCH  21  22
ENDBRANCH   1  21
TORSDOF 5
ENDMDL
MODEL 7
REMARK VINA RESULT:      -9.5     27.440     30.419
REMARK  5 active torsions:
REMARK  status: ('A' for Active; 'I' for Inactive)
REMARK    1  A    between atoms: C5_11  and  N1_4 
REMARK    2  A    between atoms: C6_12  and  N2_5 
REMARK    3  A    between atoms: C5_11  and  C7_13 
REMARK    4  A    between atoms: C6_12  and  C8_14 
REMARK    5  A    between atoms: C14_20  and  C20_26 
ROOT
HETATM    1  N1  UNK     1      15.316   9.096   9.636  1.00  0.00     0.096 N 
HETATM    2  N2  UNK     1      13.416   6.940   9.319  1.00  0.00     0.097 N 
HETATM    3  C1  UNK     1      14.113   9.256   8.810  1.00  0.00     0.303 C 
HETATM    4  C2  UNK     1      15.073   8.130  10.714  1.00  0.00     0.303 C 
HETATM    5  C3  UNK     1      13.659   7.907   8.241  1.00  0.00     0.303 C 
HETATM    6  C4  UNK     1      14.619   6.781  10.145  1.00  0.00     0.303 C 
ENDROOT
BRANCH   2   7
HETATM    7  C6  UNK     1      12.988   5.654   8.774  1.00  0.00     0.334 C 
BRANCH   7   8
HETATM    8  C8  UNK     1      11.507   5.673   8.573  1.00  0.00     0.095 A 
HETATM    9  C10 UNK     1      10.794   5.874   7.417  1.00  0.00     0.078 A 
HETATM   10  O1  UNK     1       9.468   5.803   7.725  1.00  0.00    -0.294 OA
HETATM   11  C16 UNK     1      11.142   6.130   6.016  1.00  0.00     0.079 C 
HETATM   12  C14 UNK     1       9.464   5.561   9.064  1.00  0.00     0.180 A 
HETATM   13  N3  UNK     1      10.649   5.473   9.625  1.00  0.00    -0.224 NA
BRANCH  12  14
HETATM   14  C20 UNK     1       8.163   5.438   9.660  1.00  0.00     0.023 A 
HETATM   15  C21 UNK     1       7.445   6.565  10.060  1.00  0.00    -0.048 A 
HETATM   16  C24 UNK     1       6.183   6.419  10.636  1.00  0.00     0.007 A 
HETATM   17  C25 UNK     1       7.995   7.945   9.888  1.00  0.00     0.049 C 
HETATM   18  C27 UNK     1       5.638   5.147  10.810  1.00  0.00     0.001 A 
HETATM   19  C26 UNK     1       6.356   4.020  10.410  1.00  0.00     0.001 A 
HETATM   20  C23 UNK     1       7.618   4.166   9.834  1.00  0.00     0.016 A 
ENDBRANCH  12  14
ENDBRANCH   7   8
ENDBRANCH   2   7
BRANCH   1  21
HETATM   21  C5  UNK     1      15.748  10.383  10.180  1.00  0.00     0.312 C 
BRANCH  21  22
HETATM   22  C7  UNK     1      16.616  11.132   9.229  1.00  0.00    -0.011 A 
HETATM   23  C11 UNK     1      17.855  10.707   8.941  1.00  0.00     0.092 A 
HETATM   24  C15 UNK     1      18.749  11.413   8.008  1.00  0.00     0.288 A 
HETATM   25  O2  UNK     1      18.252  12.567   7.422  1.00  0.00    -0.275 OA
HETATM   26  O3  UNK     1      19.876  10.994   7.768  1.00  0.00    -0.260 OA
HETATM   27  C12 UNK     1      16.955  13.038   7.706  1.00  0.00     0.090 A 
HETATM   28  C9  UNK     1      16.119  12.359   8.593  1.00  0.00     0.006 A 
HETATM   29  C17 UNK     1      16.561  14.210   7.059  1.00  0.00     0.045 A 
HETATM   30  C13 UNK     1      14.843  12.892   8.822  1.00  0.00     0.015 A 
HETATM   31  C18 UNK     1      14.433  14.066   8.181  1.00  0.00     0.007 A 
HETATM   32  C19 UNK     1      15.291  14.724   7.300  1.00  0.00    -0.059 A 
HETATM   33  C22 UNK     1      14.847  15.974   6.619  1.00  0.00     0.048 C 
ENDBRANCH  21  22
ENDBRANCH   1  21
TORSDOF 5
ENDMDL
MODEL 8
REMARK VINA RESULT:      -9.4     11.864     14.590
REMARK  5 active torsions:
REMARK  status: ('A' for Active; 'I' for Inactive)
REMARK    1  A    between atoms: C5_11  and  N1_4 
REMARK    2  A    between atoms: C6_12  and  N2_5 
REMARK    3  A    between atoms: C5_11  and  C7_13 
REMARK    4  A    between atoms: C6_12  and  C8_14 
REMARK    5  A    between atoms: C14_20  and  C20_26 
ROOT
HETATM    1  N1  UNK     1      33.923  -7.331  36.589  1.00  0.00     0.096 N 
HETATM    2  N2  UNK     1      33.627  -7.297  33.713  1.00  0.00     0.097 N 
HETATM    3  C1  UNK     1      33.746  -6.072  35.855  1.00  0.00     0.303 C 
HETATM    4  C2  UNK     1      33.266  -8.435  35.877  1.00  0.00     0.303 C 
HETATM    5  C3  UNK     1      34.283  -6.193  34.425  1.00  0.00     0.303 C 
HETATM    6  C4  UNK     1      33.802  -8.557  34.446  1.00  0.00     0.303 C 
ENDROOT
BRANCH   2   7
HETATM    7  C6  UNK     1      34.142  -7.415  32.351  1.00  0.00     0.334 C 
BRANCH   7   8
HETATM    8  C8  UNK     1      32.996  -7.451  31.392  1.00  0.00     0.095 A 
HETATM    9  C10 UNK     1      33.017  -7.538  30.022  1.00  0.00     0.078 A 
HETATM   10  O1  UNK     1      31.727  -7.540  29.582  1.00  0.00    -0.294 OA
HETATM   11  C16 UNK     1      34.070  -7.624  29.005  1.00  0.00     0.079 C 
HETATM   12  C14 UNK     1      31.000  -7.452  30.729  1.00  0.00     0.180 A 
HETATM   13  N3  UNK     1      31.700  -7.397  31.839  1.00  0.00    -0.224 NA
BRANCH  12  14
HETATM   14  C20 UNK     1      29.574  -7.435  30.550  1.00  0.00     0.023 A 
HETATM   15  C21 UNK     1      28.866  -6.234  30.533  1.00  0.00    -0.048 A 
HETATM   16  C24 UNK     1      27.482  -6.243  30.357  1.00  0.00     0.007 A 
HETATM   17  C25 UNK     1      29.553  -4.917  30.701  1.00  0.00     0.049 C 
HETATM   18  C27 UNK     1      26.808  -7.454  30.196  1.00  0.00     0.001 A 
HETATM   19  C26 UNK     1      27.516  -8.655  30.212  1.00  0.00     0.001 A 
HETATM   20  C23 UNK     1      28.900  -8.645  30.389  1.00  0.00     0.016 A 
ENDBRANCH  12  14
ENDBRANCH   7   8
ENDBRANCH   2   7
BRANCH   1  21
HETATM   21  C5  UNK     1      33.410  -7.215  37.953  1.00  0.00     0.312 C 
BRANCH  21  22
HETATM   22  C7  UNK     1      32.030  -6.658  37.988  1.00  0.00    -0.011 A 
HETATM   23  C11 UNK     1      31.807  -5.346  37.821  1.00  0.00     0.092 A 
HETATM   24  C15 UNK     1      30.462  -4.749  37.847  1.00  0.00     0.288 A 
HETATM   25  O2  UNK     1      29.400  -5.616  38.059  1.00  0.00    -0.275 OA
HETATM   26  O3  UNK     1      30.296  -3.544  37.690  1.00  0.00    -0.260 OA
HETATM   27  C12 UNK     1      29.602  -6.999  38.238  1.00  0.00     0.090 A 
HETATM   28  C9  UNK     1      30.884  -7.550  38.211  1.00  0.00     0.006 A 
HETATM   29  C17 UNK     1      28.461  -7.775  38.444  1.00  0.00     0.045 A 
HETATM   30  C13 UNK     1      31.001  -8.934  38.397  1.00  0.00     0.015 A 
HETATM   31  C18 UNK     1      29.866  -9.726  38.605  1.00  0.00     0.007 A 
HETATM   32  C19 UNK     1      28.597  -9.148  38.627  1.00  0.00    -0.059 A 
HETATM   33  C22 UNK     1      27.392  -9.997  38.847  1.00  0.00     0.048 C 
ENDBRANCH  21  22
ENDBRANCH   1  21
TORSDOF 5
ENDMDL
MODEL 9
REMARK VINA RESULT:      -9.4      5.335     14.210
REMARK  5 active torsions:
REMARK  status: ('A' for Active; 'I' for Inactive)
REMARK    1  A    between atoms: C5_11  and  N1_4 
REMARK    2  A    between atoms: C6_12  and  N2_5 
REMARK    3  A    between atoms: C5_11  and  C7_13 
REMARK    4  A    between atoms: C6_12  and  C8_14 
REMARK    5  A    between atoms: C14_20  and  C20_26 
ROOT
HETATM    1  N1  UNK     1      16.518   8.571  33.796  1.00  0.00     0.096 N 
HETATM    2  N2  UNK     1      17.744   6.114  32.892  1.00  0.00     0.097 N 
HETATM    3  C1  UNK     1      15.712   7.379  33.505  1.00  0.00     0.303 C 
HETATM    4  C2  UNK     1      17.864   8.184  34.237  1.00  0.00     0.303 C 
HETATM    5  C3  UNK     1      16.398   6.501  32.452  1.00  0.00     0.303 C 
HETATM    6  C4  UNK     1      18.550   7.305  33.185  1.00  0.00     0.303 C 
ENDROOT
BRANCH   2   7
HETATM    7  C6  UNK     1      18.399   5.280  31.886  1.00  0.00     0.334 C 
BRANCH   7   8
HETATM    8  C8  UNK     1      18.278   3.844  32.284  1.00  0.00     0.095 A 
HETATM    9  C10 UNK     1      18.411   2.718  31.509  1.00  0.00     0.078 A 
HETATM   10  O1  UNK     1      18.216   1.633  32.310  1.00  0.00    -0.294 OA
HETATM   11  C16 UNK     1      18.699   2.462  30.094  1.00  0.00     0.079 C 
HETATM   12  C14 UNK     1      17.976   2.179  33.533  1.00  0.00     0.180 A 
HETATM   13  N3  UNK     1      18.000   3.491  33.580  1.00  0.00    -0.224 NA
BRANCH  12  14
HETATM   14  C20 UNK     1      17.732   1.234  34.588  1.00  0.00     0.023 A 
HETATM   15  C21 UNK     1      18.457   1.280  35.777  1.00  0.00    -0.048 A 
HETATM   16  C24 UNK     1      18.201   0.352  36.787  1.00  0.00     0.007 A 
HETATM   17  C25 UNK     1      19.516   2.310  36.010  1.00  0.00     0.049 C 
HETATM   18  C27 UNK     1      17.218  -0.622  36.605  1.00  0.00     0.001 A 
HETATM   19  C26 UNK     1      16.493  -0.669  35.415  1.00  0.00     0.001 A 
HETATM   20  C23 UNK     1      16.749   0.260  34.406  1.00  0.00     0.016 A 
ENDBRANCH  12  14
ENDBRANCH   7   8
ENDBRANCH   2   7
BRANCH   1  21
HETATM   21  C5  UNK     1      15.864   9.408  34.800  1.00  0.00     0.312 C 
BRANCH  21  22
HETATM   22  C7  UNK     1      15.184  10.585  34.194  1.00  0.00    -0.011 A 
HETATM   23  C11 UNK     1      13.941  10.489  33.699  1.00  0.00     0.092 A 
HETATM   24  C15 UNK     1      13.228  11.625  33.091  1.00  0.00     0.288 A 
HETATM   25  O2  UNK     1      13.907  12.833  33.044  1.00  0.00    -0.275 OA
HETATM   26  O3  UNK     1      12.091  11.500  32.649  1.00  0.00    -0.260 OA
HETATM   27  C12 UNK     1      15.213  12.965  33.555  1.00  0.00     0.090 A 
HETATM   28  C9  UNK     1      15.877  11.879  34.129  1.00  0.00     0.006 A 
HETATM   29  C17 UNK     1      15.799  14.227  33.454  1.00  0.00     0.045 A 
HETATM   30  C13 UNK     1      17.173  12.092  34.614  1.00  0.00     0.015 A 
HETATM   31  C18 UNK     1      17.775  13.352  34.519  1.00  0.00     0.007 A 
HETATM   32  C19 UNK     1      17.088  14.419  33.941  1.00  0.00    -0.059 A 
HETATM   33  C22 UNK     1      17.733  15.760  33.845  1.00  0.00     0.048 C 
ENDBRANCH  21  22
ENDBRANCH   1  21
TORSDOF 5
ENDMDL
MODEL 10
REMARK VINA RESULT:      -9.3      5.389     14.221
REMARK  5 active torsions:
REMARK  status: ('A' for Active; 'I' for Inactive)
REMARK    1  A    between atoms: C5_11  and  N1_4 
REMARK    2  A    between atoms: C6_12  and  N2_5 
REMARK    3  A    between atoms: C5_11  and  C7_13 
REMARK    4  A    between atoms: C6_12  and  C8_14 
REMARK    5  A    between atoms: C14_20  and  C20_26 
ROOT
HETATM    1  N1  UNK     1      16.896   8.640  33.762  1.00  0.00     0.096 N 
HETATM    2  N2  UNK     1      17.613   6.067  32.654  1.00  0.00     0.097 N 
HETATM    3  C1  UNK     1      15.962   7.887  32.917  1.00  0.00     0.303 C 
HETATM    4  C2  UNK     1      17.790   7.723  34.480  1.00  0.00     0.303 C 
HETATM    5  C3  UNK     1      16.718   6.985  31.936  1.00  0.00     0.303 C 
HETATM    6  C4  UNK     1      18.547   6.820  33.500  1.00  0.00     0.303 C 
ENDROOT
BRANCH   2   7
HETATM    7  C6  UNK     1      18.337   5.211  31.717  1.00  0.00     0.334 C 
BRANCH   7   8
HETATM    8  C8  UNK     1      18.253   3.793  32.182  1.00  0.00     0.095 A 
HETATM    9  C10 UNK     1      18.453   2.636  31.469  1.00  0.00     0.078 A 
HETATM   10  O1  UNK     1      18.268   1.585  32.316  1.00  0.00    -0.294 OA
HETATM   11  C16 UNK     1      18.800   2.321  30.080  1.00  0.00     0.079 C 
HETATM   12  C14 UNK     1      17.965   2.181  33.502  1.00  0.00     0.180 A 
HETATM   13  N3  UNK     1      17.942   3.494  33.484  1.00  0.00    -0.224 NA
BRANCH  12  14
HETATM   14  C20 UNK     1      17.717   1.280  34.594  1.00  0.00     0.023 A 
HETATM   15  C21 UNK     1      18.446   1.367  35.779  1.00  0.00    -0.048 A 
HETATM   16  C24 UNK     1      18.186   0.481  36.824  1.00  0.00     0.007 A 
HETATM   17  C25 UNK     1      19.514   2.397  35.967  1.00  0.00     0.049 C 
HETATM   18  C27 UNK     1      17.195  -0.491  36.684  1.00  0.00     0.001 A 
HETATM   19  C26 UNK     1      16.466  -0.579  35.499  1.00  0.00     0.001 A 
HETATM   20  C23 UNK     1      16.727   0.307  34.454  1.00  0.00     0.016 A 
ENDBRANCH  12  14
ENDBRANCH   7   8
ENDBRANCH   2   7
BRANCH   1  21
HETATM   21  C5  UNK     1      16.174   9.499  34.698  1.00  0.00     0.312 C 
BRANCH  21  22
HETATM   22  C7  UNK     1      16.216  10.931  34.293  1.00  0.00    -0.011 A 
HETATM   23  C11 UNK     1      17.376  11.601  34.234  1.00  0.00     0.092 A 
HETATM   24  C15 UNK     1      17.468  13.016  33.840  1.00  0.00     0.288 A 
HETATM   25  O2  UNK     1      16.278  13.653  33.523  1.00  0.00    -0.275 OA
HETATM   26  O3  UNK     1      18.548  13.596  33.797  1.00  0.00    -0.260 OA
HETATM   27  C12 UNK     1      15.043  12.976  33.576  1.00  0.00     0.090 A 
HETATM   28  C9  UNK     1      14.972  11.634  33.952  1.00  0.00     0.006 A 
HETATM   29  C17 UNK     1      13.910  13.716  33.236  1.00  0.00     0.045 A 
HETATM   30  C13 UNK     1      13.707  11.033  33.980  1.00  0.00     0.015 A 
HETATM   31  C18 UNK     1      12.560  11.762  33.643  1.00  0.00     0.007 A 
HETATM   32  C19 UNK     1      12.662  13.102  33.270  1.00  0.00    -0.059 A 
HETATM   33  C22 UNK     1      11.438  13.872  32.910  1.00  0.00     0.048 C 
ENDBRANCH  21  22
ENDBRANCH   1  21
TORSDOF 5
ENDMDL
