MODEL 1
REMARK VINA RESULT:      -8.0      0.000      0.000
REMARK  3 active torsions:
REMARK  status: ('A' for Active; 'I' for Inactive)
REMARK    1  A    between atoms: C10_14  and  O3_3 
REMARK    2  A    between atoms: C16_20  and  O4_4 
REMARK    3  A    between atoms: C3_7  and  C6_10 
ROOT
HETATM    1  O1  UNK     1      19.330   1.305  15.514  1.00  0.00    -0.321 OA
HETATM    2  O2  UNK     1      18.775  -1.344  18.568  1.00  0.00    -0.286 OA
HETATM    3  C1  UNK     1      19.222   0.868  17.900  1.00  0.00     0.055 A 
HETATM    4  C2  UNK     1      19.296   1.358  19.206  1.00  0.00    -0.042 A 
HETATM    5  C3  UNK     1      18.919  -0.984  16.219  1.00  0.00     0.048 A 
HETATM    6  C4  UNK     1      19.393   1.730  16.817  1.00  0.00     0.092 A 
HETATM    7  C5  UNK     1      18.960  -0.561  17.646  1.00  0.00     0.198 A 
HETATM    8  C7  UNK     1      19.543   2.715  19.421  1.00  0.00     0.044 A 
HETATM    9  C8  UNK     1      19.639   3.086  17.034  1.00  0.00     0.074 A 
HETATM   10  C9  UNK     1      19.106  -0.032  15.291  1.00  0.00     0.159 A 
HETATM   11  C10 UNK     1      19.714   3.577  18.337  1.00  0.00     0.068 A 
HETATM   12  C11 UNK     1      19.126   0.504  20.421  1.00  0.00     0.049 C 
ENDROOT
BRANCH   5  13
HETATM   13  C6  UNK     1      18.706  -2.386  15.828  1.00  0.00    -0.020 A 
HETATM   14  C12 UNK     1      17.452  -2.977  15.988  1.00  0.00     0.015 A 
HETATM   15  C14 UNK     1      17.252  -4.306  15.618  1.00  0.00     0.037 A 
HETATM   16  C16 UNK     1      18.305  -5.048  15.085  1.00  0.00     0.068 A 
HETATM   17  C15 UNK     1      19.560  -4.461  14.924  1.00  0.00     0.037 A 
HETATM   18  C13 UNK     1      19.760  -3.131  15.296  1.00  0.00     0.015 A 
BRANCH  16  19
HETATM   19  O4  UNK     1      18.109  -6.345  14.723  1.00  0.00    -0.356 OA
HETATM   20  C17 UNK     1      17.134  -7.085  15.457  1.00  0.00     0.210 C 
ENDBRANCH  16  19
ENDBRANCH   5  13
BRANCH  11  21
HETATM   21  O3  UNK     1      19.953   4.900  18.552  1.00  0.00    -0.361 OA
HETATM   22  H11 UNK     1      20.860   5.108  18.266  1.00  0.00     0.217 HD
ENDBRANCH  11  21
TORSDOF 3
ENDMDL
MODEL 2
REMARK VINA RESULT:      -7.7     14.077     17.476
REMARK  3 active torsions:
REMARK  status: ('A' for Active; 'I' for Inactive)
REMARK    1  A    between atoms: C10_14  and  O3_3 
REMARK    2  A    between atoms: C16_20  and  O4_4 
REMARK    3  A    between atoms: C3_7  and  C6_10 
ROOT
HETATM    1  O1  UNK     1      19.459   8.205  33.469  1.00  0.00    -0.321 OA
HETATM    2  O2  UNK     1      15.969   6.558  32.144  1.00  0.00    -0.286 OA
HETATM    3  C1  UNK     1      17.061   8.390  33.138  1.00  0.00     0.055 A 
HETATM    4  C2  UNK     1      15.897   9.152  33.259  1.00  0.00    -0.042 A 
HETATM    5  C3  UNK     1      18.311   6.301  32.490  1.00  0.00     0.048 A 
HETATM    6  C4  UNK     1      18.284   8.906  33.564  1.00  0.00     0.092 A 
HETATM    7  C5  UNK     1      17.017   7.036  32.556  1.00  0.00     0.198 A 
HETATM    8  C7  UNK     1      15.964  10.433  33.810  1.00  0.00     0.044 A 
HETATM    9  C8  UNK     1      18.349  10.188  34.114  1.00  0.00     0.074 A 
HETATM   10  C9  UNK     1      19.402   6.937  32.945  1.00  0.00     0.159 A 
HETATM   11  C10 UNK     1      17.188  10.950  34.236  1.00  0.00     0.068 A 
HETATM   12  C11 UNK     1      14.547   8.675  32.828  1.00  0.00     0.049 C 
ENDROOT
BRANCH   5  13
HETATM   13  C6  UNK     1      18.400   4.928  31.970  1.00  0.00    -0.020 A 
HETATM   14  C12 UNK     1      18.124   3.842  32.802  1.00  0.00     0.015 A 
HETATM   15  C14 UNK     1      18.209   2.541  32.308  1.00  0.00     0.037 A 
HETATM   16  C16 UNK     1      18.571   2.322  30.979  1.00  0.00     0.068 A 
HETATM   17  C15 UNK     1      18.848   3.405  30.145  1.00  0.00     0.037 A 
HETATM   18  C13 UNK     1      18.763   4.706  30.640  1.00  0.00     0.015 A 
BRANCH  16  19
HETATM   19  O4  UNK     1      18.653   1.052  30.497  1.00  0.00    -0.356 OA
HETATM   20  C17 UNK     1      19.122   0.894  29.158  1.00  0.00     0.210 C 
ENDBRANCH  16  19
ENDBRANCH   5  13
BRANCH  11  21
HETATM   21  O3  UNK     1      17.249  12.199  34.772  1.00  0.00    -0.361 OA
HETATM   22  H11 UNK     1      17.356  12.125  35.736  1.00  0.00     0.217 HD
ENDBRANCH  11  21
TORSDOF 3
ENDMDL
MODEL 3
REMARK VINA RESULT:      -7.7      2.226      3.419
REMARK  3 active torsions:
REMARK  status: ('A' for Active; 'I' for Inactive)
REMARK    1  A    between atoms: C10_14  and  O3_3 
REMARK    2  A    between atoms: C16_20  and  O4_4 
REMARK    3  A    between atoms: C3_7  and  C6_10 
ROOT
HETATM    1  O1  UNK     1      18.706  -1.280  18.457  1.00  0.00    -0.321 OA
HETATM    2  O2  UNK     1      19.370   1.179  15.269  1.00  0.00    -0.286 OA
HETATM    3  C1  UNK     1      19.058   0.960  17.592  1.00  0.00     0.055 A 
HETATM    4  C2  UNK     1      19.189   2.328  17.843  1.00  0.00    -0.042 A 
HETATM    5  C3  UNK     1      18.980  -1.035  16.055  1.00  0.00     0.048 A 
HETATM    6  C4  UNK     1      18.841   0.072  18.644  1.00  0.00     0.092 A 
HETATM    7  C5  UNK     1      19.152   0.436  16.217  1.00  0.00     0.198 A 
HETATM    8  C7  UNK     1      19.100   2.801  19.154  1.00  0.00     0.044 A 
HETATM    9  C8  UNK     1      18.753   0.547  19.953  1.00  0.00     0.074 A 
HETATM   10  C9  UNK     1      18.775  -1.754  17.169  1.00  0.00     0.159 A 
HETATM   11  C10 UNK     1      18.882   1.912  20.206  1.00  0.00     0.068 A 
HETATM   12  C11 UNK     1      19.422   3.348  16.775  1.00  0.00     0.049 C 
ENDROOT
BRANCH   5  13
HETATM   13  C6  UNK     1      19.010  -1.682  14.735  1.00  0.00    -0.020 A 
HETATM   14  C12 UNK     1      19.260  -0.926  13.588  1.00  0.00     0.015 A 
HETATM   15  C14 UNK     1      19.289  -1.541  12.337  1.00  0.00     0.037 A 
HETATM   16  C16 UNK     1      19.068  -2.913  12.229  1.00  0.00     0.068 A 
HETATM   17  C15 UNK     1      18.818  -3.671  13.372  1.00  0.00     0.037 A 
HETATM   18  C13 UNK     1      18.788  -3.056  14.624  1.00  0.00     0.015 A 
BRANCH  16  19
HETATM   19  O4  UNK     1      19.096  -3.513  11.008  1.00  0.00    -0.356 OA
HETATM   20  C17 UNK     1      20.092  -3.068  10.087  1.00  0.00     0.210 C 
ENDBRANCH  16  19
ENDBRANCH   5  13
BRANCH  11  21
HETATM   21  O3  UNK     1      18.797   2.377  21.483  1.00  0.00    -0.361 OA
HETATM   22  H11 UNK     1      18.759   3.349  21.463  1.00  0.00     0.217 HD
ENDBRANCH  11  21
TORSDOF 3
ENDMDL
MODEL 4
REMARK VINA RESULT:      -7.5     14.328     17.743
REMARK  3 active torsions:
REMARK  status: ('A' for Active; 'I' for Inactive)
REMARK    1  A    between atoms: C10_14  and  O3_3 
REMARK    2  A    between atoms: C16_20  and  O4_4 
REMARK    3  A    between atoms: C3_7  and  C6_10 
ROOT
HETATM    1  O1  UNK     1      15.983   8.354  32.791  1.00  0.00    -0.321 OA
HETATM    2  O2  UNK     1      19.889   7.255  33.226  1.00  0.00    -0.286 OA
HETATM    3  C1  UNK     1      18.229   8.894  33.538  1.00  0.00     0.055 A 
HETATM    4  C2  UNK     1      19.098   9.808  34.140  1.00  0.00    -0.042 A 
HETATM    5  C3  UNK     1      17.717   6.691  32.429  1.00  0.00     0.048 A 
HETATM    6  C4  UNK     1      16.882   9.212  33.373  1.00  0.00     0.092 A 
HETATM    7  C5  UNK     1      18.720   7.583  33.073  1.00  0.00     0.198 A 
HETATM    8  C7  UNK     1      18.609  11.041  34.575  1.00  0.00     0.044 A 
HETATM    9  C8  UNK     1      16.395  10.445  33.810  1.00  0.00     0.074 A 
HETATM   10  C9  UNK     1      16.457   7.145  32.343  1.00  0.00     0.159 A 
HETATM   11  C10 UNK     1      17.261  11.359  34.410  1.00  0.00     0.068 A 
HETATM   12  C11 UNK     1      20.554   9.548  34.354  1.00  0.00     0.049 C 
ENDROOT
BRANCH   5  13
HETATM   13  C6  UNK     1      18.082   5.374  31.886  1.00  0.00    -0.020 A 
HETATM   14  C12 UNK     1      17.905   4.222  32.656  1.00  0.00     0.015 A 
HETATM   15  C14 UNK     1      18.253   2.975  32.139  1.00  0.00     0.037 A 
HETATM   16  C16 UNK     1      18.777   2.874  30.851  1.00  0.00     0.068 A 
HETATM   17  C15 UNK     1      18.956   4.022  30.079  1.00  0.00     0.037 A 
HETATM   18  C13 UNK     1      18.609   5.270  30.596  1.00  0.00     0.015 A 
BRANCH  16  19
HETATM   19  O4  UNK     1      19.115   1.656  30.347  1.00  0.00    -0.356 OA
HETATM   20  C17 UNK     1      18.622   1.330  29.049  1.00  0.00     0.210 C 
ENDBRANCH  16  19
ENDBRANCH   5  13
BRANCH  11  21
HETATM   21  O3  UNK     1      16.789  12.562  34.836  1.00  0.00    -0.361 OA
HETATM   22  H11 UNK     1      17.007  12.672  35.778  1.00  0.00     0.217 HD
ENDBRANCH  11  21
TORSDOF 3
ENDMDL
MODEL 5
REMARK VINA RESULT:      -7.5     18.636     22.074
REMARK  3 active torsions:
REMARK  status: ('A' for Active; 'I' for Inactive)
REMARK    1  A    between atoms: C10_14  and  O3_3 
REMARK    2  A    between atoms: C16_20  and  O4_4 
REMARK    3  A    between atoms: C3_7  and  C6_10 
ROOT
HETATM    1  O1  UNK     1      18.172  -7.393  36.841  1.00  0.00    -0.321 OA
HETATM    2  O2  UNK     1      21.305  -5.169  38.215  1.00  0.00    -0.286 OA
HETATM    3  C1  UNK     1      20.179  -7.235  38.198  1.00  0.00     0.055 A 
HETATM    4  C2  UNK     1      21.088  -7.856  39.058  1.00  0.00    -0.042 A 
HETATM    5  C3  UNK     1      19.317  -5.251  36.908  1.00  0.00     0.048 A 
HETATM    6  C4  UNK     1      19.095  -7.949  37.689  1.00  0.00     0.092 A 
HETATM    7  C5  UNK     1      20.352  -5.822  37.814  1.00  0.00     0.198 A 
HETATM    8  C7  UNK     1      20.905  -9.196  39.405  1.00  0.00     0.044 A 
HETATM    9  C8  UNK     1      18.915  -9.289  38.037  1.00  0.00     0.074 A 
HETATM   10  C9  UNK     1      18.333  -6.070  36.507  1.00  0.00     0.159 A 
HETATM   11  C10 UNK     1      19.821  -9.911  38.896  1.00  0.00     0.068 A 
HETATM   12  C11 UNK     1      22.275  -7.164  39.648  1.00  0.00     0.049 C 
ENDROOT
BRANCH   5  13
HETATM   13  C6  UNK     1      19.348  -3.844  36.479  1.00  0.00    -0.020 A 
HETATM   14  C12 UNK     1      20.125  -3.460  35.384  1.00  0.00     0.015 A 
HETATM   15  C14 UNK     1      20.154  -2.126  34.980  1.00  0.00     0.037 A 
HETATM   16  C16 UNK     1      19.406  -1.172  35.669  1.00  0.00     0.068 A 
HETATM   17  C15 UNK     1      18.629  -1.552  36.763  1.00  0.00     0.037 A 
HETATM   18  C13 UNK     1      18.601  -2.886  37.168  1.00  0.00     0.015 A 
BRANCH  16  19
HETATM   19  O4  UNK     1      19.434   0.130  35.273  1.00  0.00    -0.356 OA
HETATM   20  C17 UNK     1      18.658   1.057  36.032  1.00  0.00     0.210 C 
ENDBRANCH  16  19
ENDBRANCH   5  13
BRANCH  11  21
HETATM   21  O3  UNK     1      19.647 -11.217  39.237  1.00  0.00    -0.361 OA
HETATM   22  H11 UNK     1      20.223 -11.768  38.678  1.00  0.00     0.217 HD
ENDBRANCH  11  21
TORSDOF 3
ENDMDL
MODEL 6
REMARK VINA RESULT:      -7.5     12.650     15.218
REMARK  3 active torsions:
REMARK  status: ('A' for Active; 'I' for Inactive)
REMARK    1  A    between atoms: C10_14  and  O3_3 
REMARK    2  A    between atoms: C16_20  and  O4_4 
REMARK    3  A    between atoms: C3_7  and  C6_10 
ROOT
HETATM    1  O1  UNK     1      10.893   8.832  10.079  1.00  0.00    -0.321 OA
HETATM    2  O2  UNK     1      13.421   7.439   7.194  1.00  0.00    -0.286 OA
HETATM    3  C1  UNK     1      11.245   7.485   8.090  1.00  0.00     0.055 A 
HETATM    4  C2  UNK     1      10.713   6.642   7.112  1.00  0.00    -0.042 A 
HETATM    5  C3  UNK     1      13.146   8.736   9.173  1.00  0.00     0.048 A 
HETATM    6  C4  UNK     1      10.426   7.999   9.094  1.00  0.00     0.092 A 
HETATM    7  C5  UNK     1      12.675   7.846   8.075  1.00  0.00     0.198 A 
HETATM    8  C7  UNK     1       9.356   6.316   7.146  1.00  0.00     0.044 A 
HETATM    9  C8  UNK     1       9.069   7.673   9.125  1.00  0.00     0.074 A 
HETATM   10  C9  UNK     1      12.231   9.145  10.066  1.00  0.00     0.159 A 
HETATM   11  C10 UNK     1       8.536   6.831   8.151  1.00  0.00     0.068 A 
HETATM   12  C11 UNK     1      11.520   6.047   6.003  1.00  0.00     0.049 C 
ENDROOT
BRANCH   5  13
HETATM   13  C6  UNK     1      14.554   9.140   9.297  1.00  0.00    -0.020 A 
HETATM   14  C12 UNK     1      15.431   8.397  10.092  1.00  0.00     0.015 A 
HETATM   15  C14 UNK     1      16.766   8.782  10.209  1.00  0.00     0.037 A 
HETATM   16  C16 UNK     1      17.229   9.909   9.532  1.00  0.00     0.068 A 
HETATM   17  C15 UNK     1      16.356  10.653   8.738  1.00  0.00     0.037 A 
HETATM   18  C13 UNK     1      15.021  10.269   8.621  1.00  0.00     0.015 A 
BRANCH  16  19
HETATM   19  O4  UNK     1      18.532  10.284   9.646  1.00  0.00    -0.356 OA
HETATM   20  C17 UNK     1      18.800  11.682   9.752  1.00  0.00     0.210 C 
ENDBRANCH  16  19
ENDBRANCH   5  13
BRANCH  11  21
HETATM   21  O3  UNK     1       7.213   6.512   8.179  1.00  0.00    -0.361 OA
HETATM   22  H11 UNK     1       7.020   6.038   9.007  1.00  0.00     0.217 HD
ENDBRANCH  11  21
TORSDOF 3
ENDMDL
MODEL 7
REMARK VINA RESULT:      -7.4     13.950     17.693
REMARK  3 active torsions:
REMARK  status: ('A' for Active; 'I' for Inactive)
REMARK    1  A    between atoms: C10_14  and  O3_3 
REMARK    2  A    between atoms: C16_20  and  O4_4 
REMARK    3  A    between atoms: C3_7  and  C6_10 
ROOT
HETATM    1  O1  UNK     1      18.981   3.237  30.007  1.00  0.00    -0.321 OA
HETATM    2  O2  UNK     1      17.937   3.594  33.935  1.00  0.00    -0.286 OA
HETATM    3  C1  UNK     1      18.572   2.188  32.158  1.00  0.00     0.055 A 
HETATM    4  C2  UNK     1      18.542   1.025  32.930  1.00  0.00    -0.042 A 
HETATM    5  C3  UNK     1      18.275   4.670  31.838  1.00  0.00     0.048 A 
HETATM    6  C4  UNK     1      18.932   2.128  30.812  1.00  0.00     0.092 A 
HETATM    7  C5  UNK     1      18.230   3.494  32.751  1.00  0.00     0.198 A 
HETATM    8  C7  UNK     1      18.873  -0.199  32.347  1.00  0.00     0.044 A 
HETATM    9  C8  UNK     1      19.264   0.903  30.232  1.00  0.00     0.074 A 
HETATM   10  C9  UNK     1      18.639   4.445  30.566  1.00  0.00     0.159 A 
HETATM   11  C10 UNK     1      19.233  -0.260  31.001  1.00  0.00     0.068 A 
HETATM   12  C11 UNK     1      18.167   1.001  34.377  1.00  0.00     0.049 C 
ENDROOT
BRANCH   5  13
HETATM   13  C6  UNK     1      17.918   6.023  32.292  1.00  0.00    -0.020 A 
HETATM   14  C12 UNK     1      16.607   6.485  32.159  1.00  0.00     0.015 A 
HETATM   15  C14 UNK     1      16.271   7.768  32.590  1.00  0.00     0.037 A 
HETATM   16  C16 UNK     1      17.243   8.592  33.154  1.00  0.00     0.068 A 
HETATM   17  C15 UNK     1      18.554   8.133  33.287  1.00  0.00     0.037 A 
HETATM   18  C13 UNK     1      18.891   6.850  32.856  1.00  0.00     0.015 A 
BRANCH  16  19
HETATM   19  O4  UNK     1      16.914   9.843  33.574  1.00  0.00    -0.356 OA
HETATM   20  C17 UNK     1      15.930   9.946  34.603  1.00  0.00     0.210 C 
ENDBRANCH  16  19
ENDBRANCH   5  13
BRANCH  11  21
HETATM   21  O3  UNK     1      19.557  -1.456  30.436  1.00  0.00    -0.361 OA
HETATM   22  H11 UNK     1      19.267  -2.173  31.027  1.00  0.00     0.217 HD
ENDBRANCH  11  21
TORSDOF 3
ENDMDL
MODEL 8
REMARK VINA RESULT:      -7.3     17.104     19.900
REMARK  3 active torsions:
REMARK  status: ('A' for Active; 'I' for Inactive)
REMARK    1  A    between atoms: C10_14  and  O3_3 
REMARK    2  A    between atoms: C16_20  and  O4_4 
REMARK    3  A    between atoms: C3_7  and  C6_10 
ROOT
HETATM    1  O1  UNK     1      19.668  -1.913  33.858  1.00  0.00    -0.321 OA
HETATM    2  O2  UNK     1      18.606  -1.954  37.798  1.00  0.00    -0.286 OA
HETATM    3  C1  UNK     1      18.611  -0.807  35.742  1.00  0.00     0.055 A 
HETATM    4  C2  UNK     1      17.920   0.300  36.240  1.00  0.00    -0.042 A 
HETATM    5  C3  UNK     1      19.700  -3.064  35.997  1.00  0.00     0.048 A 
HETATM    6  C4  UNK     1      18.990  -0.852  34.402  1.00  0.00     0.092 A 
HETATM    7  C5  UNK     1      18.946  -1.942  36.622  1.00  0.00     0.198 A 
HETATM    8  C7  UNK     1      17.612   1.362  35.387  1.00  0.00     0.044 A 
HETATM    9  C8  UNK     1      18.679   0.210  33.551  1.00  0.00     0.074 A 
HETATM   10  C9  UNK     1      19.992  -2.955  34.692  1.00  0.00     0.159 A 
HETATM   11  C10 UNK     1      17.990   1.317  34.046  1.00  0.00     0.068 A 
HETATM   12  C11 UNK     1      17.478   0.430  37.663  1.00  0.00     0.049 C 
ENDROOT
BRANCH   5  13
HETATM   13  C6  UNK     1      20.131  -4.238  36.771  1.00  0.00    -0.020 A 
HETATM   14  C12 UNK     1      21.325  -4.203  37.495  1.00  0.00     0.015 A 
HETATM   15  C14 UNK     1      21.732  -5.317  38.228  1.00  0.00     0.037 A 
HETATM   16  C16 UNK     1      20.947  -6.469  38.240  1.00  0.00     0.068 A 
HETATM   17  C15 UNK     1      19.755  -6.508  37.518  1.00  0.00     0.037 A 
HETATM   18  C13 UNK     1      19.348  -5.394  36.784  1.00  0.00     0.015 A 
BRANCH  16  19
HETATM   19  O4  UNK     1      21.345  -7.556  38.956  1.00  0.00    -0.356 OA
HETATM   20  C17 UNK     1      22.531  -7.420  39.740  1.00  0.00     0.210 C 
ENDBRANCH  16  19
ENDBRANCH   5  13
BRANCH  11  21
HETATM   21  O3  UNK     1      17.687   2.353  33.218  1.00  0.00    -0.361 OA
HETATM   22  H11 UNK     1      18.379   2.428  32.537  1.00  0.00     0.217 HD
ENDBRANCH  11  21
TORSDOF 3
ENDMDL
MODEL 9
REMARK VINA RESULT:      -7.2     13.689     18.185
REMARK  3 active torsions:
REMARK  status: ('A' for Active; 'I' for Inactive)
REMARK    1  A    between atoms: C10_14  and  O3_3 
REMARK    2  A    between atoms: C16_20  and  O4_4 
REMARK    3  A    between atoms: C3_7  and  C6_10 
ROOT
HETATM    1  O1  UNK     1      18.290   2.403  34.241  1.00  0.00    -0.321 OA
HETATM    2  O2  UNK     1      18.436   4.501  30.744  1.00  0.00    -0.286 OA
HETATM    3  C1  UNK     1      18.576   2.418  31.831  1.00  0.00     0.055 A 
HETATM    4  C2  UNK     1      18.798   1.701  30.652  1.00  0.00    -0.042 A 
HETATM    5  C3  UNK     1      18.197   4.553  33.113  1.00  0.00     0.048 A 
HETATM    6  C4  UNK     1      18.506   1.752  33.054  1.00  0.00     0.092 A 
HETATM    7  C5  UNK     1      18.410   3.883  31.800  1.00  0.00     0.198 A 
HETATM    8  C7  UNK     1      18.949   0.314  30.706  1.00  0.00     0.044 A 
HETATM    9  C8  UNK     1      18.657   0.365  33.105  1.00  0.00     0.074 A 
HETATM   10  C9  UNK     1      18.157   3.770  34.202  1.00  0.00     0.159 A 
HETATM   11  C10 UNK     1      18.879  -0.352  31.930  1.00  0.00     0.068 A 
HETATM   12  C11 UNK     1      18.888   2.336  29.302  1.00  0.00     0.049 C 
ENDROOT
BRANCH   5  13
HETATM   13  C6  UNK     1      18.057   6.013  33.228  1.00  0.00    -0.020 A 
HETATM   14  C12 UNK     1      19.130   6.788  33.673  1.00  0.00     0.015 A 
HETATM   15  C14 UNK     1      18.995   8.172  33.781  1.00  0.00     0.037 A 
HETATM   16  C16 UNK     1      17.788   8.784  33.446  1.00  0.00     0.068 A 
HETATM   17  C15 UNK     1      16.714   8.012  33.002  1.00  0.00     0.037 A 
HETATM   18  C13 UNK     1      16.849   6.628  32.894  1.00  0.00     0.015 A 
BRANCH  16  19
HETATM   19  O4  UNK     1      17.657  10.134  33.552  1.00  0.00    -0.356 OA
HETATM   20  C17 UNK     1      16.497  10.625  34.223  1.00  0.00     0.210 C 
ENDBRANCH  16  19
ENDBRANCH   5  13
BRANCH  11  21
HETATM   21  O3  UNK     1      19.026  -1.704  31.977  1.00  0.00    -0.361 OA
HETATM   22  H11 UNK     1      18.338  -2.077  32.557  1.00  0.00     0.217 HD
ENDBRANCH  11  21
TORSDOF 3
ENDMDL
MODEL 10
REMARK VINA RESULT:      -7.2     11.161     12.729
REMARK  3 active torsions:
REMARK  status: ('A' for Active; 'I' for Inactive)
REMARK    1  A    between atoms: C10_14  and  O3_3 
REMARK    2  A    between atoms: C16_20  and  O4_4 
REMARK    3  A    between atoms: C3_7  and  C6_10 
ROOT
HETATM    1  O1  UNK     1      14.312   4.704   8.871  1.00  0.00    -0.321 OA
HETATM    2  O2  UNK     1      12.030   7.772  10.297  1.00  0.00    -0.286 OA
HETATM    3  C1  UNK     1      14.179   6.898   9.901  1.00  0.00     0.055 A 
HETATM    4  C2  UNK     1      14.841   8.015  10.416  1.00  0.00    -0.042 A 
HETATM    5  C3  UNK     1      12.099   5.596   9.331  1.00  0.00     0.048 A 
HETATM    6  C4  UNK     1      14.908   5.825   9.391  1.00  0.00     0.092 A 
HETATM    7  C5  UNK     1      12.706   6.839   9.885  1.00  0.00     0.198 A 
HETATM    8  C7  UNK     1      16.237   8.050  10.419  1.00  0.00     0.044 A 
HETATM    9  C8  UNK     1      16.303   5.862   9.393  1.00  0.00     0.074 A 
HETATM   10  C9  UNK     1      12.939   4.651   8.881  1.00  0.00     0.159 A 
HETATM   11  C10 UNK     1      16.966   6.976   9.908  1.00  0.00     0.068 A 
HETATM   12  C11 UNK     1      14.138   9.206  10.983  1.00  0.00     0.049 C 
ENDROOT
BRANCH   5  13
HETATM   13  C6  UNK     1      10.643   5.391   9.294  1.00  0.00    -0.020 A 
HETATM   14  C12 UNK     1       9.859   6.085   8.369  1.00  0.00     0.015 A 
HETATM   15  C14 UNK     1       8.479   5.890   8.335  1.00  0.00     0.037 A 
HETATM   16  C16 UNK     1       7.879   4.999   9.224  1.00  0.00     0.068 A 
HETATM   17  C15 UNK     1       8.658   4.305  10.149  1.00  0.00     0.037 A 
HETATM   18  C13 UNK     1      10.039   4.501  10.184  1.00  0.00     0.015 A 
BRANCH  16  19
HETATM   19  O4  UNK     1       6.532   4.809   9.189  1.00  0.00    -0.356 OA
HETATM   20  C17 UNK     1       5.904   4.382  10.398  1.00  0.00     0.210 C 
ENDBRANCH  16  19
ENDBRANCH   5  13
BRANCH  11  21
HETATM   21  O3  UNK     1      18.327   7.014   9.911  1.00  0.00    -0.361 OA
HETATM   22  H11 UNK     1      18.635   7.223  10.810  1.00  0.00     0.217 HD
ENDBRANCH  11  21
TORSDOF 3
ENDMDL
