MODEL 1
REMARK VINA RESULT:      -8.3      0.000      0.000
REMARK  3 active torsions:
REMARK  status: ('A' for Active; 'I' for Inactive)
REMARK    1  A    between atoms: C6_10  and  O2_2 
REMARK    2  A    between atoms: C15_19  and  O4_4 
REMARK    3  A    between atoms: C3_7  and  C4_8 
ROOT
HETATM    1  O1  UNK     1      19.187   0.411  15.871  1.00  0.00    -0.309 OA
HETATM    2  O3  UNK     1      18.621  -0.621  19.772  1.00  0.00    -0.287 OA
HETATM    3  C1  UNK     1      19.072   1.086  18.202  1.00  0.00     0.081 A 
HETATM    4  C2  UNK     1      19.254   1.370  16.849  1.00  0.00     0.093 A 
HETATM    5  C3  UNK     1      18.936  -0.900  16.249  1.00  0.00     0.090 A 
HETATM    6  C5  UNK     1      18.795  -0.301  18.604  1.00  0.00     0.190 A 
HETATM    7  C6  UNK     1      19.150   2.105  19.154  1.00  0.00     0.085 A 
HETATM    8  C7  UNK     1      18.737  -1.297  17.516  1.00  0.00     0.094 A 
HETATM    9  C8  UNK     1      19.517   2.678  16.440  1.00  0.00     0.038 A 
HETATM   10  C9  UNK     1      19.413   3.413  18.742  1.00  0.00     0.038 A 
HETATM   11  C12 UNK     1      19.596   3.698  17.388  1.00  0.00     0.006 A 
ENDROOT
BRANCH   5  12
HETATM   12  C4  UNK     1      18.880  -1.848  15.119  1.00  0.00    -0.002 A 
HETATM   13  C10 UNK     1      18.453  -3.163  15.326  1.00  0.00     0.017 A 
HETATM   14  C13 UNK     1      18.401  -4.059  14.258  1.00  0.00     0.037 A 
HETATM   15  C15 UNK     1      18.776  -3.645  12.981  1.00  0.00     0.068 A 
HETATM   16  C14 UNK     1      19.202  -2.334  12.769  1.00  0.00     0.037 A 
HETATM   17  C11 UNK     1      19.254  -1.437  13.838  1.00  0.00     0.017 A 
BRANCH  15  18
HETATM   18  O4  UNK     1      18.725  -4.519  11.940  1.00  0.00    -0.356 OA
HETATM   19  C17 UNK     1      19.026  -4.005  10.643  1.00  0.00     0.210 C 
ENDBRANCH  15  18
ENDBRANCH   5  12
BRANCH   7  20
HETATM   20  O2  UNK     1      18.980   1.879  20.487  1.00  0.00    -0.355 OA
HETATM   21  C16 UNK     1      20.119   2.060  21.325  1.00  0.00     0.210 C 
ENDBRANCH   7  20
TORSDOF 3
ENDMDL
MODEL 2
REMARK VINA RESULT:      -8.0     15.996     18.998
REMARK  3 active torsions:
REMARK  status: ('A' for Active; 'I' for Inactive)
REMARK    1  A    between atoms: C6_10  and  O2_2 
REMARK    2  A    between atoms: C15_19  and  O4_4 
REMARK    3  A    between atoms: C3_7  and  C4_8 
ROOT
HETATM    1  O1  UNK     1      18.327   3.790  34.459  1.00  0.00    -0.309 OA
HETATM    2  O3  UNK     1      18.228   1.632  31.005  1.00  0.00    -0.287 OA
HETATM    3  C1  UNK     1      18.345   1.622  33.365  1.00  0.00     0.081 A 
HETATM    4  C2  UNK     1      18.373   2.421  34.507  1.00  0.00     0.093 A 
HETATM    5  C3  UNK     1      18.256   4.405  33.218  1.00  0.00     0.090 A 
HETATM    6  C5  UNK     1      18.260   2.270  32.048  1.00  0.00     0.190 A 
HETATM    7  C6  UNK     1      18.394   0.230  33.475  1.00  0.00     0.085 A 
HETATM    8  C7  UNK     1      18.216   3.747  32.049  1.00  0.00     0.094 A 
HETATM    9  C8  UNK     1      18.452   1.830  35.769  1.00  0.00     0.038 A 
HETATM   10  C9  UNK     1      18.472  -0.357  34.739  1.00  0.00     0.038 A 
HETATM   11  C12 UNK     1      18.502   0.442  35.883  1.00  0.00     0.006 A 
ENDROOT
BRANCH   5  12
HETATM   12  C4  UNK     1      18.206   5.879  33.281  1.00  0.00    -0.002 A 
HETATM   13  C10 UNK     1      19.269   6.596  33.839  1.00  0.00     0.017 A 
HETATM   14  C13 UNK     1      19.220   7.988  33.899  1.00  0.00     0.037 A 
HETATM   15  C15 UNK     1      18.108   8.670  33.404  1.00  0.00     0.068 A 
HETATM   16  C14 UNK     1      17.046   7.959  32.847  1.00  0.00     0.037 A 
HETATM   17  C11 UNK     1      17.094   6.566  32.786  1.00  0.00     0.017 A 
BRANCH  15  18
HETATM   18  O4  UNK     1      18.062  10.028  33.463  1.00  0.00    -0.356 OA
HETATM   19  C17 UNK     1      16.928  10.612  34.104  1.00  0.00     0.210 C 
ENDBRANCH  15  18
ENDBRANCH   5  12
BRANCH   7  20
HETATM   20  O2  UNK     1      18.369  -0.593  32.390  1.00  0.00    -0.355 OA
HETATM   21  C16 UNK     1      19.454  -1.507  32.245  1.00  0.00     0.210 C 
ENDBRANCH   7  20
TORSDOF 3
ENDMDL
MODEL 3
REMARK VINA RESULT:      -7.9     13.509     16.728
REMARK  3 active torsions:
REMARK  status: ('A' for Active; 'I' for Inactive)
REMARK    1  A    between atoms: C6_10  and  O2_2 
REMARK    2  A    between atoms: C15_19  and  O4_4 
REMARK    3  A    between atoms: C3_7  and  C4_8 
ROOT
HETATM    1  O1  UNK     1      19.078   2.274  30.424  1.00  0.00    -0.309 OA
HETATM    2  O3  UNK     1      18.780  -0.106  33.717  1.00  0.00    -0.287 OA
HETATM    3  C1  UNK     1      19.366   0.085  31.436  1.00  0.00     0.081 A 
HETATM    4  C2  UNK     1      19.445   0.955  30.349  1.00  0.00     0.093 A 
HETATM    5  C3  UNK     1      18.603   2.760  31.633  1.00  0.00     0.090 A 
HETATM    6  C5  UNK     1      18.872   0.600  32.722  1.00  0.00     0.190 A 
HETATM    7  C6  UNK     1      19.754  -1.250  31.302  1.00  0.00     0.085 A 
HETATM    8  C7  UNK     1      18.487   2.025  32.750  1.00  0.00     0.094 A 
HETATM    9  C8  UNK     1      19.911   0.492  29.118  1.00  0.00     0.038 A 
HETATM   10  C9  UNK     1      20.221  -1.710  30.069  1.00  0.00     0.038 A 
HETATM   11  C12 UNK     1      20.299  -0.840  28.980  1.00  0.00     0.006 A 
ENDROOT
BRANCH   5  12
HETATM   12  C4  UNK     1      18.243   4.192  31.603  1.00  0.00    -0.002 A 
HETATM   13  C10 UNK     1      18.666   5.001  30.545  1.00  0.00     0.017 A 
HETATM   14  C13 UNK     1      18.327   6.353  30.519  1.00  0.00     0.037 A 
HETATM   15  C15 UNK     1      17.565   6.902  31.550  1.00  0.00     0.068 A 
HETATM   16  C14 UNK     1      17.140   6.099  32.607  1.00  0.00     0.037 A 
HETATM   17  C11 UNK     1      17.479   4.745  32.634  1.00  0.00     0.017 A 
BRANCH  15  18
HETATM   18  O4  UNK     1      17.234   8.222  31.523  1.00  0.00    -0.356 OA
HETATM   19  C17 UNK     1      15.893   8.563  31.871  1.00  0.00     0.210 C 
ENDBRANCH  15  18
ENDBRANCH   5  12
BRANCH   7  20
HETATM   20  O2  UNK     1      19.697  -2.138  32.333  1.00  0.00    -0.355 OA
HETATM   21  C16 UNK     1      20.934  -2.679  32.792  1.00  0.00     0.210 C 
ENDBRANCH   7  20
TORSDOF 3
ENDMDL
MODEL 4
REMARK VINA RESULT:      -7.8      1.419      2.734
REMARK  3 active torsions:
REMARK  status: ('A' for Active; 'I' for Inactive)
REMARK    1  A    between atoms: C6_10  and  O2_2 
REMARK    2  A    between atoms: C15_19  and  O4_4 
REMARK    3  A    between atoms: C3_7  and  C4_8 
ROOT
HETATM    1  O1  UNK     1      18.901  -0.999  17.142  1.00  0.00    -0.309 OA
HETATM    2  O3  UNK     1      19.481   2.731  15.610  1.00  0.00    -0.287 OA
HETATM    3  C1  UNK     1      19.207   1.380  17.528  1.00  0.00     0.081 A 
HETATM    4  C2  UNK     1      19.010   0.077  17.985  1.00  0.00     0.093 A 
HETATM    5  C3  UNK     1      18.983  -0.778  15.775  1.00  0.00     0.090 A 
HETATM    6  C5  UNK     1      19.305   1.616  16.080  1.00  0.00     0.190 A 
HETATM    7  C6  UNK     1      19.312   2.438  18.434  1.00  0.00     0.085 A 
HETATM    8  C7  UNK     1      19.178   0.426  15.214  1.00  0.00     0.094 A 
HETATM    9  C8  UNK     1      18.915  -0.174  19.354  1.00  0.00     0.038 A 
HETATM   10  C9  UNK     1      19.217   2.183  19.803  1.00  0.00     0.038 A 
HETATM   11  C12 UNK     1      19.019   0.879  20.262  1.00  0.00     0.006 A 
ENDROOT
BRANCH   5  12
HETATM   12  C4  UNK     1      18.858  -2.003  14.962  1.00  0.00    -0.002 A 
HETATM   13  C10 UNK     1      19.302  -2.015  13.636  1.00  0.00     0.017 A 
HETATM   14  C13 UNK     1      19.184  -3.173  12.868  1.00  0.00     0.037 A 
HETATM   15  C15 UNK     1      18.620  -4.322  13.421  1.00  0.00     0.068 A 
HETATM   16  C14 UNK     1      18.176  -4.315  14.742  1.00  0.00     0.037 A 
HETATM   17  C11 UNK     1      18.294  -3.157  15.512  1.00  0.00     0.017 A 
BRANCH  15  18
HETATM   18  O4  UNK     1      18.505  -5.451  12.670  1.00  0.00    -0.356 OA
HETATM   19  C17 UNK     1      18.203  -6.663  13.361  1.00  0.00     0.210 C 
ENDBRANCH  15  18
ENDBRANCH   5  12
BRANCH   7  20
HETATM   20  O2  UNK     1      19.505   3.727  18.038  1.00  0.00    -0.355 OA
HETATM   21  C16 UNK     1      20.703   4.366  18.474  1.00  0.00     0.210 C 
ENDBRANCH   7  20
TORSDOF 3
ENDMDL
MODEL 5
REMARK VINA RESULT:      -7.7     14.223     18.265
REMARK  3 active torsions:
REMARK  status: ('A' for Active; 'I' for Inactive)
REMARK    1  A    between atoms: C6_10  and  O2_2 
REMARK    2  A    between atoms: C15_19  and  O4_4 
REMARK    3  A    between atoms: C3_7  and  C4_8 
ROOT
HETATM    1  O1  UNK     1      18.335   4.583  31.459  1.00  0.00    -0.309 OA
HETATM    2  O3  UNK     1      18.409   1.733  34.369  1.00  0.00    -0.287 OA
HETATM    3  C1  UNK     1      18.567   2.243  32.068  1.00  0.00     0.081 A 
HETATM    4  C2  UNK     1      18.532   3.268  31.124  1.00  0.00     0.093 A 
HETATM    5  C3  UNK     1      18.155   4.903  32.797  1.00  0.00     0.090 A 
HETATM    6  C5  UNK     1      18.387   2.580  33.488  1.00  0.00     0.190 A 
HETATM    7  C6  UNK     1      18.772   0.921  31.667  1.00  0.00     0.085 A 
HETATM    8  C7  UNK     1      18.175   4.009  33.797  1.00  0.00     0.094 A 
HETATM    9  C8  UNK     1      18.701   2.975  29.770  1.00  0.00     0.038 A 
HETATM   10  C9  UNK     1      18.941   0.631  30.313  1.00  0.00     0.038 A 
HETATM   11  C12 UNK     1      18.905   1.656  29.366  1.00  0.00     0.006 A 
ENDROOT
BRANCH   5  12
HETATM   12  C4  UNK     1      17.957   6.344  33.047  1.00  0.00    -0.002 A 
HETATM   13  C10 UNK     1      18.787   7.023  33.944  1.00  0.00     0.017 A 
HETATM   14  C13 UNK     1      18.599   8.384  34.180  1.00  0.00     0.037 A 
HETATM   15  C15 UNK     1      17.581   9.073  33.522  1.00  0.00     0.068 A 
HETATM   16  C14 UNK     1      16.750   8.400  32.626  1.00  0.00     0.037 A 
HETATM   17  C11 UNK     1      16.938   7.038  32.389  1.00  0.00     0.017 A 
BRANCH  15  18
HETATM   18  O4  UNK     1      17.398  10.401  33.752  1.00  0.00    -0.356 OA
HETATM   19  C17 UNK     1      18.568  11.189  33.968  1.00  0.00     0.210 C 
ENDBRANCH  15  18
ENDBRANCH   5  12
BRANCH   7  20
HETATM   20  O2  UNK     1      18.814  -0.115  32.551  1.00  0.00    -0.355 OA
HETATM   21  C16 UNK     1      19.349  -1.350  32.076  1.00  0.00     0.210 C 
ENDBRANCH   7  20
TORSDOF 3
ENDMDL
MODEL 6
REMARK VINA RESULT:      -7.7     14.644     17.703
REMARK  3 active torsions:
REMARK  status: ('A' for Active; 'I' for Inactive)
REMARK    1  A    between atoms: C6_10  and  O2_2 
REMARK    2  A    between atoms: C15_19  and  O4_4 
REMARK    3  A    between atoms: C3_7  and  C4_8 
ROOT
HETATM    1  O1  UNK     1      18.047   2.916  33.081  1.00  0.00    -0.309 OA
HETATM    2  O3  UNK     1      19.417   1.344  29.581  1.00  0.00    -0.287 OA
HETATM    3  C1  UNK     1      18.805   0.975  31.833  1.00  0.00     0.081 A 
HETATM    4  C2  UNK     1      18.332   1.578  32.998  1.00  0.00     0.093 A 
HETATM    5  C3  UNK     1      18.246   3.705  31.957  1.00  0.00     0.090 A 
HETATM    6  C5  UNK     1      19.008   1.806  30.637  1.00  0.00     0.190 A 
HETATM    7  C6  UNK     1      19.078  -0.394  31.807  1.00  0.00     0.085 A 
HETATM    8  C7  UNK     1      18.690   3.242  30.778  1.00  0.00     0.094 A 
HETATM    9  C8  UNK     1      18.131   0.812  34.147  1.00  0.00     0.038 A 
HETATM   10  C9  UNK     1      18.875  -1.158  32.957  1.00  0.00     0.038 A 
HETATM   11  C12 UNK     1      18.402  -0.556  34.125  1.00  0.00     0.006 A 
ENDROOT
BRANCH   5  12
HETATM   12  C4  UNK     1      17.903   5.127  32.154  1.00  0.00    -0.002 A 
HETATM   13  C10 UNK     1      17.977   6.023  31.084  1.00  0.00     0.017 A 
HETATM   14  C13 UNK     1      17.654   7.366  31.271  1.00  0.00     0.037 A 
HETATM   15  C15 UNK     1      17.257   7.820  32.528  1.00  0.00     0.068 A 
HETATM   16  C14 UNK     1      17.181   6.930  33.599  1.00  0.00     0.037 A 
HETATM   17  C11 UNK     1      17.505   5.585  33.413  1.00  0.00     0.017 A 
BRANCH  15  18
HETATM   18  O4  UNK     1      16.941   9.131  32.710  1.00  0.00    -0.356 OA
HETATM   19  C17 UNK     1      15.594   9.430  33.075  1.00  0.00     0.210 C 
ENDBRANCH  15  18
ENDBRANCH   5  12
BRANCH   7  20
HETATM   20  O2  UNK     1      19.541  -1.029  30.694  1.00  0.00    -0.355 OA
HETATM   21  C16 UNK     1      20.401  -2.149  30.898  1.00  0.00     0.210 C 
ENDBRANCH   7  20
TORSDOF 3
ENDMDL
MODEL 7
REMARK VINA RESULT:      -7.7     13.843     17.739
REMARK  3 active torsions:
REMARK  status: ('A' for Active; 'I' for Inactive)
REMARK    1  A    between atoms: C6_10  and  O2_2 
REMARK    2  A    between atoms: C15_19  and  O4_4 
REMARK    3  A    between atoms: C3_7  and  C4_8 
ROOT
HETATM    1  O1  UNK     1      19.237   6.596  32.959  1.00  0.00    -0.309 OA
HETATM    2  O3  UNK     1      15.906   8.851  32.307  1.00  0.00    -0.287 OA
HETATM    3  C1  UNK     1      18.073   8.709  33.239  1.00  0.00     0.081 A 
HETATM    4  C2  UNK     1      19.181   7.884  33.425  1.00  0.00     0.093 A 
HETATM    5  C3  UNK     1      18.137   6.092  32.279  1.00  0.00     0.090 A 
HETATM    6  C5  UNK     1      16.910   8.182  32.510  1.00  0.00     0.190 A 
HETATM    7  C6  UNK     1      18.074  10.015  33.736  1.00  0.00     0.085 A 
HETATM    8  C7  UNK     1      17.017   6.788  32.031  1.00  0.00     0.094 A 
HETATM    9  C8  UNK     1      20.298   8.361  34.113  1.00  0.00     0.038 A 
HETATM   10  C9  UNK     1      19.192  10.489  34.422  1.00  0.00     0.038 A 
HETATM   11  C12 UNK     1      20.302   9.663  34.610  1.00  0.00     0.006 A 
ENDROOT
BRANCH   5  12
HETATM   12  C4  UNK     1      18.305   4.700  31.817  1.00  0.00    -0.002 A 
HETATM   13  C10 UNK     1      18.114   3.637  32.704  1.00  0.00     0.017 A 
HETATM   14  C13 UNK     1      18.274   2.322  32.267  1.00  0.00     0.037 A 
HETATM   15  C15 UNK     1      18.626   2.065  30.942  1.00  0.00     0.068 A 
HETATM   16  C14 UNK     1      18.817   3.122  30.053  1.00  0.00     0.037 A 
HETATM   17  C11 UNK     1      18.657   4.438  30.490  1.00  0.00     0.017 A 
BRANCH  15  18
HETATM   18  O4  UNK     1      18.781   0.782  30.517  1.00  0.00    -0.356 OA
HETATM   19  C17 UNK     1      19.646   0.567  29.402  1.00  0.00     0.210 C 
ENDBRANCH  15  18
ENDBRANCH   5  12
BRANCH   7  20
HETATM   20  O2  UNK     1      17.016  10.860  33.580  1.00  0.00    -0.355 OA
HETATM   21  C16 UNK     1      16.718  11.732  34.668  1.00  0.00     0.210 C 
ENDBRANCH   7  20
TORSDOF 3
ENDMDL
MODEL 8
REMARK VINA RESULT:      -7.5      1.295      7.396
REMARK  3 active torsions:
REMARK  status: ('A' for Active; 'I' for Inactive)
REMARK    1  A    between atoms: C6_10  and  O2_2 
REMARK    2  A    between atoms: C15_19  and  O4_4 
REMARK    3  A    between atoms: C3_7  and  C4_8 
ROOT
HETATM    1  O1  UNK     1      19.600  -0.853  14.876  1.00  0.00    -0.309 OA
HETATM    2  O3  UNK     1      17.590  -4.389  15.115  1.00  0.00    -0.287 OA
HETATM    3  C1  UNK     1      18.925  -2.933  13.818  1.00  0.00     0.081 A 
HETATM    4  C2  UNK     1      19.593  -1.709  13.805  1.00  0.00     0.093 A 
HETATM    5  C3  UNK     1      18.905  -1.220  16.019  1.00  0.00     0.090 A 
HETATM    6  C5  UNK     1      18.195  -3.329  15.032  1.00  0.00     0.190 A 
HETATM    7  C6  UNK     1      18.953  -3.765  12.697  1.00  0.00     0.085 A 
HETATM    8  C7  UNK     1      18.230  -2.372  16.156  1.00  0.00     0.094 A 
HETATM    9  C8  UNK     1      20.294  -1.310  12.666  1.00  0.00     0.038 A 
HETATM   10  C9  UNK     1      19.656  -3.363  11.560  1.00  0.00     0.038 A 
HETATM   11  C12 UNK     1      20.324  -2.138  11.545  1.00  0.00     0.006 A 
ENDROOT
BRANCH   5  12
HETATM   12  C4  UNK     1      18.983  -0.230  17.111  1.00  0.00    -0.002 A 
HETATM   13  C10 UNK     1      19.008   1.137  16.821  1.00  0.00     0.017 A 
HETATM   14  C13 UNK     1      19.083   2.072  17.853  1.00  0.00     0.037 A 
HETATM   15  C15 UNK     1      19.133   1.644  19.180  1.00  0.00     0.068 A 
HETATM   16  C14 UNK     1      19.108   0.281  19.475  1.00  0.00     0.037 A 
HETATM   17  C11 UNK     1      19.033  -0.654  18.442  1.00  0.00     0.017 A 
BRANCH  15  18
HETATM   18  O4  UNK     1      19.206   2.556  20.186  1.00  0.00    -0.356 OA
HETATM   19  C17 UNK     1      19.680   2.094  21.450  1.00  0.00     0.210 C 
ENDBRANCH  15  18
ENDBRANCH   5  12
BRANCH   7  20
HETATM   20  O2  UNK     1      18.317  -4.969  12.661  1.00  0.00    -0.355 OA
HETATM   21  C16 UNK     1      18.907  -5.990  11.858  1.00  0.00     0.210 C 
ENDBRANCH   7  20
TORSDOF 3
ENDMDL
MODEL 9
REMARK VINA RESULT:      -7.5     17.908     21.077
REMARK  3 active torsions:
REMARK  status: ('A' for Active; 'I' for Inactive)
REMARK    1  A    between atoms: C6_10  and  O2_2 
REMARK    2  A    between atoms: C15_19  and  O4_4 
REMARK    3  A    between atoms: C3_7  and  C4_8 
ROOT
HETATM    1  O1  UNK     1      19.106  -2.806  37.485  1.00  0.00    -0.309 OA
HETATM    2  O3  UNK     1      20.033  -1.655  33.688  1.00  0.00    -0.287 OA
HETATM    3  C1  UNK     1      18.950  -1.140  35.724  1.00  0.00     0.081 A 
HETATM    4  C2  UNK     1      18.671  -1.594  37.012  1.00  0.00     0.093 A 
HETATM    5  C3  UNK     1      19.850  -3.616  36.639  1.00  0.00     0.090 A 
HETATM    6  C5  UNK     1      19.747  -1.992  34.829  1.00  0.00     0.190 A 
HETATM    7  C6  UNK     1      18.482   0.105  35.297  1.00  0.00     0.085 A 
HETATM    8  C7  UNK     1      20.188  -3.288  35.382  1.00  0.00     0.094 A 
HETATM    9  C8  UNK     1      17.918  -0.805  37.882  1.00  0.00     0.038 A 
HETATM   10  C9  UNK     1      17.729   0.892  36.170  1.00  0.00     0.038 A 
HETATM   11  C12 UNK     1      17.448   0.438  37.459  1.00  0.00     0.006 A 
ENDROOT
BRANCH   5  12
HETATM   12  C4  UNK     1      20.270  -4.893  37.249  1.00  0.00    -0.002 A 
HETATM   13  C10 UNK     1      19.430  -6.008  37.195  1.00  0.00     0.017 A 
HETATM   14  C13 UNK     1      19.828  -7.214  37.773  1.00  0.00     0.037 A 
HETATM   15  C15 UNK     1      21.066  -7.309  38.407  1.00  0.00     0.068 A 
HETATM   16  C14 UNK     1      21.908  -6.199  38.463  1.00  0.00     0.037 A 
HETATM   17  C11 UNK     1      21.511  -4.992  37.885  1.00  0.00     0.017 A 
BRANCH  15  18
HETATM   18  O4  UNK     1      21.454  -8.485  38.970  1.00  0.00    -0.356 OA
HETATM   19  C17 UNK     1      20.439  -9.465  39.191  1.00  0.00     0.210 C 
ENDBRANCH  15  18
ENDBRANCH   5  12
BRANCH   7  20
HETATM   20  O2  UNK     1      18.728   0.593  34.049  1.00  0.00    -0.355 OA
HETATM   21  C16 UNK     1      18.126   1.841  33.712  1.00  0.00     0.210 C 
ENDBRANCH   7  20
TORSDOF 3
ENDMDL
MODEL 10
REMARK VINA RESULT:      -7.4     19.383     21.769
REMARK  3 active torsions:
REMARK  status: ('A' for Active; 'I' for Inactive)
REMARK    1  A    between atoms: C6_10  and  O2_2 
REMARK    2  A    between atoms: C15_19  and  O4_4 
REMARK    3  A    between atoms: C3_7  and  C4_8 
ROOT
HETATM    1  O1  UNK     1      18.783  -4.677  36.497  1.00  0.00    -0.309 OA
HETATM    2  O3  UNK     1      22.422  -5.478  38.143  1.00  0.00    -0.287 OA
HETATM    3  C1  UNK     1      20.423  -6.321  37.208  1.00  0.00     0.081 A 
HETATM    4  C2  UNK     1      19.192  -5.977  36.652  1.00  0.00     0.093 A 
HETATM    5  C3  UNK     1      19.629  -3.663  36.921  1.00  0.00     0.090 A 
HETATM    6  C5  UNK     1      21.327  -5.249  37.649  1.00  0.00     0.190 A 
HETATM    7  C6  UNK     1      20.787  -7.663  37.340  1.00  0.00     0.085 A 
HETATM    8  C7  UNK     1      20.839  -3.867  37.465  1.00  0.00     0.094 A 
HETATM    9  C8  UNK     1      18.316  -6.975  36.224  1.00  0.00     0.038 A 
HETATM   10  C9  UNK     1      19.909  -8.660  36.911  1.00  0.00     0.038 A 
HETATM   11  C12 UNK     1      18.676  -8.316  36.355  1.00  0.00     0.006 A 
ENDROOT
BRANCH   5  12
HETATM   12  C4  UNK     1      19.094  -2.305  36.703  1.00  0.00    -0.002 A 
HETATM   13  C10 UNK     1      19.325  -1.644  35.493  1.00  0.00     0.017 A 
HETATM   14  C13 UNK     1      18.820  -0.361  35.288  1.00  0.00     0.037 A 
HETATM   15  C15 UNK     1      18.083   0.268  36.291  1.00  0.00     0.068 A 
HETATM   16  C14 UNK     1      17.850  -0.387  37.500  1.00  0.00     0.037 A 
HETATM   17  C11 UNK     1      18.355  -1.672  37.705  1.00  0.00     0.017 A 
BRANCH  15  18
HETATM   18  O4  UNK     1      17.590   1.520  36.090  1.00  0.00    -0.356 OA
HETATM   19  C17 UNK     1      18.295   2.356  35.173  1.00  0.00     0.210 C 
ENDBRANCH  15  18
ENDBRANCH   5  12
BRANCH   7  20
HETATM   20  O2  UNK     1      21.978  -8.051  37.877  1.00  0.00    -0.355 OA
HETATM   21  C16 UNK     1      22.829  -8.848  37.056  1.00  0.00     0.210 C 
ENDBRANCH   7  20
TORSDOF 3
ENDMDL
