MODEL 1
REMARK VINA RESULT:      -8.1      0.000      0.000
REMARK  2 active torsions:
REMARK  status: ('A' for Active; 'I' for Inactive)
REMARK    1  A    between atoms: C5_9  and  O2_2 
REMARK    2  A    between atoms: C6_10  and  O3_3 
ROOT
HETATM    1  O1  UNK     1      19.403   0.273  17.077  1.00  0.00    -0.275 OA
HETATM    2  O4  UNK     1      19.370   0.610  14.812  1.00  0.00    -0.260 OA
HETATM    3  C1  UNK     1      19.378   2.202  18.561  1.00  0.00     0.001 A 
HETATM    4  C2  UNK     1      19.406   0.823  18.376  1.00  0.00     0.092 A 
HETATM    5  C3  UNK     1      19.382   2.708  19.863  1.00  0.00     0.053 A 
HETATM    6  C4  UNK     1      19.435  -0.062  19.452  1.00  0.00     0.077 A 
HETATM    7  C5  UNK     1      19.412   1.833  20.953  1.00  0.00     0.099 A 
HETATM    8  C6  UNK     1      19.438   0.452  20.747  1.00  0.00     0.101 A 
HETATM    9  C7  UNK     1      19.348   3.066  17.393  1.00  0.00     0.020 A 
HETATM   10  C8  UNK     1      19.346   2.538  16.167  1.00  0.00     0.083 A 
HETATM   11  C9  UNK     1      19.373   1.080  15.945  1.00  0.00     0.288 A 
ENDROOT
BRANCH   7  12
HETATM   12  O2  UNK     1      19.413   2.342  22.217  1.00  0.00    -0.358 OA
HETATM   13  H5  UNK     1      18.999   1.700  22.818  1.00  0.00     0.217 HD
ENDBRANCH   7  12
BRANCH   8  14
HETATM   14  O3  UNK     1      19.467  -0.405  21.807  1.00  0.00    -0.358 OA
HETATM   15  H6  UNK     1      18.593  -0.393  22.233  1.00  0.00     0.217 HD
ENDBRANCH   8  14
TORSDOF 2
ENDMDL
MODEL 2
REMARK VINA RESULT:      -7.2      1.083      2.248
REMARK  2 active torsions:
REMARK  status: ('A' for Active; 'I' for Inactive)
REMARK    1  A    between atoms: C5_9  and  O2_2 
REMARK    2  A    between atoms: C6_10  and  O3_3 
ROOT
HETATM    1  O1  UNK     1      19.361   2.792  17.557  1.00  0.00    -0.275 OA
HETATM    2  O4  UNK     1      19.255   2.987  15.277  1.00  0.00    -0.260 OA
HETATM    3  C1  UNK     1      19.310   0.575  18.559  1.00  0.00     0.001 A 
HETATM    4  C2  UNK     1      19.380   1.958  18.694  1.00  0.00     0.092 A 
HETATM    5  C3  UNK     1      19.332  -0.218  19.709  1.00  0.00     0.053 A 
HETATM    6  C4  UNK     1      19.472   2.570  19.943  1.00  0.00     0.077 A 
HETATM    7  C5  UNK     1      19.424   0.381  20.968  1.00  0.00     0.099 A 
HETATM    8  C6  UNK     1      19.494   1.772  21.084  1.00  0.00     0.101 A 
HETATM    9  C7  UNK     1      19.215   0.005  17.226  1.00  0.00     0.020 A 
HETATM   10  C8  UNK     1      19.197   0.800  16.154  1.00  0.00     0.083 A 
HETATM   11  C9  UNK     1      19.271   2.269  16.271  1.00  0.00     0.288 A 
ENDROOT
BRANCH   7  12
HETATM   12  O2  UNK     1      19.446  -0.405  22.081  1.00  0.00    -0.358 OA
HETATM   13  H5  UNK     1      18.628  -0.261  22.587  1.00  0.00     0.217 HD
ENDBRANCH   7  12
BRANCH   8  14
HETATM   14  O3  UNK     1      19.583   2.359  22.310  1.00  0.00    -0.358 OA
HETATM   15  H6  UNK     1      20.217   3.096  22.251  1.00  0.00     0.217 HD
ENDBRANCH   8  14
TORSDOF 2
ENDMDL
MODEL 3
REMARK VINA RESULT:      -6.9      1.758      3.009
REMARK  2 active torsions:
REMARK  status: ('A' for Active; 'I' for Inactive)
REMARK    1  A    between atoms: C5_9  and  O2_2 
REMARK    2  A    between atoms: C6_10  and  O3_3 
ROOT
HETATM    1  O1  UNK     1      19.311   1.022  15.318  1.00  0.00    -0.275 OA
HETATM    2  O4  UNK     1      19.141  -0.615  13.726  1.00  0.00    -0.260 OA
HETATM    3  C1  UNK     1      19.032   0.427  17.661  1.00  0.00     0.001 A 
HETATM    4  C2  UNK     1      19.274   1.384  16.680  1.00  0.00     0.092 A 
HETATM    5  C3  UNK     1      19.003   0.824  19.000  1.00  0.00     0.053 A 
HETATM    6  C4  UNK     1      19.488   2.724  16.999  1.00  0.00     0.077 A 
HETATM    7  C5  UNK     1      19.216   2.165  19.335  1.00  0.00     0.099 A 
HETATM    8  C6  UNK     1      19.458   3.111  18.337  1.00  0.00     0.101 A 
HETATM    9  C7  UNK     1      18.818  -0.952  17.257  1.00  0.00     0.020 A 
HETATM   10  C8  UNK     1      18.854  -1.287  15.966  1.00  0.00     0.083 A 
HETATM   11  C9  UNK     1      19.110  -0.292  14.908  1.00  0.00     0.288 A 
ENDROOT
BRANCH   7  12
HETATM   12  O2  UNK     1      19.186   2.537  20.646  1.00  0.00    -0.358 OA
HETATM   13  H5  UNK     1      18.526   3.242  20.760  1.00  0.00     0.217 HD
ENDBRANCH   7  12
BRANCH   8  14
HETATM   14  O3  UNK     1      19.665   4.419  18.660  1.00  0.00    -0.358 OA
HETATM   15  H6  UNK     1      19.573   4.514  19.624  1.00  0.00     0.217 HD
ENDBRANCH   8  14
TORSDOF 2
ENDMDL
MODEL 4
REMARK VINA RESULT:      -6.8     10.311     12.552
REMARK  2 active torsions:
REMARK  status: ('A' for Active; 'I' for Inactive)
REMARK    1  A    between atoms: C5_9  and  O2_2 
REMARK    2  A    between atoms: C6_10  and  O3_3 
ROOT
HETATM    1  O1  UNK     1      20.156  -0.817  32.098  1.00  0.00    -0.275 OA
HETATM    2  O4  UNK     1      21.170  -2.783  32.689  1.00  0.00    -0.260 OA
HETATM    3  C1  UNK     1      19.665  -0.397  29.752  1.00  0.00     0.001 A 
HETATM    4  C2  UNK     1      19.634   0.010  31.082  1.00  0.00     0.092 A 
HETATM    5  C3  UNK     1      19.138   0.450  28.774  1.00  0.00     0.053 A 
HETATM    6  C4  UNK     1      19.092   1.237  31.462  1.00  0.00     0.077 A 
HETATM    7  C5  UNK     1      18.591   1.684  29.140  1.00  0.00     0.099 A 
HETATM    8  C6  UNK     1      18.569   2.075  30.481  1.00  0.00     0.101 A 
HETATM    9  C7  UNK     1      20.245  -1.689  29.428  1.00  0.00     0.020 A 
HETATM   10  C8  UNK     1      20.737  -2.466  30.394  1.00  0.00     0.083 A 
HETATM   11  C9  UNK     1      20.715  -2.057  31.812  1.00  0.00     0.288 A 
ENDROOT
BRANCH   7  12
HETATM   12  O2  UNK     1      18.079   2.499  28.175  1.00  0.00    -0.358 OA
HETATM   13  H5  UNK     1      17.715   1.952  27.458  1.00  0.00     0.217 HD
ENDBRANCH   7  12
BRANCH   8  14
HETATM   14  O3  UNK     1      18.036   3.277  30.841  1.00  0.00    -0.358 OA
HETATM   15  H6  UNK     1      17.410   3.553  30.150  1.00  0.00     0.217 HD
ENDBRANCH   8  14
TORSDOF 2
ENDMDL
MODEL 5
REMARK VINA RESULT:      -6.5     10.894     13.342
REMARK  2 active torsions:
REMARK  status: ('A' for Active; 'I' for Inactive)
REMARK    1  A    between atoms: C5_9  and  O2_2 
REMARK    2  A    between atoms: C6_10  and  O3_3 
ROOT
HETATM    1  O1  UNK     1      18.718   0.699  30.766  1.00  0.00    -0.275 OA
HETATM    2  O4  UNK     1      18.817   1.750  28.733  1.00  0.00    -0.260 OA
HETATM    3  C1  UNK     1      20.175  -1.204  31.186  1.00  0.00     0.001 A 
HETATM    4  C2  UNK     1      19.188  -0.323  31.617  1.00  0.00     0.092 A 
HETATM    5  C3  UNK     1      20.615  -2.203  32.058  1.00  0.00     0.053 A 
HETATM    6  C4  UNK     1      18.629  -0.411  32.890  1.00  0.00     0.077 A 
HETATM    7  C5  UNK     1      20.064  -2.305  33.339  1.00  0.00     0.099 A 
HETATM    8  C6  UNK     1      19.073  -1.411  33.753  1.00  0.00     0.101 A 
HETATM    9  C7  UNK     1      20.714  -1.053  29.845  1.00  0.00     0.020 A 
HETATM   10  C8  UNK     1      20.264  -0.084  29.046  1.00  0.00     0.083 A 
HETATM   11  C9  UNK     1      19.219   0.863  29.479  1.00  0.00     0.288 A 
ENDROOT
BRANCH   7  12
HETATM   12  O2  UNK     1      20.503  -3.284  34.178  1.00  0.00    -0.358 OA
HETATM   13  H5  UNK     1      20.955  -3.969  33.657  1.00  0.00     0.217 HD
ENDBRANCH   7  12
BRANCH   8  14
HETATM   14  O3  UNK     1      18.534  -1.506  35.001  1.00  0.00    -0.358 OA
HETATM   15  H6  UNK     1      18.910  -0.798  35.552  1.00  0.00     0.217 HD
ENDBRANCH   8  14
TORSDOF 2
ENDMDL
MODEL 6
REMARK VINA RESULT:      -6.5     18.333     20.695
REMARK  2 active torsions:
REMARK  status: ('A' for Active; 'I' for Inactive)
REMARK    1  A    between atoms: C5_9  and  O2_2 
REMARK    2  A    between atoms: C6_10  and  O3_3 
ROOT
HETATM    1  O1  UNK     1      18.905  -9.543  37.848  1.00  0.00    -0.275 OA
HETATM    2  O4  UNK     1      19.337 -11.728  38.382  1.00  0.00    -0.260 OA
HETATM    3  C1  UNK     1      20.275  -8.443  36.165  1.00  0.00     0.001 A 
HETATM    4  C2  UNK     1      19.229  -8.405  37.081  1.00  0.00     0.092 A 
HETATM    5  C3  UNK     1      20.565  -7.295  35.423  1.00  0.00     0.053 A 
HETATM    6  C4  UNK     1      18.465  -7.256  37.276  1.00  0.00     0.077 A 
HETATM    7  C5  UNK     1      19.808  -6.134  35.608  1.00  0.00     0.099 A 
HETATM    8  C6  UNK     1      18.761  -6.116  36.532  1.00  0.00     0.101 A 
HETATM    9  C7  UNK     1      21.030  -9.675  36.013  1.00  0.00     0.020 A 
HETATM   10  C8  UNK     1      20.718 -10.748  36.742  1.00  0.00     0.083 A 
HETATM   11  C9  UNK     1      19.613 -10.733  37.720  1.00  0.00     0.288 A 
ENDROOT
BRANCH   7  12
HETATM   12  O2  UNK     1      20.102  -5.023  34.876  1.00  0.00    -0.358 OA
HETATM   13  H5  UNK     1      20.435  -5.296  34.005  1.00  0.00     0.217 HD
ENDBRANCH   7  12
BRANCH   8  14
HETATM   14  O3  UNK     1      18.020  -4.986  36.715  1.00  0.00    -0.358 OA
HETATM   15  H6  UNK     1      17.540  -5.069  37.557  1.00  0.00     0.217 HD
ENDBRANCH   8  14
TORSDOF 2
ENDMDL
MODEL 7
REMARK VINA RESULT:      -6.4     12.052     14.381
REMARK  2 active torsions:
REMARK  status: ('A' for Active; 'I' for Inactive)
REMARK    1  A    between atoms: C5_9  and  O2_2 
REMARK    2  A    between atoms: C6_10  and  O3_3 
ROOT
HETATM    1  O1  UNK     1       9.363   5.783   9.290  1.00  0.00    -0.275 OA
HETATM    2  O4  UNK     1       7.156   6.136   8.791  1.00  0.00    -0.260 OA
HETATM    3  C1  UNK     1      11.014   5.907   7.506  1.00  0.00     0.001 A 
HETATM    4  C2  UNK     1      10.699   5.703   8.847  1.00  0.00     0.092 A 
HETATM    5  C3  UNK     1      12.349   5.820   7.106  1.00  0.00     0.053 A 
HETATM    6  C4  UNK     1      11.679   5.418   9.796  1.00  0.00     0.077 A 
HETATM    7  C5  UNK     1      13.344   5.533   8.046  1.00  0.00     0.099 A 
HETATM    8  C6  UNK     1      13.008   5.333   9.387  1.00  0.00     0.101 A 
HETATM    9  C7  UNK     1       9.942   6.201   6.571  1.00  0.00     0.020 A 
HETATM   10  C8  UNK     1       8.680   6.275   6.998  1.00  0.00     0.083 A 
HETATM   11  C9  UNK     1       8.320   6.064   8.414  1.00  0.00     0.288 A 
ENDROOT
BRANCH   7  12
HETATM   12  O2  UNK     1      14.642   5.453   7.640  1.00  0.00    -0.358 OA
HETATM   13  H5  UNK     1      14.718   5.824   6.745  1.00  0.00     0.217 HD
ENDBRANCH   7  12
BRANCH   8  14
HETATM   14  O3  UNK     1      13.974   5.053  10.307  1.00  0.00    -0.358 OA
HETATM   15  H6  UNK     1      14.391   4.207  10.065  1.00  0.00     0.217 HD
ENDBRANCH   8  14
TORSDOF 2
ENDMDL
MODEL 8
REMARK VINA RESULT:      -6.4     12.237     14.745
REMARK  2 active torsions:
REMARK  status: ('A' for Active; 'I' for Inactive)
REMARK    1  A    between atoms: C5_9  and  O2_2 
REMARK    2  A    between atoms: C6_10  and  O3_3 
ROOT
HETATM    1  O1  UNK     1      17.459   4.081  32.171  1.00  0.00    -0.275 OA
HETATM    2  O4  UNK     1      17.357   2.417  30.601  1.00  0.00    -0.260 OA
HETATM    3  C1  UNK     1      19.236   5.737  32.026  1.00  0.00     0.001 A 
HETATM    4  C2  UNK     1      18.108   5.230  32.666  1.00  0.00     0.092 A 
HETATM    5  C3  UNK     1      19.851   6.878  32.547  1.00  0.00     0.053 A 
HETATM    6  C4  UNK     1      17.579   5.831  33.806  1.00  0.00     0.077 A 
HETATM    7  C5  UNK     1      19.332   7.492  33.690  1.00  0.00     0.099 A 
HETATM    8  C6  UNK     1      18.199   6.969  34.318  1.00  0.00     0.101 A 
HETATM    9  C7  UNK     1      19.734   5.060  30.841  1.00  0.00     0.020 A 
HETATM   10  C8  UNK     1      19.114   3.972  30.379  1.00  0.00     0.083 A 
HETATM   11  C9  UNK     1      17.916   3.416  31.038  1.00  0.00     0.288 A 
ENDROOT
BRANCH   7  12
HETATM   12  O2  UNK     1      19.943   8.605  34.185  1.00  0.00    -0.358 OA
HETATM   13  H5  UNK     1      20.084   9.238  33.461  1.00  0.00     0.217 HD
ENDBRANCH   7  12
BRANCH   8  14
HETATM   14  O3  UNK     1      17.690   7.564  35.433  1.00  0.00    -0.358 OA
HETATM   15  H6  UNK     1      17.995   8.488  35.453  1.00  0.00     0.217 HD
ENDBRANCH   8  14
TORSDOF 2
ENDMDL
MODEL 9
REMARK VINA RESULT:      -6.3     12.985     15.540
REMARK  2 active torsions:
REMARK  status: ('A' for Active; 'I' for Inactive)
REMARK    1  A    between atoms: C5_9  and  O2_2 
REMARK    2  A    between atoms: C6_10  and  O3_3 
ROOT
HETATM    1  O1  UNK     1      18.072   6.230  31.148  1.00  0.00    -0.275 OA
HETATM    2  O4  UNK     1      19.702   5.660  29.644  1.00  0.00    -0.260 OA
HETATM    3  C1  UNK     1      18.716   6.862  33.408  1.00  0.00     0.001 A 
HETATM    4  C2  UNK     1      17.729   6.647  32.451  1.00  0.00     0.092 A 
HETATM    5  C3  UNK     1      18.337   7.275  34.687  1.00  0.00     0.053 A 
HETATM    6  C4  UNK     1      16.377   6.832  32.735  1.00  0.00     0.077 A 
HETATM    7  C5  UNK     1      16.985   7.465  34.988  1.00  0.00     0.099 A 
HETATM    8  C6  UNK     1      16.008   7.244  34.014  1.00  0.00     0.101 A 
HETATM    9  C7  UNK     1      20.106   6.650  33.042  1.00  0.00     0.020 A 
HETATM   10  C8  UNK     1      20.422   6.255  31.807  1.00  0.00     0.083 A 
HETATM   11  C9  UNK     1      19.395   6.021  30.774  1.00  0.00     0.288 A 
ENDROOT
BRANCH   7  12
HETATM   12  O2  UNK     1      16.630   7.869  36.240  1.00  0.00    -0.358 OA
HETATM   13  H5  UNK     1      15.893   8.499  36.174  1.00  0.00     0.217 HD
ENDBRANCH   7  12
BRANCH   8  14
HETATM   14  O3  UNK     1      14.689   7.428  34.303  1.00  0.00    -0.358 OA
HETATM   15  H6  UNK     1      14.589   7.455  35.271  1.00  0.00     0.217 HD
ENDBRANCH   8  14
TORSDOF 2
ENDMDL
MODEL 10
REMARK VINA RESULT:      -6.3     13.554     15.422
REMARK  2 active torsions:
REMARK  status: ('A' for Active; 'I' for Inactive)
REMARK    1  A    between atoms: C5_9  and  O2_2 
REMARK    2  A    between atoms: C6_10  and  O3_3 
ROOT
HETATM    1  O1  UNK     1       9.253   5.683  10.021  1.00  0.00    -0.275 OA
HETATM    2  O4  UNK     1       7.282   5.996  11.145  1.00  0.00    -0.260 OA
HETATM    3  C1  UNK     1       9.407   6.361   7.690  1.00  0.00     0.001 A 
HETATM    4  C2  UNK     1       9.990   5.809   8.826  1.00  0.00     0.092 A 
HETATM    5  C3  UNK     1      10.169   6.470   6.524  1.00  0.00     0.053 A 
HETATM    6  C4  UNK     1      11.311   5.364   8.831  1.00  0.00     0.077 A 
HETATM    7  C5  UNK     1      11.495   6.027   6.513  1.00  0.00     0.099 A 
HETATM    8  C6  UNK     1      12.063   5.476   7.664  1.00  0.00     0.101 A 
HETATM    9  C7  UNK     1       8.025   6.805   7.756  1.00  0.00     0.020 A 
HETATM   10  C8  UNK     1       7.334   6.682   8.891  1.00  0.00     0.083 A 
HETATM   11  C9  UNK     1       7.930   6.101  10.109  1.00  0.00     0.288 A 
ENDROOT
BRANCH   7  12
HETATM   12  O2  UNK     1      12.227   6.141   5.369  1.00  0.00    -0.358 OA
HETATM   13  H5  UNK     1      11.666   6.519   4.670  1.00  0.00     0.217 HD
ENDBRANCH   7  12
BRANCH   8  14
HETATM   14  O3  UNK     1      13.356   5.043   7.657  1.00  0.00    -0.358 OA
HETATM   15  H6  UNK     1      13.596   4.784   8.564  1.00  0.00     0.217 HD
ENDBRANCH   8  14
TORSDOF 2
ENDMDL
