MODEL 1
REMARK VINA RESULT:      -7.8      0.000      0.000
REMARK  2 active torsions:
REMARK  status: ('A' for Active; 'I' for Inactive)
REMARK    1  A    between atoms: C7_11  and  O2_3 
REMARK    2  A    between atoms: C1_5  and  C3_7 
ROOT
HETATM    1 Cl1  UNK     1      18.262   1.254  29.080  1.00  0.00    -0.084 Cl
HETATM    2  O1  UNK     1      18.969   6.493  31.658  1.00  0.00    -0.309 OA
HETATM    3  O3  UNK     1      17.881   3.350  34.012  1.00  0.00    -0.287 OA
HETATM    4  C1  UNK     1      18.760   6.641  33.021  1.00  0.00     0.093 A 
HETATM    5  C2  UNK     1      18.418   4.135  31.848  1.00  0.00     0.050 A 
HETATM    6  C4  UNK     1      18.791   5.251  31.102  1.00  0.00     0.090 A 
HETATM    7  C5  UNK     1      18.407   5.643  33.845  1.00  0.00     0.094 A 
HETATM    8  C6  UNK     1      18.205   4.288  33.296  1.00  0.00     0.187 A 
HETATM    9  C8  UNK     1      18.252   2.894  31.229  1.00  0.00     0.042 A 
HETATM   10  C9  UNK     1      19.001   5.133  29.728  1.00  0.00     0.040 A 
HETATM   11  C12 UNK     1      18.463   2.778  29.855  1.00  0.00     0.035 A 
HETATM   12  C13 UNK     1      18.836   3.895  29.106  1.00  0.00     0.026 A 
ENDROOT
BRANCH   4  13
HETATM   13  C3  UNK     1      18.985   8.015  33.515  1.00  0.00     0.031 A 
HETATM   14  C10 UNK     1      20.199   8.326  34.136  1.00  0.00     0.017 A 
HETATM   15  C14 UNK     1      20.433   9.616  34.612  1.00  0.00     0.001 A 
HETATM   16  C15 UNK     1      19.457  10.602  34.468  1.00  0.00     0.003 A 
HETATM   17  C11 UNK     1      18.245  10.296  33.848  1.00  0.00     0.038 A 
HETATM   18  C7  UNK     1      18.009   9.006  33.373  1.00  0.00     0.081 A 
BRANCH  18  19
HETATM   19  O2  UNK     1      16.816   8.735  32.771  1.00  0.00    -0.355 OA
HETATM   20  C16 UNK     1      15.669   9.421  33.268  1.00  0.00     0.210 C 
ENDBRANCH  18  19
ENDBRANCH   4  13
TORSDOF 2
ENDMDL
MODEL 2
REMARK VINA RESULT:      -7.6      9.306     11.634
REMARK  2 active torsions:
REMARK  status: ('A' for Active; 'I' for Inactive)
REMARK    1  A    between atoms: C7_11  and  O2_3 
REMARK    2  A    between atoms: C1_5  and  C3_7 
ROOT
HETATM    1 Cl1  UNK     1      20.218 -10.097  36.903  1.00  0.00    -0.084 Cl
HETATM    2  O1  UNK     1      18.666  -4.439  36.478  1.00  0.00    -0.309 OA
HETATM    3  O3  UNK     1      22.317  -5.292  38.072  1.00  0.00    -0.287 OA
HETATM    4  C1  UNK     1      19.520  -3.440  36.917  1.00  0.00     0.093 A 
HETATM    5  C2  UNK     1      20.306  -6.107  37.136  1.00  0.00     0.050 A 
HETATM    6  C4  UNK     1      19.072  -5.745  36.599  1.00  0.00     0.090 A 
HETATM    7  C5  UNK     1      20.734  -3.661  37.445  1.00  0.00     0.094 A 
HETATM    8  C6  UNK     1      21.218  -5.047  37.594  1.00  0.00     0.187 A 
HETATM    9  C8  UNK     1      20.667  -7.452  37.233  1.00  0.00     0.042 A 
HETATM   10  C9  UNK     1      18.189  -6.730  36.155  1.00  0.00     0.040 A 
HETATM   11  C12 UNK     1      19.783  -8.435  36.789  1.00  0.00     0.035 A 
HETATM   12  C13 UNK     1      18.546  -8.075  36.250  1.00  0.00     0.026 A 
ENDROOT
BRANCH   4  13
HETATM   13  C3  UNK     1      18.988  -2.074  36.736  1.00  0.00     0.031 A 
HETATM   14  C10 UNK     1      18.245  -1.489  37.767  1.00  0.00     0.017 A 
HETATM   15  C14 UNK     1      17.731  -0.201  37.618  1.00  0.00     0.001 A 
HETATM   16  C15 UNK     1      17.957   0.509  36.439  1.00  0.00     0.003 A 
HETATM   17  C11 UNK     1      18.697  -0.070  35.408  1.00  0.00     0.038 A 
HETATM   18  C7  UNK     1      19.211  -1.359  35.556  1.00  0.00     0.081 A 
BRANCH  18  19
HETATM   19  O2  UNK     1      19.932  -1.900  34.533  1.00  0.00    -0.355 OA
HETATM   20  C16 UNK     1      19.446  -1.680  33.211  1.00  0.00     0.210 C 
ENDBRANCH  18  19
ENDBRANCH   4  13
TORSDOF 2
ENDMDL
MODEL 3
REMARK VINA RESULT:      -7.5     22.684     24.941
REMARK  2 active torsions:
REMARK  status: ('A' for Active; 'I' for Inactive)
REMARK    1  A    between atoms: C7_11  and  O2_3 
REMARK    2  A    between atoms: C1_5  and  C3_7 
ROOT
HETATM    1 Cl1  UNK     1      18.305  10.836  10.234  1.00  0.00    -0.084 Cl
HETATM    2  O1  UNK     1      13.311   8.658   8.018  1.00  0.00    -0.309 OA
HETATM    3  O3  UNK     1      15.176   6.527  10.947  1.00  0.00    -0.287 OA
HETATM    4  C1  UNK     1      12.801   7.455   8.480  1.00  0.00     0.093 A 
HETATM    5  C2  UNK     1      15.169   8.447   9.568  1.00  0.00     0.050 A 
HETATM    6  C4  UNK     1      14.480   9.126   8.565  1.00  0.00     0.090 A 
HETATM    7  C5  UNK     1      13.368   6.714   9.444  1.00  0.00     0.094 A 
HETATM    8  C6  UNK     1      14.625   7.174  10.066  1.00  0.00     0.187 A 
HETATM    9  C8  UNK     1      16.354   8.970  10.089  1.00  0.00     0.042 A 
HETATM   10  C9  UNK     1      14.972  10.335   8.076  1.00  0.00     0.040 A 
HETATM   11  C12 UNK     1      16.845  10.180   9.598  1.00  0.00     0.035 A 
HETATM   12  C13 UNK     1      16.156  10.862   8.594  1.00  0.00     0.026 A 
ENDROOT
BRANCH   4  13
HETATM   13  C3  UNK     1      11.539   7.049   7.827  1.00  0.00     0.031 A 
HETATM   14  C10 UNK     1      11.586   6.455   6.562  1.00  0.00     0.017 A 
HETATM   15  C14 UNK     1      10.408   6.065   5.925  1.00  0.00     0.001 A 
HETATM   16  C15 UNK     1       9.178   6.265   6.551  1.00  0.00     0.003 A 
HETATM   17  C11 UNK     1       9.125   6.856   7.814  1.00  0.00     0.038 A 
HETATM   18  C7  UNK     1      10.304   7.248   8.450  1.00  0.00     0.081 A 
BRANCH  18  19
HETATM   19  O2  UNK     1      10.224   7.823   9.684  1.00  0.00    -0.355 OA
HETATM   20  C16 UNK     1       9.501   9.047   9.783  1.00  0.00     0.210 C 
ENDBRANCH  18  19
ENDBRANCH   4  13
TORSDOF 2
ENDMDL
MODEL 4
REMARK VINA RESULT:      -7.5      5.801      8.452
REMARK  2 active torsions:
REMARK  status: ('A' for Active; 'I' for Inactive)
REMARK    1  A    between atoms: C7_11  and  O2_3 
REMARK    2  A    between atoms: C1_5  and  C3_7 
ROOT
HETATM    1 Cl1  UNK     1      17.569   1.303  38.919  1.00  0.00    -0.084 Cl
HETATM    2  O1  UNK     1      18.841   0.577  33.222  1.00  0.00    -0.309 OA
HETATM    3  O3  UNK     1      19.373  -2.607  35.707  1.00  0.00    -0.287 OA
HETATM    4  C1  UNK     1      19.313  -0.640  32.755  1.00  0.00     0.093 A 
HETATM    5  C2  UNK     1      18.719  -0.349  35.465  1.00  0.00     0.050 A 
HETATM    6  C4  UNK     1      18.559   0.699  34.560  1.00  0.00     0.090 A 
HETATM    7  C5  UNK     1      19.503  -1.723  33.525  1.00  0.00     0.094 A 
HETATM    8  C6  UNK     1      19.212  -1.644  34.970  1.00  0.00     0.187 A 
HETATM    9  C8  UNK     1      18.415  -0.169  36.816  1.00  0.00     0.042 A 
HETATM   10  C9  UNK     1      18.092   1.937  35.002  1.00  0.00     0.040 A 
HETATM   11  C12 UNK     1      17.949   1.070  37.256  1.00  0.00     0.035 A 
HETATM   12  C13 UNK     1      17.787   2.120  36.351  1.00  0.00     0.026 A 
ENDROOT
BRANCH   4  13
HETATM   13  C3  UNK     1      19.579  -0.662  31.303  1.00  0.00     0.031 A 
HETATM   14  C10 UNK     1      20.154  -1.802  30.732  1.00  0.00     0.017 A 
HETATM   15  C14 UNK     1      20.416  -1.846  29.363  1.00  0.00     0.001 A 
HETATM   16  C15 UNK     1      20.102  -0.752  28.557  1.00  0.00     0.003 A 
HETATM   17  C11 UNK     1      19.527   0.387  29.121  1.00  0.00     0.038 A 
HETATM   18  C7  UNK     1      19.266   0.432  30.491  1.00  0.00     0.081 A 
BRANCH  18  19
HETATM   19  O2  UNK     1      18.704   1.558  31.016  1.00  0.00    -0.355 OA
HETATM   20  C16 UNK     1      18.591   2.688  30.155  1.00  0.00     0.210 C 
ENDBRANCH  18  19
ENDBRANCH   4  13
TORSDOF 2
ENDMDL
MODEL 5
REMARK VINA RESULT:      -7.5      5.167      8.434
REMARK  2 active torsions:
REMARK  status: ('A' for Active; 'I' for Inactive)
REMARK    1  A    between atoms: C7_11  and  O2_3 
REMARK    2  A    between atoms: C1_5  and  C3_7 
ROOT
HETATM    1 Cl1  UNK     1      17.529   1.380  38.671  1.00  0.00    -0.084 Cl
HETATM    2  O1  UNK     1      18.831  -0.023  33.109  1.00  0.00    -0.309 OA
HETATM    3  O3  UNK     1      18.120   3.897  33.962  1.00  0.00    -0.287 OA
HETATM    4  C1  UNK     1      18.882   0.957  32.129  1.00  0.00     0.093 A 
HETATM    5  C2  UNK     1      18.266   1.675  34.753  1.00  0.00     0.050 A 
HETATM    6  C4  UNK     1      18.522   0.353  34.393  1.00  0.00     0.090 A 
HETATM    7  C5  UNK     1      18.662   2.261  32.352  1.00  0.00     0.094 A 
HETATM    8  C6  UNK     1      18.329   2.717  33.716  1.00  0.00     0.187 A 
HETATM    9  C8  UNK     1      17.958   2.000  36.075  1.00  0.00     0.042 A 
HETATM   10  C9  UNK     1      18.471  -0.654  35.356  1.00  0.00     0.040 A 
HETATM   11  C12 UNK     1      17.907   0.991  37.037  1.00  0.00     0.035 A 
HETATM   12  C13 UNK     1      18.164  -0.333  36.679  1.00  0.00     0.026 A 
ENDROOT
BRANCH   4  13
HETATM   13  C3  UNK     1      19.228   0.444  30.788  1.00  0.00     0.031 A 
HETATM   14  C10 UNK     1      18.503   0.892  29.679  1.00  0.00     0.017 A 
HETATM   15  C14 UNK     1      18.810   0.421  28.403  1.00  0.00     0.001 A 
HETATM   16  C15 UNK     1      19.844  -0.498  28.228  1.00  0.00     0.003 A 
HETATM   17  C11 UNK     1      20.571  -0.947  29.331  1.00  0.00     0.038 A 
HETATM   18  C7  UNK     1      20.263  -0.478  30.608  1.00  0.00     0.081 A 
BRANCH  18  19
HETATM   19  O2  UNK     1      20.990  -0.933  31.668  1.00  0.00    -0.355 OA
HETATM   20  C16 UNK     1      20.939  -2.333  31.935  1.00  0.00     0.210 C 
ENDBRANCH  18  19
ENDBRANCH   4  13
TORSDOF 2
ENDMDL
MODEL 6
REMARK VINA RESULT:      -7.5     14.397     17.515
REMARK  2 active torsions:
REMARK  status: ('A' for Active; 'I' for Inactive)
REMARK    1  A    between atoms: C7_11  and  O2_3 
REMARK    2  A    between atoms: C1_5  and  C3_7 
ROOT
HETATM    1 Cl1  UNK     1      21.180  -6.705  14.075  1.00  0.00    -0.084 Cl
HETATM    2  O1  UNK     1      20.383  -1.949  17.442  1.00  0.00    -0.309 OA
HETATM    3  O3  UNK     1      17.334  -3.065  14.982  1.00  0.00    -0.287 OA
HETATM    4  C1  UNK     1      19.196  -1.236  17.384  1.00  0.00     0.093 A 
HETATM    5  C2  UNK     1      19.521  -3.487  15.771  1.00  0.00     0.050 A 
HETATM    6  C4  UNK     1      20.523  -3.052  16.636  1.00  0.00     0.090 A 
HETATM    7  C5  UNK     1      18.157  -1.559  16.598  1.00  0.00     0.094 A 
HETATM    8  C6  UNK     1      18.256  -2.737  15.715  1.00  0.00     0.187 A 
HETATM    9  C8  UNK     1      19.717  -4.618  14.975  1.00  0.00     0.042 A 
HETATM   10  C9  UNK     1      21.731  -3.745  16.711  1.00  0.00     0.040 A 
HETATM   11  C12 UNK     1      20.926  -5.310  15.051  1.00  0.00     0.035 A 
HETATM   12  C13 UNK     1      21.931  -4.875  15.917  1.00  0.00     0.026 A 
ENDROOT
BRANCH   4  13
HETATM   13  C3  UNK     1      19.150  -0.073  18.295  1.00  0.00     0.031 A 
HETATM   14  C10 UNK     1      19.117  -0.291  19.676  1.00  0.00     0.017 A 
HETATM   15  C14 UNK     1      19.072   0.791  20.556  1.00  0.00     0.001 A 
HETATM   16  C15 UNK     1      19.062   2.094  20.059  1.00  0.00     0.003 A 
HETATM   17  C11 UNK     1      19.096   2.316  18.683  1.00  0.00     0.038 A 
HETATM   18  C7  UNK     1      19.139   1.235  17.802  1.00  0.00     0.081 A 
BRANCH  18  19
HETATM   19  O2  UNK     1      19.172   1.480  16.461  1.00  0.00    -0.355 OA
HETATM   20  C16 UNK     1      19.505   2.805  16.053  1.00  0.00     0.210 C 
ENDBRANCH  18  19
ENDBRANCH   4  13
TORSDOF 2
ENDMDL
MODEL 7
REMARK VINA RESULT:      -7.5      3.509      7.641
REMARK  2 active torsions:
REMARK  status: ('A' for Active; 'I' for Inactive)
REMARK    1  A    between atoms: C7_11  and  O2_3 
REMARK    2  A    between atoms: C1_5  and  C3_7 
ROOT
HETATM    1 Cl1  UNK     1      17.569   7.966  32.367  1.00  0.00    -0.084 Cl
HETATM    2  O1  UNK     1      19.239   2.654  30.472  1.00  0.00    -0.309 OA
HETATM    3  O3  UNK     1      17.621   2.917  34.202  1.00  0.00    -0.287 OA
HETATM    4  C1  UNK     1      19.089   1.538  31.281  1.00  0.00     0.093 A 
HETATM    5  C2  UNK     1      18.276   4.034  32.224  1.00  0.00     0.050 A 
HETATM    6  C4  UNK     1      18.835   3.873  30.959  1.00  0.00     0.090 A 
HETATM    7  C5  UNK     1      18.559   1.564  32.513  1.00  0.00     0.094 A 
HETATM    8  C6  UNK     1      18.108   2.849  33.081  1.00  0.00     0.187 A 
HETATM    9  C8  UNK     1      17.882   5.298  32.668  1.00  0.00     0.042 A 
HETATM   10  C9  UNK     1      19.005   4.978  30.125  1.00  0.00     0.040 A 
HETATM   11  C12 UNK     1      18.052   6.402  31.832  1.00  0.00     0.035 A 
HETATM   12  C13 UNK     1      18.612   6.243  30.564  1.00  0.00     0.026 A 
ENDROOT
BRANCH   4  13
HETATM   13  C3  UNK     1      19.549   0.281  30.658  1.00  0.00     0.031 A 
HETATM   14  C10 UNK     1      19.801   0.254  29.282  1.00  0.00     0.017 A 
HETATM   15  C14 UNK     1      20.235  -0.922  28.671  1.00  0.00     0.001 A 
HETATM   16  C15 UNK     1      20.421  -2.076  29.432  1.00  0.00     0.003 A 
HETATM   17  C11 UNK     1      20.172  -2.055  30.804  1.00  0.00     0.038 A 
HETATM   18  C7  UNK     1      19.737  -0.879  31.416  1.00  0.00     0.081 A 
BRANCH  18  19
HETATM   19  O2  UNK     1      19.501  -0.885  32.759  1.00  0.00    -0.355 OA
HETATM   20  C16 UNK     1      19.911  -2.043  33.483  1.00  0.00     0.210 C 
ENDBRANCH  18  19
ENDBRANCH   4  13
TORSDOF 2
ENDMDL
MODEL 8
REMARK VINA RESULT:      -7.4      5.317      8.133
REMARK  2 active torsions:
REMARK  status: ('A' for Active; 'I' for Inactive)
REMARK    1  A    between atoms: C7_11  and  O2_3 
REMARK    2  A    between atoms: C1_5  and  C3_7 
ROOT
HETATM    1 Cl1  UNK     1      17.499   1.247  38.779  1.00  0.00    -0.084 Cl
HETATM    2  O1  UNK     1      18.971  -0.290  33.296  1.00  0.00    -0.309 OA
HETATM    3  O3  UNK     1      17.925   3.590  33.963  1.00  0.00    -0.287 OA
HETATM    4  C1  UNK     1      18.950   0.645  32.272  1.00  0.00     0.093 A 
HETATM    5  C2  UNK     1      18.249   1.426  34.856  1.00  0.00     0.050 A 
HETATM    6  C4  UNK     1      18.619   0.116  34.559  1.00  0.00     0.090 A 
HETATM    7  C5  UNK     1      18.619   1.935  32.434  1.00  0.00     0.094 A 
HETATM    8  C6  UNK     1      18.235   2.422  33.773  1.00  0.00     0.187 A 
HETATM    9  C8  UNK     1      17.901   1.784  36.160  1.00  0.00     0.042 A 
HETATM   10  C9  UNK     1      18.642  -0.848  35.567  1.00  0.00     0.040 A 
HETATM   11  C12 UNK     1      17.925   0.818  37.167  1.00  0.00     0.035 A 
HETATM   12  C13 UNK     1      18.296  -0.495  36.871  1.00  0.00     0.026 A 
ENDROOT
BRANCH   4  13
HETATM   13  C3  UNK     1      19.352   0.103  30.958  1.00  0.00     0.031 A 
HETATM   14  C10 UNK     1      20.250  -0.968  30.908  1.00  0.00     0.017 A 
HETATM   15  C14 UNK     1      20.645  -1.495  29.678  1.00  0.00     0.001 A 
HETATM   16  C15 UNK     1      20.143  -0.956  28.494  1.00  0.00     0.003 A 
HETATM   17  C11 UNK     1      19.247   0.112  28.539  1.00  0.00     0.038 A 
HETATM   18  C7  UNK     1      18.852   0.640  29.768  1.00  0.00     0.081 A 
BRANCH  18  19
HETATM   19  O2  UNK     1      17.975   1.684  29.783  1.00  0.00    -0.355 OA
HETATM   20  C16 UNK     1      17.863   2.454  28.588  1.00  0.00     0.210 C 
ENDBRANCH  18  19
ENDBRANCH   4  13
TORSDOF 2
ENDMDL
MODEL 9
REMARK VINA RESULT:      -7.4      3.676      6.436
REMARK  2 active torsions:
REMARK  status: ('A' for Active; 'I' for Inactive)
REMARK    1  A    between atoms: C7_11  and  O2_3 
REMARK    2  A    between atoms: C1_5  and  C3_7 
ROOT
HETATM    1 Cl1  UNK     1      12.524  11.937  34.695  1.00  0.00    -0.084 Cl
HETATM    2  O1  UNK     1      17.185   8.860  32.853  1.00  0.00    -0.309 OA
HETATM    3  O3  UNK     1      13.502   7.179  32.400  1.00  0.00    -0.287 OA
HETATM    4  C1  UNK     1      17.023   7.602  32.293  1.00  0.00     0.093 A 
HETATM    5  C2  UNK     1      14.779   9.023  33.145  1.00  0.00     0.050 A 
HETATM    6  C4  UNK     1      16.067   9.539  33.269  1.00  0.00     0.090 A 
HETATM    7  C5  UNK     1      15.836   7.002  32.114  1.00  0.00     0.094 A 
HETATM    8  C6  UNK     1      14.604   7.692  32.542  1.00  0.00     0.187 A 
HETATM    9  C8  UNK     1      13.677   9.759  33.585  1.00  0.00     0.042 A 
HETATM   10  C9  UNK     1      16.263  10.799  33.835  1.00  0.00     0.040 A 
HETATM   11  C12 UNK     1      13.875  11.019  34.150  1.00  0.00     0.035 A 
HETATM   12  C13 UNK     1      15.164  11.539  34.275  1.00  0.00     0.026 A 
ENDROOT
BRANCH   4  13
HETATM   13  C3  UNK     1      18.288   6.964  31.875  1.00  0.00     0.031 A 
HETATM   14  C10 UNK     1      18.417   6.499  30.563  1.00  0.00     0.017 A 
HETATM   15  C14 UNK     1      19.601   5.892  30.146  1.00  0.00     0.001 A 
HETATM   16  C15 UNK     1      20.663   5.748  31.038  1.00  0.00     0.003 A 
HETATM   17  C11 UNK     1      20.540   6.210  32.349  1.00  0.00     0.038 A 
HETATM   18  C7  UNK     1      19.355   6.816  32.766  1.00  0.00     0.081 A 
BRANCH  18  19
HETATM   19  O2  UNK     1      19.262   7.260  34.052  1.00  0.00    -0.355 OA
HETATM   20  C16 UNK     1      19.979   8.446  34.382  1.00  0.00     0.210 C 
ENDBRANCH  18  19
ENDBRANCH   4  13
TORSDOF 2
ENDMDL
MODEL 10
REMARK VINA RESULT:      -7.3      2.127      3.142
REMARK  2 active torsions:
REMARK  status: ('A' for Active; 'I' for Inactive)
REMARK    1  A    between atoms: C7_11  and  O2_3 
REMARK    2  A    between atoms: C1_5  and  C3_7 
ROOT
HETATM    1 Cl1  UNK     1      18.824  -1.411  32.344  1.00  0.00    -0.084 Cl
HETATM    2  O1  UNK     1      18.090   4.306  33.516  1.00  0.00    -0.309 OA
HETATM    3  O3  UNK     1      18.910   3.247  29.668  1.00  0.00    -0.287 OA
HETATM    4  C1  UNK     1      18.204   5.252  32.508  1.00  0.00     0.093 A 
HETATM    5  C2  UNK     1      18.555   2.553  31.899  1.00  0.00     0.050 A 
HETATM    6  C4  UNK     1      18.271   2.984  33.194  1.00  0.00     0.090 A 
HETATM    7  C5  UNK     1      18.466   4.961  31.225  1.00  0.00     0.094 A 
HETATM    8  C6  UNK     1      18.667   3.554  30.827  1.00  0.00     0.187 A 
HETATM    9  C8  UNK     1      18.728   1.194  31.629  1.00  0.00     0.042 A 
HETATM   10  C9  UNK     1      18.158   2.056  34.229  1.00  0.00     0.040 A 
HETATM   11  C12 UNK     1      18.614   0.267  32.666  1.00  0.00     0.035 A 
HETATM   12  C13 UNK     1      18.329   0.697  33.963  1.00  0.00     0.026 A 
ENDROOT
BRANCH   4  13
HETATM   13  C3  UNK     1      17.985   6.640  32.963  1.00  0.00     0.031 A 
HETATM   14  C10 UNK     1      19.041   7.334  33.563  1.00  0.00     0.017 A 
HETATM   15  C14 UNK     1      18.858   8.646  34.002  1.00  0.00     0.001 A 
HETATM   16  C15 UNK     1      17.622   9.270  33.842  1.00  0.00     0.003 A 
HETATM   17  C11 UNK     1      16.566   8.582  33.243  1.00  0.00     0.038 A 
HETATM   18  C7  UNK     1      16.747   7.270  32.805  1.00  0.00     0.081 A 
BRANCH  18  19
HETATM   19  O2  UNK     1      15.699   6.620  32.223  1.00  0.00    -0.355 OA
HETATM   20  C16 UNK     1      14.452   7.310  32.183  1.00  0.00     0.210 C 
ENDBRANCH  18  19
ENDBRANCH   4  13
TORSDOF 2
ENDMDL
