MODEL 1
REMARK VINA RESULT:      -9.9      0.000      0.000
REMARK  6 active torsions:
REMARK  status: ('A' for Active; 'I' for Inactive)
REMARK    1  A    between atoms: C5_13  and  N1_6 
REMARK    2  A    between atoms: C6_14  and  N2_7 
REMARK    3  A    between atoms: C18_26  and  N3_8 
REMARK       I    between atoms: C9_17  and  N3_8 
REMARK    4  A    between atoms: C5_13  and  C7_15 
REMARK    5  A    between atoms: C6_14  and  C9_17 
REMARK    6  A    between atoms: C13_21  and  C17_25 
ROOT
HETATM    1  N1  UNK     1      19.339  -3.309  36.448  1.00  0.00     0.096 N 
HETATM    2  N2  UNK     1      18.593  -0.532  36.150  1.00  0.00     0.100 N 
HETATM    3  C1  UNK     1      18.959  -2.493  37.608  1.00  0.00     0.303 C 
HETATM    4  C2  UNK     1      19.932  -2.467  35.401  1.00  0.00     0.303 C 
HETATM    5  C3  UNK     1      17.998  -1.372  37.196  1.00  0.00     0.303 C 
HETATM    6  C4  UNK     1      18.970  -1.348  34.989  1.00  0.00     0.303 C 
ENDROOT
BRANCH   1   7
HETATM    7  C5  UNK     1      20.259  -4.374  36.842  1.00  0.00     0.312 C 
BRANCH   7   8
HETATM    8  C7  UNK     1      19.637  -5.723  36.728  1.00  0.00    -0.011 A 
HETATM    9  C10 UNK     1      18.541  -5.919  35.981  1.00  0.00     0.092 A 
HETATM   10  C14 UNK     1      17.891  -7.232  35.839  1.00  0.00     0.288 A 
HETATM   11  O1  UNK     1      18.468  -8.291  36.523  1.00  0.00    -0.275 OA
HETATM   12  O3  UNK     1      16.891  -7.373  35.144  1.00  0.00    -0.260 OA
HETATM   13  C11 UNK     1      19.620  -8.115  37.316  1.00  0.00     0.090 A 
HETATM   14  C8  UNK     1      20.225  -6.863  37.442  1.00  0.00     0.007 A 
HETATM   15  C15 UNK     1      20.113  -9.250  37.960  1.00  0.00     0.039 A 
HETATM   16  C12 UNK     1      21.367  -6.772  38.250  1.00  0.00     0.022 A 
HETATM   17  C13 UNK     1      21.873  -7.903  38.902  1.00  0.00    -0.058 A 
HETATM   18  C16 UNK     1      21.248  -9.139  38.758  1.00  0.00     0.010 A 
BRANCH  17  19
HETATM   19  C17 UNK     1      23.091  -7.782  39.757  1.00  0.00     0.034 C 
HETATM   20  C20 UNK     1      24.380  -7.811  38.940  1.00  0.00     0.010 C 
ENDBRANCH  17  19
ENDBRANCH   7   8
ENDBRANCH   1   7
BRANCH   2  21
HETATM   21  C6  UNK     1      17.673   0.535  35.756  1.00  0.00     0.375 C 
BRANCH  21  22
HETATM   22  C9  UNK     1      18.468   1.711  35.213  1.00  0.00     0.250 C 
HETATM   23  O2  UNK     1      19.531   2.074  35.704  1.00  0.00    -0.271 OA
HETATM   24  N3  UNK     1      17.813   2.268  34.117  1.00  0.00    -0.326 N 
HETATM   25  H15 UNK     1      16.935   1.844  33.823  1.00  0.00     0.169 HD
BRANCH  24  26
HETATM   26  C18 UNK     1      18.226   3.374  33.334  1.00  0.00     0.037 A 
HETATM   27  C19 UNK     1      18.330   3.240  31.948  1.00  0.00     0.069 A 
HETATM   28  C22 UNK     1      18.736   4.345  31.227  1.00  0.00     0.107 A 
HETATM   29  O4  UNK     1      18.896   4.403  29.877  1.00  0.00    -0.323 OA
HETATM   30  C23 UNK     1      19.029   5.541  31.840  1.00  0.00     0.105 A 
HETATM   31  C25 UNK     1      19.323   5.770  29.709  1.00  0.00     0.352 A 
HETATM   32  O5  UNK     1      19.410   6.498  30.950  1.00  0.00    -0.323 OA
HETATM   33  C24 UNK     1      18.934   5.700  33.207  1.00  0.00     0.042 A 
HETATM   34  C21 UNK     1      18.525   4.596  33.960  1.00  0.00     0.032 A 
ENDBRANCH  24  26
ENDBRANCH  21  22
ENDBRANCH   2  21
TORSDOF 6
ENDMDL
MODEL 2
REMARK VINA RESULT:      -9.4      5.842      8.798
REMARK  6 active torsions:
REMARK  status: ('A' for Active; 'I' for Inactive)
REMARK    1  A    between atoms: C5_13  and  N1_6 
REMARK    2  A    between atoms: C6_14  and  N2_7 
REMARK    3  A    between atoms: C18_26  and  N3_8 
REMARK       I    between atoms: C9_17  and  N3_8 
REMARK    4  A    between atoms: C5_13  and  C7_15 
REMARK    5  A    between atoms: C6_14  and  C9_17 
REMARK    6  A    between atoms: C13_21  and  C17_25 
ROOT
HETATM    1  N1  UNK     1      18.890   3.628  31.306  1.00  0.00     0.096 N 
HETATM    2  N2  UNK     1      19.201   6.300  32.365  1.00  0.00     0.100 N 
HETATM    3  C1  UNK     1      19.315   4.742  30.450  1.00  0.00     0.303 C 
HETATM    4  C2  UNK     1      18.045   4.117  32.403  1.00  0.00     0.303 C 
HETATM    5  C3  UNK     1      20.047   5.812  31.269  1.00  0.00     0.303 C 
HETATM    6  C4  UNK     1      18.779   5.185  33.222  1.00  0.00     0.303 C 
ENDROOT
BRANCH   1   7
HETATM    7  C5  UNK     1      18.189   2.611  30.524  1.00  0.00     0.312 C 
BRANCH   7   8
HETATM    8  C7  UNK     1      18.925   1.317  30.500  1.00  0.00    -0.011 A 
HETATM    9  C10 UNK     1      19.596   0.923  29.408  1.00  0.00     0.092 A 
HETATM   10  C14 UNK     1      20.337  -0.348  29.335  1.00  0.00     0.288 A 
HETATM   11  O1  UNK     1      20.316  -1.146  30.469  1.00  0.00    -0.275 OA
HETATM   12  O3  UNK     1      20.942  -0.673  28.320  1.00  0.00    -0.260 OA
HETATM   13  C11 UNK     1      19.619  -0.759  31.631  1.00  0.00     0.090 A 
HETATM   14  C8  UNK     1      18.921   0.448  31.684  1.00  0.00     0.007 A 
HETATM   15  C15 UNK     1      19.666  -1.642  32.710  1.00  0.00     0.039 A 
HETATM   16  C12 UNK     1      18.252   0.759  32.876  1.00  0.00     0.022 A 
HETATM   17  C13 UNK     1      18.291  -0.116  33.967  1.00  0.00    -0.058 A 
HETATM   18  C16 UNK     1      18.996  -1.314  33.885  1.00  0.00     0.010 A 
BRANCH  17  19
HETATM   19  C17 UNK     1      17.571   0.236  35.227  1.00  0.00     0.034 C 
HETATM   20  C20 UNK     1      16.078  -0.070  35.146  1.00  0.00     0.010 C 
ENDBRANCH  17  19
ENDBRANCH   7   8
ENDBRANCH   1   7
BRANCH   2  21
HETATM   21  C6  UNK     1      19.901   7.318  33.147  1.00  0.00     0.375 C 
BRANCH  21  22
HETATM   22  C9  UNK     1      18.920   7.996  34.088  1.00  0.00     0.250 C 
HETATM   23  O2  UNK     1      19.044   7.964  35.308  1.00  0.00    -0.271 OA
HETATM   24  N3  UNK     1      17.913   8.627  33.360  1.00  0.00    -0.326 N 
HETATM   25  H15 UNK     1      17.955   8.569  32.345  1.00  0.00     0.169 HD
BRANCH  24  26
HETATM   26  C18 UNK     1      16.815   9.364  33.865  1.00  0.00     0.037 A 
HETATM   27  C19 UNK     1      16.980  10.709  34.204  1.00  0.00     0.069 A 
HETATM   28  C22 UNK     1      15.881  11.386  34.692  1.00  0.00     0.107 A 
HETATM   29  O4  UNK     1      15.853  12.693  35.073  1.00  0.00    -0.323 OA
HETATM   30  C23 UNK     1      14.660  10.771  34.842  1.00  0.00     0.105 A 
HETATM   31  C25 UNK     1      14.476  12.830  35.481  1.00  0.00     0.352 A 
HETATM   32  O5  UNK     1      13.714  11.615  35.338  1.00  0.00    -0.323 OA
HETATM   33  C24 UNK     1      14.470   9.444  34.515  1.00  0.00     0.042 A 
HETATM   34  C21 UNK     1      15.567   8.736  34.019  1.00  0.00     0.032 A 
ENDBRANCH  24  26
ENDBRANCH  21  22
ENDBRANCH   2  21
TORSDOF 6
ENDMDL
MODEL 3
REMARK VINA RESULT:      -9.4      2.065     11.725
REMARK  6 active torsions:
REMARK  status: ('A' for Active; 'I' for Inactive)
REMARK    1  A    between atoms: C5_13  and  N1_6 
REMARK    2  A    between atoms: C6_14  and  N2_7 
REMARK    3  A    between atoms: C18_26  and  N3_8 
REMARK       I    between atoms: C9_17  and  N3_8 
REMARK    4  A    between atoms: C5_13  and  C7_15 
REMARK    5  A    between atoms: C6_14  and  C9_17 
REMARK    6  A    between atoms: C13_21  and  C17_25 
ROOT
HETATM    1  N1  UNK     1      17.920   1.567  35.169  1.00  0.00     0.096 N 
HETATM    2  N2  UNK     1      18.210  -0.945  36.570  1.00  0.00     0.100 N 
HETATM    3  C1  UNK     1      19.032   0.656  34.876  1.00  0.00     0.303 C 
HETATM    4  C2  UNK     1      17.487   1.417  36.564  1.00  0.00     0.303 C 
HETATM    5  C3  UNK     1      18.642  -0.796  35.175  1.00  0.00     0.303 C 
HETATM    6  C4  UNK     1      17.096  -0.034  36.861  1.00  0.00     0.303 C 
ENDROOT
BRANCH   1   7
HETATM    7  C5  UNK     1      18.295   2.952  34.888  1.00  0.00     0.312 C 
BRANCH   7   8
HETATM    8  C7  UNK     1      18.303   3.245  33.427  1.00  0.00    -0.011 A 
HETATM    9  C10 UNK     1      18.273   2.256  32.523  1.00  0.00     0.092 A 
HETATM   10  C14 UNK     1      18.281   2.496  31.070  1.00  0.00     0.288 A 
HETATM   11  O1  UNK     1      18.321   3.819  30.657  1.00  0.00    -0.275 OA
HETATM   12  O3  UNK     1      18.250   1.566  30.272  1.00  0.00    -0.260 OA
HETATM   13  C11 UNK     1      18.354   4.880  31.585  1.00  0.00     0.090 A 
HETATM   14  C8  UNK     1      18.347   4.636  32.959  1.00  0.00     0.007 A 
HETATM   15  C15 UNK     1      18.395   6.171  31.056  1.00  0.00     0.039 A 
HETATM   16  C12 UNK     1      18.382   5.745  33.815  1.00  0.00     0.022 A 
HETATM   17  C13 UNK     1      18.422   7.046  33.300  1.00  0.00    -0.058 A 
HETATM   18  C16 UNK     1      18.429   7.259  31.923  1.00  0.00     0.010 A 
BRANCH  17  19
HETATM   19  C17 UNK     1      18.460   8.212  34.231  1.00  0.00     0.034 C 
HETATM   20  C20 UNK     1      19.884   8.689  34.506  1.00  0.00     0.010 C 
ENDBRANCH  17  19
ENDBRANCH   7   8
ENDBRANCH   1   7
BRANCH   2  21
HETATM   21  C6  UNK     1      17.836  -2.329  36.853  1.00  0.00     0.375 C 
BRANCH  21  22
HETATM   22  C9  UNK     1      19.082  -3.198  36.857  1.00  0.00     0.250 C 
HETATM   23  O2  UNK     1      20.194  -2.760  37.133  1.00  0.00    -0.271 OA
HETATM   24  N3  UNK     1      18.756  -4.509  36.514  1.00  0.00    -0.326 N 
HETATM   25  H15 UNK     1      17.779  -4.719  36.320  1.00  0.00     0.169 HD
BRANCH  24  26
HETATM   26  C18 UNK     1      19.631  -5.617  36.406  1.00  0.00     0.037 A 
HETATM   27  C19 UNK     1      20.501  -5.918  37.457  1.00  0.00     0.069 A 
HETATM   28  C22 UNK     1      21.334  -7.007  37.306  1.00  0.00     0.107 A 
HETATM   29  O4  UNK     1      22.244  -7.449  38.217  1.00  0.00    -0.323 OA
HETATM   30  C23 UNK     1      21.318  -7.779  36.167  1.00  0.00     0.105 A 
HETATM   31  C25 UNK     1      22.799  -8.585  37.523  1.00  0.00     0.352 A 
HETATM   32  O5  UNK     1      22.217  -8.799  36.222  1.00  0.00    -0.323 OA
HETATM   33  C24 UNK     1      20.470  -7.503  35.115  1.00  0.00     0.042 A 
HETATM   34  C21 UNK     1      19.615  -6.405  35.242  1.00  0.00     0.032 A 
ENDBRANCH  24  26
ENDBRANCH  21  22
ENDBRANCH   2  21
TORSDOF 6
ENDMDL
MODEL 4
REMARK VINA RESULT:      -9.1      3.027      4.631
REMARK  6 active torsions:
REMARK  status: ('A' for Active; 'I' for Inactive)
REMARK    1  A    between atoms: C5_13  and  N1_6 
REMARK    2  A    between atoms: C6_14  and  N2_7 
REMARK    3  A    between atoms: C18_26  and  N3_8 
REMARK       I    between atoms: C9_17  and  N3_8 
REMARK    4  A    between atoms: C5_13  and  C7_15 
REMARK    5  A    between atoms: C6_14  and  C9_17 
REMARK    6  A    between atoms: C13_21  and  C17_25 
ROOT
HETATM    1  N1  UNK     1      21.162  -6.552  37.932  1.00  0.00     0.096 N 
HETATM    2  N2  UNK     1      20.484  -4.236  36.339  1.00  0.00     0.100 N 
HETATM    3  C1  UNK     1      21.727  -5.231  38.230  1.00  0.00     0.303 C 
HETATM    4  C2  UNK     1      20.865  -6.672  36.499  1.00  0.00     0.303 C 
HETATM    5  C3  UNK     1      20.779  -4.116  37.772  1.00  0.00     0.303 C 
HETATM    6  C4  UNK     1      19.917  -5.558  36.043  1.00  0.00     0.303 C 
ENDROOT
BRANCH   1   7
HETATM    7  C5  UNK     1      22.069  -7.614  38.365  1.00  0.00     0.312 C 
BRANCH   7   8
HETATM    8  C7  UNK     1      21.801  -8.900  37.663  1.00  0.00    -0.011 A 
HETATM    9  C10 UNK     1      20.556  -9.384  37.557  1.00  0.00     0.092 A 
HETATM   10  C14 UNK     1      20.241 -10.650  36.874  1.00  0.00     0.288 A 
HETATM   11  O1  UNK     1      21.309 -11.346  36.328  1.00  0.00    -0.275 OA
HETATM   12  O3  UNK     1      19.088 -11.060  36.795  1.00  0.00    -0.260 OA
HETATM   13  C11 UNK     1      22.630 -10.862  36.424  1.00  0.00     0.090 A 
HETATM   14  C8  UNK     1      22.912  -9.660  37.076  1.00  0.00     0.007 A 
HETATM   15  C15 UNK     1      23.625 -11.646  35.840  1.00  0.00     0.039 A 
HETATM   16  C12 UNK     1      24.251  -9.249  37.129  1.00  0.00     0.022 A 
HETATM   17  C13 UNK     1      25.260 -10.024  36.546  1.00  0.00    -0.058 A 
HETATM   18  C16 UNK     1      24.949 -11.220  35.903  1.00  0.00     0.010 A 
BRANCH  17  19
HETATM   19  C17 UNK     1      26.680  -9.567  36.615  1.00  0.00     0.034 C 
HETATM   20  C20 UNK     1      27.273  -9.726  38.013  1.00  0.00     0.010 C 
ENDBRANCH  17  19
ENDBRANCH   7   8
ENDBRANCH   1   7
BRANCH   2  21
HETATM   21  C6  UNK     1      19.578  -3.174  35.905  1.00  0.00     0.375 C 
BRANCH  21  22
HETATM   22  C9  UNK     1      20.213  -2.408  34.757  1.00  0.00     0.250 C 
HETATM   23  O2  UNK     1      21.406  -2.126  34.730  1.00  0.00    -0.271 OA
HETATM   24  N3  UNK     1      19.254  -2.103  33.794  1.00  0.00    -0.326 N 
HETATM   25  H15 UNK     1      18.300  -2.416  33.959  1.00  0.00     0.169 HD
BRANCH  24  26
HETATM   26  C18 UNK     1      19.443  -1.401  32.579  1.00  0.00     0.037 A 
HETATM   27  C19 UNK     1      18.801  -0.177  32.379  1.00  0.00     0.069 A 
HETATM   28  C22 UNK     1      19.016   0.471  31.179  1.00  0.00     0.107 A 
HETATM   29  O4  UNK     1      18.477   1.664  30.808  1.00  0.00    -0.323 OA
HETATM   30  C23 UNK     1      19.832  -0.059  30.207  1.00  0.00     0.105 A 
HETATM   31  C25 UNK     1      19.046   1.826  29.492  1.00  0.00     0.352 A 
HETATM   32  O5  UNK     1      19.906   0.736  29.104  1.00  0.00    -0.323 OA
HETATM   33  C24 UNK     1      20.478  -1.266  30.379  1.00  0.00     0.042 A 
HETATM   34  C21 UNK     1      20.277  -1.942  31.585  1.00  0.00     0.032 A 
ENDBRANCH  24  26
ENDBRANCH  21  22
ENDBRANCH   2  21
TORSDOF 6
ENDMDL
MODEL 5
REMARK VINA RESULT:      -9.1      4.211     12.819
REMARK  6 active torsions:
REMARK  status: ('A' for Active; 'I' for Inactive)
REMARK    1  A    between atoms: C5_13  and  N1_6 
REMARK    2  A    between atoms: C6_14  and  N2_7 
REMARK    3  A    between atoms: C18_26  and  N3_8 
REMARK       I    between atoms: C9_17  and  N3_8 
REMARK    4  A    between atoms: C5_13  and  C7_15 
REMARK    5  A    between atoms: C6_14  and  C9_17 
REMARK    6  A    between atoms: C13_21  and  C17_25 
ROOT
HETATM    1  N1  UNK     1      17.973   5.430  31.411  1.00  0.00     0.096 N 
HETATM    2  N2  UNK     1      18.923   2.978  30.211  1.00  0.00     0.100 N 
HETATM    3  C1  UNK     1      18.934   5.448  30.302  1.00  0.00     0.303 C 
HETATM    4  C2  UNK     1      18.124   4.202  32.202  1.00  0.00     0.303 C 
HETATM    5  C3  UNK     1      18.771   4.205  29.419  1.00  0.00     0.303 C 
HETATM    6  C4  UNK     1      17.960   2.961  31.318  1.00  0.00     0.303 C 
ENDROOT
BRANCH   1   7
HETATM    7  C5  UNK     1      18.133   6.613  32.255  1.00  0.00     0.312 C 
BRANCH   7   8
HETATM    8  C7  UNK     1      16.844   7.329  32.467  1.00  0.00    -0.011 A 
HETATM    9  C10 UNK     1      15.677   6.775  32.106  1.00  0.00     0.092 A 
HETATM   10  C14 UNK     1      14.379   7.444  32.294  1.00  0.00     0.288 A 
HETATM   11  O1  UNK     1      14.404   8.703  32.873  1.00  0.00    -0.275 OA
HETATM   12  O3  UNK     1      13.332   6.904  31.955  1.00  0.00    -0.260 OA
HETATM   13  C11 UNK     1      15.615   9.311  33.262  1.00  0.00     0.090 A 
HETATM   14  C8  UNK     1      16.838   8.665  33.077  1.00  0.00     0.007 A 
HETATM   15  C15 UNK     1      15.521  10.581  33.833  1.00  0.00     0.039 A 
HETATM   16  C12 UNK     1      17.997   9.338  33.489  1.00  0.00     0.022 A 
HETATM   17  C13 UNK     1      17.918  10.611  34.064  1.00  0.00    -0.058 A 
HETATM   18  C16 UNK     1      16.683  11.232  34.236  1.00  0.00     0.010 A 
BRANCH  17  19
HETATM   19  C17 UNK     1      19.165  11.309  34.495  1.00  0.00     0.034 C 
HETATM   20  C20 UNK     1      20.361  10.363  34.576  1.00  0.00     0.010 C 
ENDBRANCH  17  19
ENDBRANCH   7   8
ENDBRANCH   1   7
BRANCH   2  21
HETATM   21  C6  UNK     1      18.765   1.794  29.367  1.00  0.00     0.375 C 
BRANCH  21  22
HETATM   22  C9  UNK     1      19.513   0.628  29.990  1.00  0.00     0.250 C 
HETATM   23  O2  UNK     1      20.447   0.065  29.429  1.00  0.00    -0.271 OA
HETATM   24  N3  UNK     1      18.982   0.330  31.244  1.00  0.00    -0.326 N 
HETATM   25  H15 UNK     1      18.207   0.899  31.577  1.00  0.00     0.169 HD
BRANCH  24  26
HETATM   26  C18 UNK     1      19.398  -0.684  32.139  1.00  0.00     0.037 A 
HETATM   27  C19 UNK     1      18.900  -0.703  33.444  1.00  0.00     0.069 A 
HETATM   28  C22 UNK     1      19.335  -1.711  34.281  1.00  0.00     0.107 A 
HETATM   29  O4  UNK     1      18.961  -1.889  35.578  1.00  0.00    -0.323 OA
HETATM   30  C23 UNK     1      20.225  -2.670  33.857  1.00  0.00     0.105 A 
HETATM   31  C25 UNK     1      19.718  -3.067  35.923  1.00  0.00     0.352 A 
HETATM   32  O5  UNK     1      20.523  -3.567  34.836  1.00  0.00    -0.323 OA
HETATM   33  C24 UNK     1      20.733  -2.674  32.574  1.00  0.00     0.042 A 
HETATM   34  C21 UNK     1      20.309  -1.664  31.707  1.00  0.00     0.032 A 
ENDBRANCH  24  26
ENDBRANCH  21  22
ENDBRANCH   2  21
TORSDOF 6
ENDMDL
MODEL 6
REMARK VINA RESULT:      -9.1      1.953     11.828
REMARK  6 active torsions:
REMARK  status: ('A' for Active; 'I' for Inactive)
REMARK    1  A    between atoms: C5_13  and  N1_6 
REMARK    2  A    between atoms: C6_14  and  N2_7 
REMARK    3  A    between atoms: C18_26  and  N3_8 
REMARK       I    between atoms: C9_17  and  N3_8 
REMARK    4  A    between atoms: C5_13  and  C7_15 
REMARK    5  A    between atoms: C6_14  and  C9_17 
REMARK    6  A    between atoms: C13_21  and  C17_25 
ROOT
HETATM    1  N1  UNK     1      18.513   0.919  34.275  1.00  0.00     0.096 N 
HETATM    2  N2  UNK     1      19.334  -1.607  35.416  1.00  0.00     0.100 N 
HETATM    3  C1  UNK     1      18.431   0.674  35.719  1.00  0.00     0.303 C 
HETATM    4  C2  UNK     1      18.365  -0.339  33.531  1.00  0.00     0.303 C 
HETATM    5  C3  UNK     1      19.484  -0.350  36.160  1.00  0.00     0.303 C 
HETATM    6  C4  UNK     1      19.418  -1.361  33.971  1.00  0.00     0.303 C 
ENDROOT
BRANCH   1   7
HETATM    7  C5  UNK     1      17.506   1.892  33.855  1.00  0.00     0.312 C 
BRANCH   7   8
HETATM    8  C7  UNK     1      18.119   3.151  33.349  1.00  0.00    -0.011 A 
HETATM    9  C10 UNK     1      18.472   4.135  34.188  1.00  0.00     0.092 A 
HETATM   10  C14 UNK     1      19.080   5.398  33.735  1.00  0.00     0.288 A 
HETATM   11  O1  UNK     1      19.282   5.538  32.370  1.00  0.00    -0.275 OA
HETATM   12  O3  UNK     1      19.393   6.274  34.532  1.00  0.00    -0.260 OA
HETATM   13  C11 UNK     1      18.921   4.520  31.463  1.00  0.00     0.090 A 
HETATM   14  C8  UNK     1      18.344   3.329  31.908  1.00  0.00     0.007 A 
HETATM   15  C15 UNK     1      19.168   4.771  30.113  1.00  0.00     0.039 A 
HETATM   16  C12 UNK     1      18.013   2.369  30.943  1.00  0.00     0.022 A 
HETATM   17  C13 UNK     1      18.256   2.605  29.585  1.00  0.00    -0.058 A 
HETATM   18  C16 UNK     1      18.832   3.804  29.171  1.00  0.00     0.010 A 
BRANCH  17  19
HETATM   19  C17 UNK     1      17.894   1.567  28.575  1.00  0.00     0.034 C 
HETATM   20  C20 UNK     1      18.922   0.440  28.508  1.00  0.00     0.010 C 
ENDBRANCH  17  19
ENDBRANCH   7   8
ENDBRANCH   1   7
BRANCH   2  21
HETATM   21  C6  UNK     1      20.340  -2.581  35.836  1.00  0.00     0.375 C 
BRANCH  21  22
HETATM   22  C9  UNK     1      19.656  -3.741  36.539  1.00  0.00     0.250 C 
HETATM   23  O2  UNK     1      18.468  -3.724  36.841  1.00  0.00    -0.271 OA
HETATM   24  N3  UNK     1      20.567  -4.772  36.764  1.00  0.00    -0.326 N 
HETATM   25  H15 UNK     1      21.524  -4.637  36.443  1.00  0.00     0.169 HD
BRANCH  24  26
HETATM   26  C18 UNK     1      20.324  -6.018  37.390  1.00  0.00     0.037 A 
HETATM   27  C19 UNK     1      20.085  -7.151  36.609  1.00  0.00     0.069 A 
HETATM   28  C22 UNK     1      19.853  -8.344  37.264  1.00  0.00     0.107 A 
HETATM   29  O4  UNK     1      19.602  -9.544  36.673  1.00  0.00    -0.323 OA
HETATM   30  C23 UNK     1      19.857  -8.428  38.637  1.00  0.00     0.105 A 
HETATM   31  C25 UNK     1      19.447 -10.392  37.829  1.00  0.00     0.352 A 
HETATM   32  O5  UNK     1      19.607  -9.691  39.078  1.00  0.00    -0.323 OA
HETATM   33  C24 UNK     1      20.090  -7.324  39.431  1.00  0.00     0.042 A 
HETATM   34  C21 UNK     1      20.327  -6.104  38.793  1.00  0.00     0.032 A 
ENDBRANCH  24  26
ENDBRANCH  21  22
ENDBRANCH   2  21
TORSDOF 6
ENDMDL
MODEL 7
REMARK VINA RESULT:      -9.1      3.533      6.782
REMARK  6 active torsions:
REMARK  status: ('A' for Active; 'I' for Inactive)
REMARK    1  A    between atoms: C5_13  and  N1_6 
REMARK    2  A    between atoms: C6_14  and  N2_7 
REMARK    3  A    between atoms: C18_26  and  N3_8 
REMARK       I    between atoms: C9_17  and  N3_8 
REMARK    4  A    between atoms: C5_13  and  C7_15 
REMARK    5  A    between atoms: C6_14  and  C9_17 
REMARK    6  A    between atoms: C13_21  and  C17_25 
ROOT
HETATM    1  N1  UNK     1      22.676  -7.045  38.227  1.00  0.00     0.096 N 
HETATM    2  N2  UNK     1      19.984  -6.497  37.329  1.00  0.00     0.100 N 
HETATM    3  C1  UNK     1      21.960  -7.980  37.351  1.00  0.00     0.303 C 
HETATM    4  C2  UNK     1      21.729  -6.300  39.067  1.00  0.00     0.303 C 
HETATM    5  C3  UNK     1      20.931  -7.240  36.489  1.00  0.00     0.303 C 
HETATM    6  C4  UNK     1      20.701  -5.560  38.204  1.00  0.00     0.303 C 
ENDROOT
BRANCH   1   7
HETATM    7  C5  UNK     1      23.654  -7.752  39.052  1.00  0.00     0.312 C 
BRANCH   7   8
HETATM    8  C7  UNK     1      25.053  -7.486  38.615  1.00  0.00    -0.011 A 
HETATM    9  C10 UNK     1      25.696  -6.372  38.993  1.00  0.00     0.092 A 
HETATM   10  C14 UNK     1      27.078  -6.064  38.586  1.00  0.00     0.288 A 
HETATM   11  O1  UNK     1      27.710  -6.994  37.775  1.00  0.00    -0.275 OA
HETATM   12  O3  UNK     1      27.634  -5.036  38.955  1.00  0.00    -0.260 OA
HETATM   13  C11 UNK     1      27.059  -8.174  37.361  1.00  0.00     0.090 A 
HETATM   14  C8  UNK     1      25.749  -8.451  37.754  1.00  0.00     0.007 A 
HETATM   15  C15 UNK     1      27.792  -9.037  36.544  1.00  0.00     0.039 A 
HETATM   16  C12 UNK     1      25.173  -9.645  37.299  1.00  0.00     0.022 A 
HETATM   17  C13 UNK     1      25.896 -10.521  36.480  1.00  0.00    -0.058 A 
HETATM   18  C16 UNK     1      27.202 -10.218  36.104  1.00  0.00     0.010 A 
BRANCH  17  19
HETATM   19  C17 UNK     1      25.262 -11.787  36.007  1.00  0.00     0.034 C 
HETATM   20  C20 UNK     1      23.751 -11.648  35.831  1.00  0.00     0.010 C 
ENDBRANCH  17  19
ENDBRANCH   7   8
ENDBRANCH   1   7
BRANCH   2  21
HETATM   21  C6  UNK     1      19.004  -5.790  36.506  1.00  0.00     0.375 C 
BRANCH  21  22
HETATM   22  C9  UNK     1      19.404  -4.329  36.387  1.00  0.00     0.250 C 
HETATM   23  O2  UNK     1      20.536  -3.976  36.076  1.00  0.00    -0.271 OA
HETATM   24  N3  UNK     1      18.315  -3.508  36.674  1.00  0.00    -0.326 N 
HETATM   25  H15 UNK     1      17.432  -3.956  36.908  1.00  0.00     0.169 HD
BRANCH  24  26
HETATM   26  C18 UNK     1      18.278  -2.092  36.674  1.00  0.00     0.037 A 
HETATM   27  C19 UNK     1      18.653  -1.390  35.526  1.00  0.00     0.069 A 
HETATM   28  C22 UNK     1      18.600  -0.011  35.574  1.00  0.00     0.107 A 
HETATM   29  O4  UNK     1      18.928   0.836  34.560  1.00  0.00    -0.323 OA
HETATM   30  C23 UNK     1      18.191   0.659  36.704  1.00  0.00     0.105 A 
HETATM   31  C25 UNK     1      18.680   2.115  35.179  1.00  0.00     0.352 A 
HETATM   32  O5  UNK     1      18.213   2.010  36.539  1.00  0.00    -0.323 OA
HETATM   33  C24 UNK     1      17.816  -0.011  37.850  1.00  0.00     0.042 A 
HETATM   34  C21 UNK     1      17.861  -1.407  37.828  1.00  0.00     0.032 A 
ENDBRANCH  24  26
ENDBRANCH  21  22
ENDBRANCH   2  21
TORSDOF 6
ENDMDL
MODEL 8
REMARK VINA RESULT:      -9.1      2.008     11.917
REMARK  6 active torsions:
REMARK  status: ('A' for Active; 'I' for Inactive)
REMARK    1  A    between atoms: C5_13  and  N1_6 
REMARK    2  A    between atoms: C6_14  and  N2_7 
REMARK    3  A    between atoms: C18_26  and  N3_8 
REMARK       I    between atoms: C9_17  and  N3_8 
REMARK    4  A    between atoms: C5_13  and  C7_15 
REMARK    5  A    between atoms: C6_14  and  C9_17 
REMARK    6  A    between atoms: C13_21  and  C17_25 
ROOT
HETATM    1  N1  UNK     1      18.622   0.850  34.044  1.00  0.00     0.096 N 
HETATM    2  N2  UNK     1      19.386  -1.487  35.564  1.00  0.00     0.100 N 
HETATM    3  C1  UNK     1      18.643   0.869  35.511  1.00  0.00     0.303 C 
HETATM    4  C2  UNK     1      18.343  -0.505  33.551  1.00  0.00     0.303 C 
HETATM    5  C3  UNK     1      19.667  -0.133  36.055  1.00  0.00     0.303 C 
HETATM    6  C4  UNK     1      19.369  -1.505  34.095  1.00  0.00     0.303 C 
ENDROOT
BRANCH   1   7
HETATM    7  C5  UNK     1      17.641   1.802  33.526  1.00  0.00     0.312 C 
BRANCH   7   8
HETATM    8  C7  UNK     1      18.113   2.472  32.282  1.00  0.00    -0.011 A 
HETATM    9  C10 UNK     1      18.376   1.767  31.173  1.00  0.00     0.092 A 
HETATM   10  C14 UNK     1      18.844   2.384  29.920  1.00  0.00     0.288 A 
HETATM   11  O1  UNK     1      19.010   3.761  29.928  1.00  0.00    -0.275 OA
HETATM   12  O3  UNK     1      19.072   1.706  28.925  1.00  0.00    -0.260 OA
HETATM   13  C11 UNK     1      18.742   4.529  31.079  1.00  0.00     0.090 A 
HETATM   14  C8  UNK     1      18.299   3.929  32.259  1.00  0.00     0.007 A 
HETATM   15  C15 UNK     1      18.945   5.905  30.972  1.00  0.00     0.039 A 
HETATM   16  C12 UNK     1      18.056   4.762  33.360  1.00  0.00     0.022 A 
HETATM   17  C13 UNK     1      18.254   6.145  33.267  1.00  0.00    -0.058 A 
HETATM   18  C16 UNK     1      18.698   6.715  32.076  1.00  0.00     0.010 A 
BRANCH  17  19
HETATM   19  C17 UNK     1      17.990   7.013  34.452  1.00  0.00     0.034 C 
HETATM   20  C20 UNK     1      19.206   7.850  34.841  1.00  0.00     0.010 C 
ENDBRANCH  17  19
ENDBRANCH   7   8
ENDBRANCH   1   7
BRANCH   2  21
HETATM   21  C6  UNK     1      20.366  -2.441  36.082  1.00  0.00     0.375 C 
BRANCH  21  22
HETATM   22  C9  UNK     1      19.645  -3.674  36.599  1.00  0.00     0.250 C 
HETATM   23  O2  UNK     1      18.422  -3.761  36.631  1.00  0.00    -0.271 OA
HETATM   24  N3  UNK     1      20.568  -4.637  37.002  1.00  0.00    -0.326 N 
HETATM   25  H15 UNK     1      21.556  -4.417  36.903  1.00  0.00     0.169 HD
BRANCH  24  26
HETATM   26  C18 UNK     1      20.299  -5.919  37.539  1.00  0.00     0.037 A 
HETATM   27  C19 UNK     1      19.935  -6.965  36.687  1.00  0.00     0.069 A 
HETATM   28  C22 UNK     1      19.683  -8.196  37.256  1.00  0.00     0.107 A 
HETATM   29  O4  UNK     1      19.316  -9.325  36.589  1.00  0.00    -0.323 OA
HETATM   30  C23 UNK     1      19.785  -8.401  38.613  1.00  0.00     0.105 A 
HETATM   31  C25 UNK     1      19.199 -10.263  37.678  1.00  0.00     0.352 A 
HETATM   32  O5  UNK     1      19.494  -9.684  38.965  1.00  0.00    -0.323 OA
HETATM   33  C24 UNK     1      20.143  -7.386  39.476  1.00  0.00     0.042 A 
HETATM   34  C21 UNK     1      20.403  -6.129  38.925  1.00  0.00     0.032 A 
ENDBRANCH  24  26
ENDBRANCH  21  22
ENDBRANCH   2  21
TORSDOF 6
ENDMDL
MODEL 9
REMARK VINA RESULT:      -9.0      8.314     12.816
REMARK  6 active torsions:
REMARK  status: ('A' for Active; 'I' for Inactive)
REMARK    1  A    between atoms: C5_13  and  N1_6 
REMARK    2  A    between atoms: C6_14  and  N2_7 
REMARK    3  A    between atoms: C18_26  and  N3_8 
REMARK       I    between atoms: C9_17  and  N3_8 
REMARK    4  A    between atoms: C5_13  and  C7_15 
REMARK    5  A    between atoms: C6_14  and  C9_17 
REMARK    6  A    between atoms: C13_21  and  C17_25 
ROOT
HETATM    1  N1  UNK     1      29.703  -8.911  37.757  1.00  0.00     0.096 N 
HETATM    2  N2  UNK     1      26.905  -9.293  37.139  1.00  0.00     0.100 N 
HETATM    3  C1  UNK     1      28.693  -8.994  38.818  1.00  0.00     0.303 C 
HETATM    4  C2  UNK     1      29.112  -8.368  36.526  1.00  0.00     0.303 C 
HETATM    5  C3  UNK     1      27.495  -9.838  38.368  1.00  0.00     0.303 C 
HETATM    6  C4  UNK     1      27.915  -9.214  36.077  1.00  0.00     0.303 C 
ENDROOT
BRANCH   1   7
HETATM    7  C5  UNK     1      30.842  -8.102  38.185  1.00  0.00     0.312 C 
BRANCH   7   8
HETATM    8  C7  UNK     1      30.570  -6.642  38.065  1.00  0.00    -0.011 A 
HETATM    9  C10 UNK     1      29.519  -6.082  38.680  1.00  0.00     0.092 A 
HETATM   10  C14 UNK     1      29.209  -4.645  38.591  1.00  0.00     0.288 A 
HETATM   11  O1  UNK     1      30.066  -3.869  37.826  1.00  0.00    -0.275 OA
HETATM   12  O3  UNK     1      28.240  -4.167  39.171  1.00  0.00    -0.260 OA
HETATM   13  C11 UNK     1      31.179  -4.430  37.168  1.00  0.00     0.090 A 
HETATM   14  C8  UNK     1      31.459  -5.794  37.261  1.00  0.00     0.007 A 
HETATM   15  C15 UNK     1      31.971  -3.554  36.425  1.00  0.00     0.039 A 
HETATM   16  C12 UNK     1      32.584  -6.274  36.576  1.00  0.00     0.022 A 
HETATM   17  C13 UNK     1      33.389  -5.408  35.827  1.00  0.00    -0.058 A 
HETATM   18  C16 UNK     1      33.084  -4.051  35.752  1.00  0.00     0.010 A 
BRANCH  17  19
HETATM   19  C17 UNK     1      34.581  -5.942  35.105  1.00  0.00     0.034 C 
HETATM   20  C20 UNK     1      34.332  -7.331  34.522  1.00  0.00     0.010 C 
ENDBRANCH  17  19
ENDBRANCH   7   8
ENDBRANCH   1   7
BRANCH   2  21
HETATM   21  C6  UNK     1      25.764 -10.101  36.710  1.00  0.00     0.375 C 
BRANCH  21  22
HETATM   22  C9  UNK     1      24.478  -9.335  36.968  1.00  0.00     0.250 C 
HETATM   23  O2  UNK     1      24.452  -8.270  37.575  1.00  0.00    -0.271 OA
HETATM   24  N3  UNK     1      23.393 -10.016  36.418  1.00  0.00    -0.326 N 
HETATM   25  H15 UNK     1      23.580 -10.891  35.932  1.00  0.00     0.169 HD
BRANCH  24  26
HETATM   26  C18 UNK     1      22.031  -9.634  36.443  1.00  0.00     0.037 A 
HETATM   27  C19 UNK     1      21.591  -8.583  35.635  1.00  0.00     0.069 A 
HETATM   28  C22 UNK     1      20.254  -8.246  35.693  1.00  0.00     0.107 A 
HETATM   29  O4  UNK     1      19.648  -7.255  34.983  1.00  0.00    -0.323 OA
HETATM   30  C23 UNK     1      19.374  -8.915  36.512  1.00  0.00     0.105 A 
HETATM   31  C25 UNK     1      18.288  -7.375  35.449  1.00  0.00     0.352 A 
HETATM   32  O5  UNK     1      18.107  -8.426  36.419  1.00  0.00    -0.323 OA
HETATM   33  C24 UNK     1      19.782  -9.956  37.320  1.00  0.00     0.042 A 
HETATM   34  C21 UNK     1      21.131 -10.317  37.280  1.00  0.00     0.032 A 
ENDBRANCH  24  26
ENDBRANCH  21  22
ENDBRANCH   2  21
TORSDOF 6
ENDMDL
MODEL 10
REMARK VINA RESULT:      -8.9      8.021     12.136
REMARK  6 active torsions:
REMARK  status: ('A' for Active; 'I' for Inactive)
REMARK    1  A    between atoms: C5_13  and  N1_6 
REMARK    2  A    between atoms: C6_14  and  N2_7 
REMARK    3  A    between atoms: C18_26  and  N3_8 
REMARK       I    between atoms: C9_17  and  N3_8 
REMARK    4  A    between atoms: C5_13  and  C7_15 
REMARK    5  A    between atoms: C6_14  and  C9_17 
REMARK    6  A    between atoms: C13_21  and  C17_25 
ROOT
HETATM    1  N1  UNK     1      28.537  -8.851  35.996  1.00  0.00     0.096 N 
HETATM    2  N2  UNK     1      26.213  -8.431  37.662  1.00  0.00     0.100 N 
HETATM    3  C1  UNK     1      27.976  -7.510  36.196  1.00  0.00     0.303 C 
HETATM    4  C2  UNK     1      27.486  -9.871  36.110  1.00  0.00     0.303 C 
HETATM    5  C3  UNK     1      27.264  -7.413  37.550  1.00  0.00     0.303 C 
HETATM    6  C4  UNK     1      26.776  -9.773  37.465  1.00  0.00     0.303 C 
ENDROOT
BRANCH   1   7
HETATM    7  C5  UNK     1      29.212  -8.944  34.702  1.00  0.00     0.312 C 
BRANCH   7   8
HETATM    8  C7  UNK     1      29.897  -7.674  34.334  1.00  0.00    -0.011 A 
HETATM    9  C10 UNK     1      30.855  -7.154  35.114  1.00  0.00     0.092 A 
HETATM   10  C14 UNK     1      31.560  -5.901  34.793  1.00  0.00     0.288 A 
HETATM   11  O1  UNK     1      31.188  -5.260  33.622  1.00  0.00    -0.275 OA
HETATM   12  O3  UNK     1      32.433  -5.457  35.530  1.00  0.00    -0.260 OA
HETATM   13  C11 UNK     1      30.184  -5.783  32.781  1.00  0.00     0.090 A 
HETATM   14  C8  UNK     1      29.525  -6.971  33.100  1.00  0.00     0.007 A 
HETATM   15  C15 UNK     1      29.892  -5.052  31.629  1.00  0.00     0.039 A 
HETATM   16  C12 UNK     1      28.538  -7.423  32.213  1.00  0.00     0.022 A 
HETATM   17  C13 UNK     1      28.234  -6.701  31.053  1.00  0.00    -0.058 A 
HETATM   18  C16 UNK     1      28.909  -5.519  30.761  1.00  0.00     0.010 A 
BRANCH  17  19
HETATM   19  C17 UNK     1      27.179  -7.202  30.123  1.00  0.00     0.034 C 
HETATM   20  C20 UNK     1      25.830  -6.528  30.359  1.00  0.00     0.010 C 
ENDBRANCH  17  19
ENDBRANCH   7   8
ENDBRANCH   1   7
BRANCH   2  21
HETATM   21  C6  UNK     1      25.537  -8.338  38.955  1.00  0.00     0.375 C 
BRANCH  21  22
HETATM   22  C9  UNK     1      24.270  -7.513  38.804  1.00  0.00     0.250 C 
HETATM   23  O2  UNK     1      24.258  -6.293  38.919  1.00  0.00    -0.271 OA
HETATM   24  N3  UNK     1      23.186  -8.343  38.523  1.00  0.00    -0.326 N 
HETATM   25  H15 UNK     1      23.362  -9.343  38.450  1.00  0.00     0.169 HD
BRANCH  24  26
HETATM   26  C18 UNK     1      21.839  -7.963  38.313  1.00  0.00     0.037 A 
HETATM   27  C19 UNK     1      21.331  -7.900  37.014  1.00  0.00     0.069 A 
HETATM   28  C22 UNK     1      20.012  -7.525  36.859  1.00  0.00     0.107 A 
HETATM   29  O4  UNK     1      19.349  -7.407  35.676  1.00  0.00    -0.323 OA
HETATM   30  C23 UNK     1      19.214  -7.222  37.938  1.00  0.00     0.105 A 
HETATM   31  C25 UNK     1      18.044  -6.996  36.132  1.00  0.00     0.352 A 
HETATM   32  O5  UNK     1      17.952  -6.876  37.566  1.00  0.00    -0.323 OA
HETATM   33  C24 UNK     1      19.691  -7.276  39.232  1.00  0.00     0.042 A 
HETATM   34  C21 UNK     1      21.023  -7.653  39.416  1.00  0.00     0.032 A 
ENDBRANCH  24  26
ENDBRANCH  21  22
ENDBRANCH   2  21
TORSDOF 6
ENDMDL
