MODEL 1
REMARK VINA RESULT:      -9.1      0.000      0.000
REMARK  8 active torsions:
REMARK  status: ('A' for Active; 'I' for Inactive)
REMARK    1  A    between atoms: C15_23  and  O2_2 
REMARK    2  A    between atoms: C19_27  and  O2_2 
REMARK    3  A    between atoms: C16_24  and  O3_3 
REMARK    4  A    between atoms: C20_28  and  O3_3 
REMARK    5  A    between atoms: C1_9  and  N1_8 
REMARK       I    between atoms: C11_19  and  N1_8 
REMARK    6  A    between atoms: C11_19  and  C3_11 
REMARK    7  A    between atoms: C15_23  and  C4_12 
REMARK    8  A    between atoms: C16_24  and  C5_13 
ROOT
HETATM    1  C1  UNK     1      17.896   3.364  32.120  1.00  0.00     0.036 A 
HETATM    2  C4  UNK     1      18.824   1.621  30.759  1.00  0.00     0.042 A 
HETATM    3  C5  UNK     1      18.487   1.269  33.125  1.00  0.00     0.042 A 
HETATM    4  C6  UNK     1      17.976   2.561  33.245  1.00  0.00     0.047 A 
HETATM    5  C7  UNK     1      18.313   2.913  30.879  1.00  0.00     0.047 A 
HETATM    6  C10 UNK     1      18.912   0.799  31.882  1.00  0.00     0.035 A 
ENDROOT
BRANCH   1   7
HETATM    7  N1  UNK     1      17.375   4.676  32.241  1.00  0.00    -0.323 N 
HETATM    8  C11 UNK     1      18.006   5.791  32.774  1.00  0.00     0.262 C 
HETATM    9  O4  UNK     1      19.139   5.869  33.246  1.00  0.00    -0.267 OA
HETATM   10  H4  UNK     1      16.419   4.773  31.907  1.00  0.00     0.169 HD
BRANCH   8  11
HETATM   11  C3  UNK     1      17.151   6.984  32.730  1.00  0.00     0.108 A 
HETATM   12  C12 UNK     1      16.787   7.642  31.456  1.00  0.00     0.304 A 
HETATM   13  O1  UNK     1      15.969   8.766  31.543  1.00  0.00    -0.274 OA
HETATM   14  O5  UNK     1      17.181   7.221  30.373  1.00  0.00    -0.259 OA
HETATM   15  C8  UNK     1      15.510   9.256  32.782  1.00  0.00     0.089 A 
HETATM   16  C14 UNK     1      14.697  10.386  32.770  1.00  0.00     0.038 A 
HETATM   17  C2  UNK     1      15.866   8.621  33.969  1.00  0.00    -0.001 A 
HETATM   18  C18 UNK     1      14.228  10.895  33.979  1.00  0.00     0.003 A 
HETATM   19  C17 UNK     1      14.574  10.272  35.181  1.00  0.00     0.001 A 
HETATM   20  C13 UNK     1      15.391   9.138  35.176  1.00  0.00     0.014 A 
HETATM   21  C9  UNK     1      16.718   7.445  33.910  1.00  0.00     0.037 A 
ENDBRANCH   8  11
ENDBRANCH   1   7
BRANCH   3  22
HETATM   22  C16 UNK     1      18.579   0.412  34.296  1.00  0.00     0.293 C 
HETATM   23  O7  UNK     1      19.300   0.640  35.277  1.00  0.00    -0.259 OA
BRANCH  22  24
HETATM   24  O3  UNK     1      17.767  -0.684  34.183  1.00  0.00    -0.318 OA
BRANCH  24  25
HETATM   25  C20 UNK     1      16.872  -0.941  35.271  1.00  0.00     0.174 C 
HETATM   26  C22 UNK     1      15.804   0.130  35.294  1.00  0.00     0.034 C 
ENDBRANCH  24  25
ENDBRANCH  22  24
ENDBRANCH   3  22
BRANCH   2  27
HETATM   27  C15 UNK     1      19.267   1.132  29.463  1.00  0.00     0.293 C 
HETATM   28  O6  UNK     1      18.703   1.382  28.390  1.00  0.00    -0.259 OA
BRANCH  27  29
HETATM   29  O2  UNK     1      20.389   0.357  29.575  1.00  0.00    -0.318 OA
BRANCH  29  30
HETATM   30  C19 UNK     1      20.383  -0.893  28.878  1.00  0.00     0.174 C 
HETATM   31  C21 UNK     1      20.410  -2.021  29.888  1.00  0.00     0.034 C 
ENDBRANCH  29  30
ENDBRANCH  27  29
ENDBRANCH   2  27
TORSDOF 8
ENDMDL
MODEL 2
REMARK VINA RESULT:      -9.0      0.048      3.848
REMARK  8 active torsions:
REMARK  status: ('A' for Active; 'I' for Inactive)
REMARK    1  A    between atoms: C15_23  and  O2_2 
REMARK    2  A    between atoms: C19_27  and  O2_2 
REMARK    3  A    between atoms: C16_24  and  O3_3 
REMARK    4  A    between atoms: C20_28  and  O3_3 
REMARK    5  A    between atoms: C1_9  and  N1_8 
REMARK       I    between atoms: C11_19  and  N1_8 
REMARK    6  A    between atoms: C11_19  and  C3_11 
REMARK    7  A    between atoms: C15_23  and  C4_12 
REMARK    8  A    between atoms: C16_24  and  C5_13 
ROOT
HETATM    1  C1  UNK     1      17.890   3.388  32.122  1.00  0.00     0.036 A 
HETATM    2  C4  UNK     1      18.488   1.295  33.128  1.00  0.00     0.042 A 
HETATM    3  C5  UNK     1      18.811   1.644  30.759  1.00  0.00     0.042 A 
HETATM    4  C6  UNK     1      18.300   2.936  30.880  1.00  0.00     0.047 A 
HETATM    5  C7  UNK     1      17.977   2.587  33.248  1.00  0.00     0.047 A 
HETATM    6  C10 UNK     1      18.905   0.823  31.884  1.00  0.00     0.035 A 
ENDROOT
BRANCH   1   7
HETATM    7  N1  UNK     1      17.372   4.701  32.245  1.00  0.00    -0.323 N 
HETATM    8  C11 UNK     1      18.010   5.817  32.768  1.00  0.00     0.262 C 
HETATM    9  O4  UNK     1      19.148   5.895  33.227  1.00  0.00    -0.267 OA
HETATM   10  H4  UNK     1      16.412   4.799  31.923  1.00  0.00     0.169 HD
BRANCH   8  11
HETATM   11  C3  UNK     1      17.156   7.011  32.731  1.00  0.00     0.108 A 
HETATM   12  C12 UNK     1      16.793   7.676  31.459  1.00  0.00     0.304 A 
HETATM   13  O1  UNK     1      15.976   8.800  31.553  1.00  0.00    -0.274 OA
HETATM   14  O5  UNK     1      17.187   7.261  30.374  1.00  0.00    -0.259 OA
HETATM   15  C8  UNK     1      15.517   9.284  32.794  1.00  0.00     0.089 A 
HETATM   16  C14 UNK     1      14.704  10.415  32.788  1.00  0.00     0.038 A 
HETATM   17  C2  UNK     1      15.872   8.642  33.977  1.00  0.00    -0.001 A 
HETATM   18  C18 UNK     1      14.235  10.917  33.999  1.00  0.00     0.003 A 
HETATM   19  C17 UNK     1      14.581  10.288  35.198  1.00  0.00     0.001 A 
HETATM   20  C13 UNK     1      15.397   9.153  35.188  1.00  0.00     0.014 A 
HETATM   21  C9  UNK     1      16.724   7.466  33.912  1.00  0.00     0.037 A 
ENDBRANCH   8  11
ENDBRANCH   1   7
BRANCH   3  22
HETATM   22  C16 UNK     1      19.245   1.152  29.462  1.00  0.00     0.293 C 
HETATM   23  O7  UNK     1      18.712   1.450  28.385  1.00  0.00    -0.259 OA
BRANCH  22  24
HETATM   24  O3  UNK     1      20.322   0.314  29.575  1.00  0.00    -0.318 OA
BRANCH  24  25
HETATM   25  C20 UNK     1      20.244  -0.937  28.886  1.00  0.00     0.174 C 
HETATM   26  C22 UNK     1      20.470  -2.060  29.875  1.00  0.00     0.034 C 
ENDBRANCH  24  25
ENDBRANCH  22  24
ENDBRANCH   3  22
BRANCH   2  27
HETATM   27  C15 UNK     1      18.585   0.439  34.300  1.00  0.00     0.293 C 
HETATM   28  O6  UNK     1      19.322   0.661  35.270  1.00  0.00    -0.259 OA
BRANCH  27  29
HETATM   29  O2  UNK     1      17.758  -0.646  34.200  1.00  0.00    -0.318 OA
BRANCH  29  30
HETATM   30  C19 UNK     1      16.912  -0.918  35.322  1.00  0.00     0.174 C 
HETATM   31  C21 UNK     1      15.792   0.101  35.354  1.00  0.00     0.034 C 
ENDBRANCH  29  30
ENDBRANCH  27  29
ENDBRANCH   2  27
TORSDOF 8
ENDMDL
MODEL 3
REMARK VINA RESULT:      -8.7      5.480     11.761
REMARK  8 active torsions:
REMARK  status: ('A' for Active; 'I' for Inactive)
REMARK    1  A    between atoms: C15_23  and  O2_2 
REMARK    2  A    between atoms: C19_27  and  O2_2 
REMARK    3  A    between atoms: C16_24  and  O3_3 
REMARK    4  A    between atoms: C20_28  and  O3_3 
REMARK    5  A    between atoms: C1_9  and  N1_8 
REMARK       I    between atoms: C11_19  and  N1_8 
REMARK    6  A    between atoms: C11_19  and  C3_11 
REMARK    7  A    between atoms: C15_23  and  C4_12 
REMARK    8  A    between atoms: C16_24  and  C5_13 
ROOT
HETATM    1  C1  UNK     1      19.558  -2.388  34.340  1.00  0.00     0.036 A 
HETATM    2  C4  UNK     1      18.566  -0.257  33.868  1.00  0.00     0.042 A 
HETATM    3  C5  UNK     1      19.872  -1.392  32.183  1.00  0.00     0.042 A 
HETATM    4  C6  UNK     1      20.101  -2.445  33.068  1.00  0.00     0.047 A 
HETATM    5  C7  UNK     1      18.794  -1.310  34.754  1.00  0.00     0.047 A 
HETATM    6  C10 UNK     1      19.105  -0.298  32.583  1.00  0.00     0.035 A 
ENDROOT
BRANCH   1   7
HETATM    7  N1  UNK     1      19.789  -3.458  35.240  1.00  0.00    -0.323 N 
HETATM    8  C11 UNK     1      20.135  -3.377  36.581  1.00  0.00     0.262 C 
HETATM    9  O4  UNK     1      20.310  -2.366  37.260  1.00  0.00    -0.267 OA
HETATM   10  H4  UNK     1      19.702  -4.379  34.818  1.00  0.00     0.169 HD
BRANCH   8  11
HETATM   11  C3  UNK     1      20.291  -4.701  37.195  1.00  0.00     0.108 A 
HETATM   12  C12 UNK     1      19.241  -5.740  37.097  1.00  0.00     0.304 A 
HETATM   13  O1  UNK     1      19.505  -6.957  37.719  1.00  0.00    -0.274 OA
HETATM   14  O5  UNK     1      18.189  -5.544  36.497  1.00  0.00    -0.259 OA
HETATM   15  C8  UNK     1      20.711  -7.192  38.409  1.00  0.00     0.089 A 
HETATM   16  C14 UNK     1      20.885  -8.442  38.999  1.00  0.00     0.038 A 
HETATM   17  C2  UNK     1      21.684  -6.201  38.489  1.00  0.00    -0.001 A 
HETATM   18  C18 UNK     1      22.067  -8.705  39.689  1.00  0.00     0.003 A 
HETATM   19  C17 UNK     1      23.056  -7.722  39.781  1.00  0.00     0.001 A 
HETATM   20  C13 UNK     1      22.866  -6.473  39.182  1.00  0.00     0.014 A 
HETATM   21  C9  UNK     1      21.438  -4.919  37.849  1.00  0.00     0.037 A 
ENDBRANCH   8  11
ENDBRANCH   1   7
BRANCH   3  22
HETATM   22  C16 UNK     1      20.435  -1.434  30.842  1.00  0.00     0.293 C 
HETATM   23  O7  UNK     1      20.722  -2.475  30.235  1.00  0.00    -0.259 OA
BRANCH  22  24
HETATM   24  O3  UNK     1      20.608  -0.178  30.329  1.00  0.00    -0.318 OA
BRANCH  24  25
HETATM   25  C20 UNK     1      20.077   0.067  29.022  1.00  0.00     0.174 C 
HETATM   26  C22 UNK     1      18.976   1.100  29.122  1.00  0.00     0.034 C 
ENDBRANCH  24  25
ENDBRANCH  22  24
ENDBRANCH   3  22
BRANCH   2  27
HETATM   27  C15 UNK     1      17.766   0.884  34.285  1.00  0.00     0.293 C 
HETATM   28  O6  UNK     1      17.502   1.856  33.566  1.00  0.00    -0.259 OA
BRANCH  27  29
HETATM   29  O2  UNK     1      17.337   0.750  35.578  1.00  0.00    -0.318 OA
BRANCH  29  30
HETATM   30  C19 UNK     1      17.835   1.700  36.526  1.00  0.00     0.174 C 
HETATM   31  C21 UNK     1      17.507   1.220  37.924  1.00  0.00     0.034 C 
ENDBRANCH  29  30
ENDBRANCH  27  29
ENDBRANCH   2  27
TORSDOF 8
ENDMDL
MODEL 4
REMARK VINA RESULT:      -8.7      5.463     11.206
REMARK  8 active torsions:
REMARK  status: ('A' for Active; 'I' for Inactive)
REMARK    1  A    between atoms: C15_23  and  O2_2 
REMARK    2  A    between atoms: C19_27  and  O2_2 
REMARK    3  A    between atoms: C16_24  and  O3_3 
REMARK    4  A    between atoms: C20_28  and  O3_3 
REMARK    5  A    between atoms: C1_9  and  N1_8 
REMARK       I    between atoms: C11_19  and  N1_8 
REMARK    6  A    between atoms: C11_19  and  C3_11 
REMARK    7  A    between atoms: C15_23  and  C4_12 
REMARK    8  A    between atoms: C16_24  and  C5_13 
ROOT
HETATM    1  C1  UNK     1      19.549  -2.362  34.340  1.00  0.00     0.036 A 
HETATM    2  C4  UNK     1      19.872  -1.371  32.181  1.00  0.00     0.042 A 
HETATM    3  C5  UNK     1      18.564  -0.231  33.860  1.00  0.00     0.042 A 
HETATM    4  C6  UNK     1      18.787  -1.281  34.749  1.00  0.00     0.047 A 
HETATM    5  C7  UNK     1      20.095  -2.423  33.069  1.00  0.00     0.047 A 
HETATM    6  C10 UNK     1      19.106  -0.275  32.576  1.00  0.00     0.035 A 
ENDROOT
BRANCH   1   7
HETATM    7  N1  UNK     1      19.777  -3.430  35.243  1.00  0.00    -0.323 N 
HETATM    8  C11 UNK     1      20.156  -3.346  36.575  1.00  0.00     0.262 C 
HETATM    9  O4  UNK     1      20.368  -2.334  37.241  1.00  0.00    -0.267 OA
HETATM   10  H4  UNK     1      19.661  -4.353  34.830  1.00  0.00     0.169 HD
BRANCH   8  11
HETATM   11  C3  UNK     1      20.296  -4.669  37.196  1.00  0.00     0.108 A 
HETATM   12  C12 UNK     1      19.229  -5.691  37.116  1.00  0.00     0.304 A 
HETATM   13  O1  UNK     1      19.480  -6.908  37.744  1.00  0.00    -0.274 OA
HETATM   14  O5  UNK     1      18.174  -5.482  36.526  1.00  0.00    -0.259 OA
HETATM   15  C8  UNK     1      20.690  -7.158  38.422  1.00  0.00     0.089 A 
HETATM   16  C14 UNK     1      20.850  -8.407  39.019  1.00  0.00     0.038 A 
HETATM   17  C2  UNK     1      21.680  -6.183  38.485  1.00  0.00    -0.001 A 
HETATM   18  C18 UNK     1      22.035  -8.684  39.698  1.00  0.00     0.003 A 
HETATM   19  C17 UNK     1      23.041  -7.717  39.772  1.00  0.00     0.001 A 
HETATM   20  C13 UNK     1      22.864  -6.469  39.168  1.00  0.00     0.014 A 
HETATM   21  C9  UNK     1      21.447  -4.901  37.839  1.00  0.00     0.037 A 
ENDBRANCH   8  11
ENDBRANCH   1   7
BRANCH   3  22
HETATM   22  C16 UNK     1      17.765   0.913  34.272  1.00  0.00     0.293 C 
HETATM   23  O7  UNK     1      17.514   1.888  33.551  1.00  0.00    -0.259 OA
BRANCH  22  24
HETATM   24  O3  UNK     1      17.322   0.781  35.560  1.00  0.00    -0.318 OA
BRANCH  24  25
HETATM   25  C20 UNK     1      17.826   1.717  36.518  1.00  0.00     0.174 C 
HETATM   26  C22 UNK     1      17.536   1.201  37.911  1.00  0.00     0.034 C 
ENDBRANCH  24  25
ENDBRANCH  22  24
ENDBRANCH   3  22
BRANCH   2  27
HETATM   27  C15 UNK     1      20.438  -1.419  30.842  1.00  0.00     0.293 C 
HETATM   28  O6  UNK     1      20.709  -2.462  30.232  1.00  0.00    -0.259 OA
BRANCH  27  29
HETATM   29  O2  UNK     1      20.634  -0.164  30.334  1.00  0.00    -0.318 OA
BRANCH  29  30
HETATM   30  C19 UNK     1      20.098   0.098  29.033  1.00  0.00     0.174 C 
HETATM   31  C21 UNK     1      18.961   1.091  29.158  1.00  0.00     0.034 C 
ENDBRANCH  29  30
ENDBRANCH  27  29
ENDBRANCH   2  27
TORSDOF 8
ENDMDL
MODEL 5
REMARK VINA RESULT:      -8.7      1.884      4.375
REMARK  8 active torsions:
REMARK  status: ('A' for Active; 'I' for Inactive)
REMARK    1  A    between atoms: C15_23  and  O2_2 
REMARK    2  A    between atoms: C19_27  and  O2_2 
REMARK    3  A    between atoms: C16_24  and  O3_3 
REMARK    4  A    between atoms: C20_28  and  O3_3 
REMARK    5  A    between atoms: C1_9  and  N1_8 
REMARK       I    between atoms: C11_19  and  N1_8 
REMARK    6  A    between atoms: C11_19  and  C3_11 
REMARK    7  A    between atoms: C15_23  and  C4_12 
REMARK    8  A    between atoms: C16_24  and  C5_13 
ROOT
HETATM    1  C1  UNK     1      17.972   4.218  32.631  1.00  0.00     0.036 A 
HETATM    2  C4  UNK     1      18.335   1.928  33.240  1.00  0.00     0.042 A 
HETATM    3  C5  UNK     1      18.455   2.606  30.925  1.00  0.00     0.042 A 
HETATM    4  C6  UNK     1      18.171   3.920  31.294  1.00  0.00     0.047 A 
HETATM    5  C7  UNK     1      18.050   3.242  33.610  1.00  0.00     0.047 A 
HETATM    6  C10 UNK     1      18.538   1.609  31.898  1.00  0.00     0.035 A 
ENDROOT
BRANCH   1   7
HETATM    7  N1  UNK     1      17.683   5.553  33.007  1.00  0.00    -0.323 N 
HETATM    8  C11 UNK     1      18.466   6.405  33.774  1.00  0.00     0.262 C 
HETATM    9  O4  UNK     1      19.563   6.176  34.281  1.00  0.00    -0.267 OA
HETATM   10  H4  UNK     1      16.782   5.890  32.677  1.00  0.00     0.169 HD
BRANCH   8  11
HETATM   11  C3  UNK     1      17.840   7.720  33.957  1.00  0.00     0.108 A 
HETATM   12  C12 UNK     1      16.405   7.867  34.290  1.00  0.00     0.304 A 
HETATM   13  O1  UNK     1      15.927   9.166  34.439  1.00  0.00    -0.274 OA
HETATM   14  O5  UNK     1      15.669   6.895  34.431  1.00  0.00    -0.259 OA
HETATM   15  C8  UNK     1      16.765  10.288  34.281  1.00  0.00     0.089 A 
HETATM   16  C14 UNK     1      16.197  11.549  34.451  1.00  0.00     0.038 A 
HETATM   17  C2  UNK     1      18.111  10.127  33.968  1.00  0.00    -0.001 A 
HETATM   18  C18 UNK     1      16.999  12.677  34.300  1.00  0.00     0.003 A 
HETATM   19  C17 UNK     1      18.353  12.536  33.985  1.00  0.00     0.001 A 
HETATM   20  C13 UNK     1      18.908  11.264  33.819  1.00  0.00     0.014 A 
HETATM   21  C9  UNK     1      18.640   8.782  33.806  1.00  0.00     0.037 A 
ENDBRANCH   8  11
ENDBRANCH   1   7
BRANCH   3  22
HETATM   22  C16 UNK     1      18.666   2.273  29.525  1.00  0.00     0.293 C 
HETATM   23  O7  UNK     1      18.027   2.763  28.584  1.00  0.00    -0.259 OA
BRANCH  22  24
HETATM   24  O3  UNK     1      19.664   1.349  29.371  1.00  0.00    -0.318 OA
BRANCH  24  25
HETATM   25  C20 UNK     1      19.347   0.173  28.619  1.00  0.00     0.174 C 
HETATM   26  C22 UNK     1      20.292  -0.939  29.022  1.00  0.00     0.034 C 
ENDBRANCH  24  25
ENDBRANCH  22  24
ENDBRANCH   3  22
BRANCH   2  27
HETATM   27  C15 UNK     1      18.420   0.890  34.255  1.00  0.00     0.293 C 
HETATM   28  O6  UNK     1      19.181   0.924  35.231  1.00  0.00    -0.259 OA
BRANCH  27  29
HETATM   29  O2  UNK     1      17.551  -0.136  33.999  1.00  0.00    -0.318 OA
BRANCH  29  30
HETATM   30  C19 UNK     1      16.867  -0.699  35.123  1.00  0.00     0.174 C 
HETATM   31  C21 UNK     1      15.677   0.172  35.464  1.00  0.00     0.034 C 
ENDBRANCH  29  30
ENDBRANCH  27  29
ENDBRANCH   2  27
TORSDOF 8
ENDMDL
MODEL 6
REMARK VINA RESULT:      -8.7      1.348      4.217
REMARK  8 active torsions:
REMARK  status: ('A' for Active; 'I' for Inactive)
REMARK    1  A    between atoms: C15_23  and  O2_2 
REMARK    2  A    between atoms: C19_27  and  O2_2 
REMARK    3  A    between atoms: C16_24  and  O3_3 
REMARK    4  A    between atoms: C20_28  and  O3_3 
REMARK    5  A    between atoms: C1_9  and  N1_8 
REMARK       I    between atoms: C11_19  and  N1_8 
REMARK    6  A    between atoms: C11_19  and  C3_11 
REMARK    7  A    between atoms: C15_23  and  C4_12 
REMARK    8  A    between atoms: C16_24  and  C5_13 
ROOT
HETATM    1  C1  UNK     1      18.126   4.012  32.428  1.00  0.00     0.036 A 
HETATM    2  C4  UNK     1      18.376   1.724  33.100  1.00  0.00     0.042 A 
HETATM    3  C5  UNK     1      18.551   2.335  30.770  1.00  0.00     0.042 A 
HETATM    4  C6  UNK     1      18.325   3.670  31.101  1.00  0.00     0.047 A 
HETATM    5  C7  UNK     1      18.148   3.060  33.432  1.00  0.00     0.047 A 
HETATM    6  C10 UNK     1      18.577   1.361  31.769  1.00  0.00     0.035 A 
ENDROOT
BRANCH   1   7
HETATM    7  N1  UNK     1      17.897   5.369  32.766  1.00  0.00    -0.323 N 
HETATM    8  C11 UNK     1      18.790   6.427  32.674  1.00  0.00     0.262 C 
HETATM    9  O4  UNK     1      19.956   6.404  32.282  1.00  0.00    -0.267 OA
HETATM   10  H4  UNK     1      16.966   5.552  33.134  1.00  0.00     0.169 HD
BRANCH   8  11
HETATM   11  C3  UNK     1      18.195   7.695  33.115  1.00  0.00     0.108 A 
HETATM   12  C12 UNK     1      18.956   8.683  33.912  1.00  0.00     0.304 A 
HETATM   13  O1  UNK     1      18.283   9.849  34.269  1.00  0.00    -0.274 OA
HETATM   14  O5  UNK     1      20.121   8.490  34.243  1.00  0.00    -0.259 OA
HETATM   15  C8  UNK     1      16.946  10.080  33.892  1.00  0.00     0.089 A 
HETATM   16  C14 UNK     1      16.357  11.277  34.295  1.00  0.00     0.038 A 
HETATM   17  C2  UNK     1      16.250   9.137  33.142  1.00  0.00    -0.001 A 
HETATM   18  C18 UNK     1      15.035  11.534  33.938  1.00  0.00     0.003 A 
HETATM   19  C17 UNK     1      14.320  10.599  33.186  1.00  0.00     0.001 A 
HETATM   20  C13 UNK     1      14.925   9.403  32.789  1.00  0.00     0.014 A 
HETATM   21  C9  UNK     1      16.925   7.909  32.754  1.00  0.00     0.037 A 
ENDBRANCH   8  11
ENDBRANCH   1   7
BRANCH   3  22
HETATM   22  C16 UNK     1      18.761   1.956  29.381  1.00  0.00     0.293 C 
HETATM   23  O7  UNK     1      18.096   2.386  28.429  1.00  0.00    -0.259 OA
BRANCH  22  24
HETATM   24  O3  UNK     1      19.789   1.062  29.253  1.00  0.00    -0.318 OA
BRANCH  24  25
HETATM   25  C20 UNK     1      19.498  -0.168  28.580  1.00  0.00     0.174 C 
HETATM   26  C22 UNK     1      20.391  -1.257  29.135  1.00  0.00     0.034 C 
ENDBRANCH  24  25
ENDBRANCH  22  24
ENDBRANCH   3  22
BRANCH   2  27
HETATM   27  C15 UNK     1      18.402   0.711  34.143  1.00  0.00     0.293 C 
HETATM   28  O6  UNK     1      19.144   0.742  35.132  1.00  0.00    -0.259 OA
BRANCH  27  29
HETATM   29  O2  UNK     1      17.499  -0.288  33.895  1.00  0.00    -0.318 OA
BRANCH  29  30
HETATM   30  C19 UNK     1      16.799  -0.820  35.024  1.00  0.00     0.174 C 
HETATM   31  C21 UNK     1      15.724   0.160  35.445  1.00  0.00     0.034 C 
ENDBRANCH  29  30
ENDBRANCH  27  29
ENDBRANCH   2  27
TORSDOF 8
ENDMDL
MODEL 7
REMARK VINA RESULT:      -8.5      2.172      3.093
REMARK  8 active torsions:
REMARK  status: ('A' for Active; 'I' for Inactive)
REMARK    1  A    between atoms: C15_23  and  O2_2 
REMARK    2  A    between atoms: C19_27  and  O2_2 
REMARK    3  A    between atoms: C16_24  and  O3_3 
REMARK    4  A    between atoms: C20_28  and  O3_3 
REMARK    5  A    between atoms: C1_9  and  N1_8 
REMARK       I    between atoms: C11_19  and  N1_8 
REMARK    6  A    between atoms: C11_19  and  C3_11 
REMARK    7  A    between atoms: C15_23  and  C4_12 
REMARK    8  A    between atoms: C16_24  and  C5_13 
ROOT
HETATM    1  C1  UNK     1      18.371   2.778  34.597  1.00  0.00     0.036 A 
HETATM    2  C4  UNK     1      18.480   0.568  33.673  1.00  0.00     0.042 A 
HETATM    3  C5  UNK     1      18.101   0.882  36.038  1.00  0.00     0.042 A 
HETATM    4  C6  UNK     1      18.155   2.264  35.864  1.00  0.00     0.047 A 
HETATM    5  C7  UNK     1      18.535   1.951  33.499  1.00  0.00     0.047 A 
HETATM    6  C10 UNK     1      18.264   0.033  34.943  1.00  0.00     0.035 A 
ENDROOT
BRANCH   1   7
HETATM    7  N1  UNK     1      18.425   4.183  34.419  1.00  0.00    -0.323 N 
HETATM    8  C11 UNK     1      17.984   4.915  33.327  1.00  0.00     0.262 C 
HETATM    9  O4  UNK     1      17.457   4.498  32.296  1.00  0.00    -0.267 OA
HETATM   10  H4  UNK     1      18.861   4.681  35.192  1.00  0.00     0.169 HD
BRANCH   8  11
HETATM   11  C3  UNK     1      18.204   6.357  33.500  1.00  0.00     0.108 A 
HETATM   12  C12 UNK     1      19.560   6.951  33.483  1.00  0.00     0.304 A 
HETATM   13  O1  UNK     1      19.640   8.330  33.656  1.00  0.00    -0.274 OA
HETATM   14  O5  UNK     1      20.565   6.267  33.324  1.00  0.00    -0.259 OA
HETATM   15  C8  UNK     1      18.490   9.124  33.838  1.00  0.00     0.089 A 
HETATM   16  C14 UNK     1      18.671  10.496  34.003  1.00  0.00     0.038 A 
HETATM   17  C2  UNK     1      17.225   8.544  33.850  1.00  0.00    -0.001 A 
HETATM   18  C18 UNK     1      17.554  11.307  34.186  1.00  0.00     0.003 A 
HETATM   19  C17 UNK     1      16.275  10.744  34.201  1.00  0.00     0.001 A 
HETATM   20  C13 UNK     1      16.111   9.366  34.034  1.00  0.00     0.014 A 
HETATM   21  C9  UNK     1      17.109   7.106  33.672  1.00  0.00     0.037 A 
ENDBRANCH   8  11
ENDBRANCH   1   7
BRANCH   3  22
HETATM   22  C16 UNK     1      17.876   0.324  37.362  1.00  0.00     0.293 C 
HETATM   23  O7  UNK     1      17.878   0.984  38.410  1.00  0.00    -0.259 OA
BRANCH  22  24
HETATM   24  O3  UNK     1      17.659  -1.026  37.310  1.00  0.00    -0.318 OA
BRANCH  24  25
HETATM   25  C20 UNK     1      18.546  -1.854  38.069  1.00  0.00     0.174 C 
HETATM   26  C22 UNK     1      19.430  -2.633  37.117  1.00  0.00     0.034 C 
ENDBRANCH  24  25
ENDBRANCH  22  24
ENDBRANCH   3  22
BRANCH   2  27
HETATM   27  C15 UNK     1      18.651  -0.315  32.531  1.00  0.00     0.293 C 
HETATM   28  O6  UNK     1      18.696  -1.550  32.601  1.00  0.00    -0.259 OA
BRANCH  27  29
HETATM   29  O2  UNK     1      18.754   0.389  31.362  1.00  0.00    -0.318 OA
BRANCH  29  30
HETATM   30  C19 UNK     1      19.925   0.160  30.571  1.00  0.00     0.174 C 
HETATM   31  C21 UNK     1      19.649   0.588  29.146  1.00  0.00     0.034 C 
ENDBRANCH  29  30
ENDBRANCH  27  29
ENDBRANCH   2  27
TORSDOF 8
ENDMDL
MODEL 8
REMARK VINA RESULT:      -8.5      2.139      4.701
REMARK  8 active torsions:
REMARK  status: ('A' for Active; 'I' for Inactive)
REMARK    1  A    between atoms: C15_23  and  O2_2 
REMARK    2  A    between atoms: C19_27  and  O2_2 
REMARK    3  A    between atoms: C16_24  and  O3_3 
REMARK    4  A    between atoms: C20_28  and  O3_3 
REMARK    5  A    between atoms: C1_9  and  N1_8 
REMARK       I    between atoms: C11_19  and  N1_8 
REMARK    6  A    between atoms: C11_19  and  C3_11 
REMARK    7  A    between atoms: C15_23  and  C4_12 
REMARK    8  A    between atoms: C16_24  and  C5_13 
ROOT
HETATM    1  C1  UNK     1      18.375   2.857  34.455  1.00  0.00     0.036 A 
HETATM    2  C4  UNK     1      18.108   0.930  35.856  1.00  0.00     0.042 A 
HETATM    3  C5  UNK     1      18.492   0.669  33.485  1.00  0.00     0.042 A 
HETATM    4  C6  UNK     1      18.543   2.054  33.340  1.00  0.00     0.047 A 
HETATM    5  C7  UNK     1      18.159   2.316  35.711  1.00  0.00     0.047 A 
HETATM    6  C10 UNK     1      18.274   0.106  34.743  1.00  0.00     0.035 A 
ENDROOT
BRANCH   1   7
HETATM    7  N1  UNK     1      18.429   4.266  34.309  1.00  0.00    -0.323 N 
HETATM    8  C11 UNK     1      17.939   5.026  33.257  1.00  0.00     0.262 C 
HETATM    9  O4  UNK     1      17.360   4.637  32.244  1.00  0.00    -0.267 OA
HETATM   10  H4  UNK     1      18.905   4.743  35.070  1.00  0.00     0.169 HD
BRANCH   8  11
HETATM   11  C3  UNK     1      18.176   6.462  33.453  1.00  0.00     0.108 A 
HETATM   12  C12 UNK     1      19.538   7.042  33.437  1.00  0.00     0.304 A 
HETATM   13  O1  UNK     1      19.635   8.417  33.633  1.00  0.00    -0.274 OA
HETATM   14  O5  UNK     1      20.535   6.350  33.259  1.00  0.00    -0.259 OA
HETATM   15  C8  UNK     1      18.495   9.220  33.837  1.00  0.00     0.089 A 
HETATM   16  C14 UNK     1      18.692  10.586  34.024  1.00  0.00     0.038 A 
HETATM   17  C2  UNK     1      17.224   8.654  33.848  1.00  0.00    -0.001 A 
HETATM   18  C18 UNK     1      17.584  11.407  34.229  1.00  0.00     0.003 A 
HETATM   19  C17 UNK     1      16.300  10.857  34.244  1.00  0.00     0.001 A 
HETATM   20  C13 UNK     1      16.119   9.484  34.054  1.00  0.00     0.014 A 
HETATM   21  C9  UNK     1      17.090   7.220  33.646  1.00  0.00     0.037 A 
ENDBRANCH   8  11
ENDBRANCH   1   7
BRANCH   3  22
HETATM   22  C16 UNK     1      18.665  -0.191  32.325  1.00  0.00     0.293 C 
HETATM   23  O7  UNK     1      18.318  -1.379  32.275  1.00  0.00    -0.259 OA
BRANCH  22  24
HETATM   24  O3  UNK     1      19.261   0.475  31.289  1.00  0.00    -0.318 OA
BRANCH  24  25
HETATM   25  C20 UNK     1      20.492  -0.064  30.795  1.00  0.00     0.174 C 
HETATM   26  C22 UNK     1      20.326  -0.414  29.332  1.00  0.00     0.034 C 
ENDBRANCH  24  25
ENDBRANCH  22  24
ENDBRANCH   3  22
BRANCH   2  27
HETATM   27  C15 UNK     1      17.881   0.344  37.167  1.00  0.00     0.293 C 
HETATM   28  O6  UNK     1      17.904   0.977  38.231  1.00  0.00    -0.259 OA
BRANCH  27  29
HETATM   29  O2  UNK     1      17.635  -1.000  37.082  1.00  0.00    -0.318 OA
BRANCH  29  30
HETATM   30  C19 UNK     1      18.425  -1.855  37.915  1.00  0.00     0.174 C 
HETATM   31  C21 UNK     1      19.441  -2.578  37.055  1.00  0.00     0.034 C 
ENDBRANCH  29  30
ENDBRANCH  27  29
ENDBRANCH   2  27
TORSDOF 8
ENDMDL
MODEL 9
REMARK VINA RESULT:      -8.4      2.204      2.720
REMARK  8 active torsions:
REMARK  status: ('A' for Active; 'I' for Inactive)
REMARK    1  A    between atoms: C15_23  and  O2_2 
REMARK    2  A    between atoms: C19_27  and  O2_2 
REMARK    3  A    between atoms: C16_24  and  O3_3 
REMARK    4  A    between atoms: C20_28  and  O3_3 
REMARK    5  A    between atoms: C1_9  and  N1_8 
REMARK       I    between atoms: C11_19  and  N1_8 
REMARK    6  A    between atoms: C11_19  and  C3_11 
REMARK    7  A    between atoms: C15_23  and  C4_12 
REMARK    8  A    between atoms: C16_24  and  C5_13 
ROOT
HETATM    1  C1  UNK     1      18.259   5.047  32.751  1.00  0.00     0.036 A 
HETATM    2  C4  UNK     1      18.261   3.297  31.112  1.00  0.00     0.042 A 
HETATM    3  C5  UNK     1      18.296   2.760  33.467  1.00  0.00     0.042 A 
HETATM    4  C6  UNK     1      18.282   4.119  33.778  1.00  0.00     0.047 A 
HETATM    5  C7  UNK     1      18.248   4.657  31.422  1.00  0.00     0.047 A 
HETATM    6  C10 UNK     1      18.286   2.348  32.133  1.00  0.00     0.035 A 
ENDROOT
BRANCH   1   7
HETATM    7  N1  UNK     1      18.243   6.428  33.066  1.00  0.00    -0.323 N 
HETATM    8  C11 UNK     1      17.430   7.078  33.983  1.00  0.00     0.262 C 
HETATM    9  O4  UNK     1      16.561   6.592  34.705  1.00  0.00    -0.267 OA
HETATM   10  H4  UNK     1      18.904   6.983  32.526  1.00  0.00     0.169 HD
BRANCH   8  11
HETATM   11  C3  UNK     1      17.700   8.520  34.040  1.00  0.00     0.108 A 
HETATM   12  C12 UNK     1      19.077   9.057  34.115  1.00  0.00     0.304 A 
HETATM   13  O1  UNK     1      19.206  10.443  34.164  1.00  0.00    -0.274 OA
HETATM   14  O5  UNK     1      20.060   8.323  34.133  1.00  0.00    -0.259 OA
HETATM   15  C8  UNK     1      18.084  11.294  34.142  1.00  0.00     0.089 A 
HETATM   16  C14 UNK     1      18.313  12.668  34.194  1.00  0.00     0.038 A 
HETATM   17  C2  UNK     1      16.798  10.767  34.071  1.00  0.00    -0.001 A 
HETATM   18  C18 UNK     1      17.223  13.536  34.175  1.00  0.00     0.003 A 
HETATM   19  C17 UNK     1      15.924  13.025  34.104  1.00  0.00     0.001 A 
HETATM   20  C13 UNK     1      15.712  11.645  34.052  1.00  0.00     0.014 A 
HETATM   21  C9  UNK     1      16.631   9.324  34.019  1.00  0.00     0.037 A 
ENDBRANCH   8  11
ENDBRANCH   1   7
BRANCH   3  22
HETATM   22  C16 UNK     1      18.322   1.770  34.532  1.00  0.00     0.293 C 
HETATM   23  O7  UNK     1      19.124   1.777  35.475  1.00  0.00    -0.259 OA
BRANCH  22  24
HETATM   24  O3  UNK     1      17.346   0.825  34.365  1.00  0.00    -0.318 OA
BRANCH  24  25
HETATM   25  C20 UNK     1      17.729  -0.541  34.558  1.00  0.00     0.174 C 
HETATM   26  C22 UNK     1      18.556  -0.993  33.373  1.00  0.00     0.034 C 
ENDBRANCH  24  25
ENDBRANCH  22  24
ENDBRANCH   3  22
BRANCH   2  27
HETATM   27  C15 UNK     1      18.251   2.869  29.722  1.00  0.00     0.293 C 
HETATM   28  O6  UNK     1      18.491   3.609  28.759  1.00  0.00    -0.259 OA
BRANCH  27  29
HETATM   29  O2  UNK     1      17.942   1.541  29.607  1.00  0.00    -0.318 OA
BRANCH  29  30
HETATM   30  C19 UNK     1      18.667   0.791  28.627  1.00  0.00     0.174 C 
HETATM   31  C21 UNK     1      19.938   0.259  29.254  1.00  0.00     0.034 C 
ENDBRANCH  29  30
ENDBRANCH  27  29
ENDBRANCH   2  27
TORSDOF 8
ENDMDL
MODEL 10
REMARK VINA RESULT:      -8.3     15.117     19.557
REMARK  8 active torsions:
REMARK  status: ('A' for Active; 'I' for Inactive)
REMARK    1  A    between atoms: C15_23  and  O2_2 
REMARK    2  A    between atoms: C19_27  and  O2_2 
REMARK    3  A    between atoms: C16_24  and  O3_3 
REMARK    4  A    between atoms: C20_28  and  O3_3 
REMARK    5  A    between atoms: C1_9  and  N1_8 
REMARK       I    between atoms: C11_19  and  N1_8 
REMARK    6  A    between atoms: C11_19  and  C3_11 
REMARK    7  A    between atoms: C15_23  and  C4_12 
REMARK    8  A    between atoms: C16_24  and  C5_13 
ROOT
HETATM    1  C1  UNK     1      19.781  -2.956  14.155  1.00  0.00     0.036 A 
HETATM    2  C4  UNK     1      20.359  -5.206  13.562  1.00  0.00     0.042 A 
HETATM    3  C5  UNK     1      19.444  -3.708  11.904  1.00  0.00     0.042 A 
HETATM    4  C6  UNK     1      19.363  -2.697  12.860  1.00  0.00     0.047 A 
HETATM    5  C7  UNK     1      20.278  -4.195  14.520  1.00  0.00     0.047 A 
HETATM    6  C10 UNK     1      19.942  -4.963  12.254  1.00  0.00     0.035 A 
ENDROOT
BRANCH   1   7
HETATM    7  N1  UNK     1      19.700  -1.929  15.127  1.00  0.00    -0.323 N 
HETATM    8  C11 UNK     1      18.668  -1.690  16.023  1.00  0.00     0.262 C 
HETATM    9  O4  UNK     1      17.619  -2.319  16.157  1.00  0.00    -0.267 OA
HETATM   10  H4  UNK     1      20.499  -1.298  15.130  1.00  0.00     0.169 HD
BRANCH   8  11
HETATM   11  C3  UNK     1      18.937  -0.531  16.884  1.00  0.00     0.108 A 
HETATM   12  C12 UNK     1      19.188   0.817  16.328  1.00  0.00     0.304 A 
HETATM   13  O1  UNK     1      19.429   1.837  17.245  1.00  0.00    -0.274 OA
HETATM   14  O5  UNK     1      19.182   1.032  15.120  1.00  0.00    -0.259 OA
HETATM   15  C8  UNK     1      19.435   1.600  18.634  1.00  0.00     0.089 A 
HETATM   16  C14 UNK     1      19.686   2.683  19.474  1.00  0.00     0.038 A 
HETATM   17  C2  UNK     1      19.198   0.323  19.134  1.00  0.00    -0.001 A 
HETATM   18  C18 UNK     1      19.700   2.480  20.852  1.00  0.00     0.003 A 
HETATM   19  C17 UNK     1      19.464   1.206  21.374  1.00  0.00     0.001 A 
HETATM   20  C13 UNK     1      19.213   0.130  20.518  1.00  0.00     0.014 A 
HETATM   21  C9  UNK     1      18.942  -0.762  18.201  1.00  0.00     0.037 A 
ENDBRANCH   8  11
ENDBRANCH   1   7
BRANCH   3  22
HETATM   22  C16 UNK     1      19.008  -3.454  10.540  1.00  0.00     0.293 C 
HETATM   23  O7  UNK     1      18.012  -3.970  10.015  1.00  0.00    -0.259 OA
BRANCH  22  24
HETATM   24  O3  UNK     1      19.836  -2.571   9.902  1.00  0.00    -0.318 OA
BRANCH  24  25
HETATM   25  C20 UNK     1      21.114  -3.064   9.487  1.00  0.00     0.174 C 
HETATM   26  C22 UNK     1      21.267  -2.845   7.997  1.00  0.00     0.034 C 
ENDBRANCH  24  25
ENDBRANCH  22  24
ENDBRANCH   3  22
BRANCH   2  27
HETATM   27  C15 UNK     1      20.878  -6.514  13.929  1.00  0.00     0.293 C 
HETATM   28  O6  UNK     1      21.707  -6.713  14.826  1.00  0.00    -0.259 OA
BRANCH  27  29
HETATM   29  O2  UNK     1      20.335  -7.505  13.157  1.00  0.00    -0.318 OA
BRANCH  29  30
HETATM   30  C19 UNK     1      21.220  -8.541  12.718  1.00  0.00     0.174 C 
HETATM   31  C21 UNK     1      22.107  -7.998  11.617  1.00  0.00     0.034 C 
ENDBRANCH  29  30
ENDBRANCH  27  29
ENDBRANCH   2  27
TORSDOF 8
ENDMDL
