MODEL 1
REMARK VINA RESULT:     -10.0      0.000      0.000
REMARK  5 active torsions:
REMARK  status: ('A' for Active; 'I' for Inactive)
REMARK    1  A    between atoms: C19_24  and  O2_2 
REMARK    2  A    between atoms: C6_11  and  O2_2 
REMARK    3  A    between atoms: C12_17  and  O3_3 
REMARK    4  A    between atoms: C22_27  and  O3_3 
REMARK    5  A    between atoms: C19_24  and  C22_27 
ROOT
HETATM    1  C19 UNK     1      20.015   0.287  30.570  1.00  0.00     0.287 C 
ENDROOT
BRANCH   1   2
HETATM    2  O2  UNK     1      19.658  -1.017  31.029  1.00  0.00    -0.341 OA
BRANCH   2   3
HETATM    3  C6  UNK     1      19.454  -1.169  32.365  1.00  0.00     0.072 A 
HETATM    4  C7  UNK     1      20.142  -2.151  33.071  1.00  0.00     0.075 A 
HETATM    5  C2  UNK     1      19.917  -2.290  34.441  1.00  0.00     0.092 A 
HETATM    6  C1  UNK     1      19.022  -1.474  35.136  1.00  0.00     0.004 A 
HETATM    7  O1  UNK     1      20.644  -3.301  35.100  1.00  0.00    -0.275 OA
HETATM    8  C3  UNK     1      18.848  -1.691  36.578  1.00  0.00    -0.043 A 
HETATM    9  C4  UNK     1      18.339  -0.492  34.408  1.00  0.00     0.017 A 
HETATM   10  C10 UNK     1      19.552  -2.660  37.179  1.00  0.00     0.090 A 
HETATM   11  C13 UNK     1      17.893  -0.832  37.354  1.00  0.00     0.049 C 
HETATM   12  C18 UNK     1      20.500  -3.527  36.460  1.00  0.00     0.288 A 
HETATM   13  O4  UNK     1      21.128  -4.405  37.043  1.00  0.00    -0.260 OA
HETATM   14  C9  UNK     1      18.553  -0.340  33.033  1.00  0.00     0.038 A 
ENDBRANCH   2   3
ENDBRANCH   1   2
BRANCH   1  15
HETATM   15  C22 UNK     1      19.082   0.682  29.455  1.00  0.00     0.288 C 
HETATM   16  O5  UNK     1      19.260   0.439  28.269  1.00  0.00    -0.262 OA
BRANCH  15  17
HETATM   17  O3  UNK     1      18.000   1.357  30.014  1.00  0.00    -0.277 OA
BRANCH  17  18
HETATM   18  C12 UNK     1      18.321   2.652  30.424  1.00  0.00     0.080 A 
HETATM   19  C11 UNK     1      18.106   3.002  31.739  1.00  0.00     0.049 A 
HETATM   20  C5  UNK     1      18.424   4.301  32.167  1.00  0.00    -0.023 A 
HETATM   21  C15 UNK     1      18.222   4.704  33.498  1.00  0.00     0.012 A 
HETATM   22  C8  UNK     1      18.960   5.225  31.238  1.00  0.00    -0.026 A 
HETATM   23  C20 UNK     1      18.543   5.999  33.906  1.00  0.00     0.001 A 
HETATM   24  C21 UNK     1      19.070   6.907  32.992  1.00  0.00     0.001 A 
HETATM   25  C17 UNK     1      19.278   6.525  31.667  1.00  0.00     0.012 A 
HETATM   26  C14 UNK     1      19.162   4.822  29.908  1.00  0.00     0.015 A 
HETATM   27  C16 UNK     1      18.840   3.528  29.499  1.00  0.00     0.038 A 
ENDBRANCH  17  18
ENDBRANCH  15  17
ENDBRANCH   1  15
TORSDOF 5
ENDMDL
MODEL 2
REMARK VINA RESULT:      -9.9      1.447      2.099
REMARK  5 active torsions:
REMARK  status: ('A' for Active; 'I' for Inactive)
REMARK    1  A    between atoms: C19_24  and  O2_2 
REMARK    2  A    between atoms: C6_11  and  O2_2 
REMARK    3  A    between atoms: C12_17  and  O3_3 
REMARK    4  A    between atoms: C22_27  and  O3_3 
REMARK    5  A    between atoms: C19_24  and  C22_27 
ROOT
HETATM    1  C19 UNK     1      20.076   0.168  30.519  1.00  0.00     0.287 C 
ENDROOT
BRANCH   1   2
HETATM    2  O2  UNK     1      19.704  -1.148  30.926  1.00  0.00    -0.341 OA
BRANCH   2   3
HETATM    3  C6  UNK     1      19.591  -1.375  32.262  1.00  0.00     0.072 A 
HETATM    4  C7  UNK     1      18.641  -0.687  33.011  1.00  0.00     0.075 A 
HETATM    5  C2  UNK     1      18.543  -0.935  34.381  1.00  0.00     0.092 A 
HETATM    6  C1  UNK     1      19.368  -1.853  35.033  1.00  0.00     0.004 A 
HETATM    7  O1  UNK     1      17.562  -0.209  35.084  1.00  0.00    -0.275 OA
HETATM    8  C3  UNK     1      19.193  -2.051  36.478  1.00  0.00    -0.043 A 
HETATM    9  C4  UNK     1      20.318  -2.536  34.262  1.00  0.00     0.017 A 
HETATM   10  C10 UNK     1      18.253  -1.346  37.121  1.00  0.00     0.090 A 
HETATM   11  C13 UNK     1      20.064  -3.031  37.209  1.00  0.00     0.049 C 
HETATM   12  C18 UNK     1      17.376  -0.375  36.448  1.00  0.00     0.288 A 
HETATM   13  O4  UNK     1      16.525   0.253  37.069  1.00  0.00    -0.260 OA
HETATM   14  C9  UNK     1      20.428  -2.298  32.888  1.00  0.00     0.038 A 
ENDBRANCH   2   3
ENDBRANCH   1   2
BRANCH   1  15
HETATM   15  C22 UNK     1      19.099   0.649  29.478  1.00  0.00     0.288 C 
HETATM   16  O5  UNK     1      19.227   0.500  28.269  1.00  0.00    -0.262 OA
BRANCH  15  17
HETATM   17  O3  UNK     1      18.043   1.278  30.132  1.00  0.00    -0.277 OA
BRANCH  17  18
HETATM   18  C12 UNK     1      18.341   2.589  30.508  1.00  0.00     0.080 A 
HETATM   19  C11 UNK     1      18.135   2.964  31.818  1.00  0.00     0.049 A 
HETATM   20  C5  UNK     1      18.430   4.279  32.213  1.00  0.00    -0.023 A 
HETATM   21  C15 UNK     1      18.237   4.708  33.536  1.00  0.00     0.012 A 
HETATM   22  C8  UNK     1      18.935   5.192  31.256  1.00  0.00    -0.026 A 
HETATM   23  C20 UNK     1      18.535   6.018  33.912  1.00  0.00     0.001 A 
HETATM   24  C21 UNK     1      19.030   6.916  32.970  1.00  0.00     0.001 A 
HETATM   25  C17 UNK     1      19.230   6.508  31.652  1.00  0.00     0.012 A 
HETATM   26  C14 UNK     1      19.129   4.763  29.933  1.00  0.00     0.015 A 
HETATM   27  C16 UNK     1      18.830   3.454  29.558  1.00  0.00     0.038 A 
ENDBRANCH  17  18
ENDBRANCH  15  17
ENDBRANCH   1  15
TORSDOF 5
ENDMDL
MODEL 3
REMARK VINA RESULT:      -9.6      3.738      7.089
REMARK  5 active torsions:
REMARK  status: ('A' for Active; 'I' for Inactive)
REMARK    1  A    between atoms: C19_24  and  O2_2 
REMARK    2  A    between atoms: C6_11  and  O2_2 
REMARK    3  A    between atoms: C12_17  and  O3_3 
REMARK    4  A    between atoms: C22_27  and  O3_3 
REMARK    5  A    between atoms: C19_24  and  C22_27 
ROOT
HETATM    1  C19 UNK     1      19.661  -3.516  36.539  1.00  0.00     0.287 C 
ENDROOT
BRANCH   1   2
HETATM    2  O2  UNK     1      20.481  -4.214  37.476  1.00  0.00    -0.341 OA
BRANCH   2   3
HETATM    3  C6  UNK     1      20.403  -5.573  37.476  1.00  0.00     0.072 A 
HETATM    4  C7  UNK     1      20.939  -6.304  36.422  1.00  0.00     0.075 A 
HETATM    5  C2  UNK     1      20.847  -7.697  36.443  1.00  0.00     0.092 A 
HETATM    6  C1  UNK     1      20.234  -8.388  37.489  1.00  0.00     0.004 A 
HETATM    7  O1  UNK     1      21.409  -8.383  35.348  1.00  0.00    -0.275 OA
HETATM    8  C3  UNK     1      20.183  -9.855  37.428  1.00  0.00    -0.043 A 
HETATM    9  C4  UNK     1      19.700  -7.633  38.542  1.00  0.00     0.017 A 
HETATM   10  C10 UNK     1      20.725 -10.480  36.374  1.00  0.00     0.090 A 
HETATM   11  C13 UNK     1      19.531 -10.627  38.537  1.00  0.00     0.049 C 
HETATM   12  C18 UNK     1      21.376  -9.766  35.264  1.00  0.00     0.288 A 
HETATM   13  O4  UNK     1      21.862 -10.371  34.315  1.00  0.00    -0.260 OA
HETATM   14  C9  UNK     1      19.784  -6.236  38.535  1.00  0.00     0.038 A 
ENDBRANCH   2   3
ENDBRANCH   1   2
BRANCH   1  15
HETATM   15  C22 UNK     1      20.548  -2.732  35.608  1.00  0.00     0.288 C 
HETATM   16  O5  UNK     1      21.253  -1.786  35.936  1.00  0.00    -0.262 OA
BRANCH  15  17
HETATM   17  O3  UNK     1      20.423  -3.274  34.331  1.00  0.00    -0.277 OA
BRANCH  17  18
HETATM   18  C12 UNK     1      20.092  -2.321  33.367  1.00  0.00     0.080 A 
HETATM   19  C11 UNK     1      20.679  -2.407  32.123  1.00  0.00     0.049 A 
HETATM   20  C5  UNK     1      20.356  -1.456  31.141  1.00  0.00    -0.023 A 
HETATM   21  C15 UNK     1      20.928  -1.503  29.859  1.00  0.00     0.012 A 
HETATM   22  C8  UNK     1      19.434  -0.427  31.450  1.00  0.00    -0.026 A 
HETATM   23  C20 UNK     1      20.597  -0.550  28.896  1.00  0.00     0.001 A 
HETATM   24  C21 UNK     1      19.691   0.462  29.200  1.00  0.00     0.001 A 
HETATM   25  C17 UNK     1      19.113   0.524  30.468  1.00  0.00     0.012 A 
HETATM   26  C14 UNK     1      18.862  -0.381  32.732  1.00  0.00     0.015 A 
HETATM   27  C16 UNK     1      19.194  -1.333  33.695  1.00  0.00     0.038 A 
ENDBRANCH  17  18
ENDBRANCH  15  17
ENDBRANCH   1  15
TORSDOF 5
ENDMDL
MODEL 4
REMARK VINA RESULT:      -9.5      4.273      9.319
REMARK  5 active torsions:
REMARK  status: ('A' for Active; 'I' for Inactive)
REMARK    1  A    between atoms: C19_24  and  O2_2 
REMARK    2  A    between atoms: C6_11  and  O2_2 
REMARK    3  A    between atoms: C12_17  and  O3_3 
REMARK    4  A    between atoms: C22_27  and  O3_3 
REMARK    5  A    between atoms: C19_24  and  C22_27 
ROOT
HETATM    1  C19 UNK     1      18.344   4.739  33.348  1.00  0.00     0.287 C 
ENDROOT
BRANCH   1   2
HETATM    2  O2  UNK     1      19.026   5.929  33.745  1.00  0.00    -0.341 OA
BRANCH   2   3
HETATM    3  C6  UNK     1      18.264   7.032  33.976  1.00  0.00     0.072 A 
HETATM    4  C7  UNK     1      18.785   8.302  33.754  1.00  0.00     0.075 A 
HETATM    5  C2  UNK     1      17.986   9.420  33.998  1.00  0.00     0.092 A 
HETATM    6  C1  UNK     1      16.673   9.310  34.460  1.00  0.00     0.004 A 
HETATM    7  O1  UNK     1      18.569  10.679  33.753  1.00  0.00    -0.275 OA
HETATM    8  C3  UNK     1      15.904  10.540  34.689  1.00  0.00    -0.043 A 
HETATM    9  C4  UNK     1      16.166   8.023  34.678  1.00  0.00     0.017 A 
HETATM   10  C10 UNK     1      16.485  11.724  34.448  1.00  0.00     0.090 A 
HETATM   11  C13 UNK     1      14.490  10.457  35.186  1.00  0.00     0.049 C 
HETATM   12  C18 UNK     1      17.867  11.856  33.961  1.00  0.00     0.288 A 
HETATM   13  O4  UNK     1      18.367  12.956  33.751  1.00  0.00    -0.260 OA
HETATM   14  C9  UNK     1      16.955   6.892  34.438  1.00  0.00     0.038 A 
ENDBRANCH   2   3
ENDBRANCH   1   2
BRANCH   1  15
HETATM   15  C22 UNK     1      18.536   4.542  31.867  1.00  0.00     0.288 C 
HETATM   16  O5  UNK     1      19.390   5.096  31.187  1.00  0.00    -0.262 OA
BRANCH  15  17
HETATM   17  O3  UNK     1      17.583   3.628  31.424  1.00  0.00    -0.277 OA
BRANCH  17  18
HETATM   18  C12 UNK     1      18.140   2.565  30.711  1.00  0.00     0.080 A 
HETATM   19  C11 UNK     1      18.806   1.579  31.406  1.00  0.00     0.049 A 
HETATM   20  C5  UNK     1      19.371   0.503  30.703  1.00  0.00    -0.023 A 
HETATM   21  C15 UNK     1      20.059  -0.526  31.367  1.00  0.00     0.012 A 
HETATM   22  C8  UNK     1      19.244   0.453  29.294  1.00  0.00    -0.026 A 
HETATM   23  C20 UNK     1      20.615  -1.588  30.653  1.00  0.00     0.001 A 
HETATM   24  C21 UNK     1      20.491  -1.636  29.267  1.00  0.00     0.001 A 
HETATM   25  C17 UNK     1      19.811  -0.623  28.591  1.00  0.00     0.012 A 
HETATM   26  C14 UNK     1      18.556   1.482  28.630  1.00  0.00     0.015 A 
HETATM   27  C16 UNK     1      18.001   2.544  29.343  1.00  0.00     0.038 A 
ENDBRANCH  17  18
ENDBRANCH  15  17
ENDBRANCH   1  15
TORSDOF 5
ENDMDL
MODEL 5
REMARK VINA RESULT:      -9.4      3.546     10.381
REMARK  5 active torsions:
REMARK  status: ('A' for Active; 'I' for Inactive)
REMARK    1  A    between atoms: C19_24  and  O2_2 
REMARK    2  A    between atoms: C6_11  and  O2_2 
REMARK    3  A    between atoms: C12_17  and  O3_3 
REMARK    4  A    between atoms: C22_27  and  O3_3 
REMARK    5  A    between atoms: C19_24  and  C22_27 
ROOT
HETATM    1  C19 UNK     1      19.868  -2.861  35.750  1.00  0.00     0.287 C 
ENDROOT
BRANCH   1   2
HETATM    2  O2  UNK     1      20.510  -3.301  34.552  1.00  0.00    -0.341 OA
BRANCH   2   3
HETATM    3  C6  UNK     1      20.329  -2.542  33.438  1.00  0.00     0.072 A 
HETATM    4  C7  UNK     1      19.633  -1.340  33.516  1.00  0.00     0.075 A 
HETATM    5  C2  UNK     1      19.459  -0.576  32.360  1.00  0.00     0.092 A 
HETATM    6  C1  UNK     1      19.960  -0.977  31.120  1.00  0.00     0.004 A 
HETATM    7  O1  UNK     1      18.747   0.631  32.503  1.00  0.00    -0.275 OA
HETATM    8  C3  UNK     1      19.731  -0.111  29.957  1.00  0.00    -0.043 A 
HETATM    9  C4  UNK     1      20.658  -2.191  31.063  1.00  0.00     0.017 A 
HETATM   10  C10 UNK     1      19.050   1.032  30.122  1.00  0.00     0.090 A 
HETATM   11  C13 UNK     1      20.256  -0.513  28.610  1.00  0.00     0.049 C 
HETATM   12  C18 UNK     1      18.516   1.468  31.422  1.00  0.00     0.288 A 
HETATM   13  O4  UNK     1      17.897   2.520  31.536  1.00  0.00    -0.260 OA
HETATM   14  C9  UNK     1      20.841  -2.967  32.212  1.00  0.00     0.038 A 
ENDBRANCH   2   3
ENDBRANCH   1   2
BRANCH   1  15
HETATM   15  C22 UNK     1      19.943  -3.964  36.773  1.00  0.00     0.288 C 
HETATM   16  O5  UNK     1      20.772  -4.037  37.671  1.00  0.00    -0.262 OA
BRANCH  15  17
HETATM   17  O3  UNK     1      18.913  -4.865  36.516  1.00  0.00    -0.277 OA
BRANCH  17  18
HETATM   18  C12 UNK     1      19.350  -6.191  36.471  1.00  0.00     0.080 A 
HETATM   19  C11 UNK     1      18.974  -7.045  37.485  1.00  0.00     0.049 A 
HETATM   20  C5  UNK     1      19.404  -8.381  37.455  1.00  0.00    -0.023 A 
HETATM   21  C15 UNK     1      19.048  -9.289  38.466  1.00  0.00     0.012 A 
HETATM   22  C8  UNK     1      20.215  -8.824  36.383  1.00  0.00    -0.026 A 
HETATM   23  C20 UNK     1      19.484 -10.614  38.421  1.00  0.00     0.001 A 
HETATM   24  C21 UNK     1      20.282 -11.048  37.366  1.00  0.00     0.001 A 
HETATM   25  C17 UNK     1      20.646 -10.161  36.353  1.00  0.00     0.012 A 
HETATM   26  C14 UNK     1      20.572  -7.916  35.372  1.00  0.00     0.015 A 
HETATM   27  C16 UNK     1      20.136  -6.592  35.418  1.00  0.00     0.038 A 
ENDBRANCH  17  18
ENDBRANCH  15  17
ENDBRANCH   1  15
TORSDOF 5
ENDMDL
MODEL 6
REMARK VINA RESULT:      -9.4     12.942     15.643
REMARK  5 active torsions:
REMARK  status: ('A' for Active; 'I' for Inactive)
REMARK    1  A    between atoms: C19_24  and  O2_2 
REMARK    2  A    between atoms: C6_11  and  O2_2 
REMARK    3  A    between atoms: C12_17  and  O3_3 
REMARK    4  A    between atoms: C22_27  and  O3_3 
REMARK    5  A    between atoms: C19_24  and  C22_27 
ROOT
HETATM    1  C19 UNK     1      35.032  -6.048  36.435  1.00  0.00     0.287 C 
ENDROOT
BRANCH   1   2
HETATM    2  O2  UNK     1      34.383  -5.698  37.657  1.00  0.00    -0.341 OA
BRANCH   2   3
HETATM    3  C6  UNK     1      33.141  -6.213  37.868  1.00  0.00     0.072 A 
HETATM    4  C7  UNK     1      32.059  -5.364  38.075  1.00  0.00     0.075 A 
HETATM    5  C2  UNK     1      30.793  -5.913  38.290  1.00  0.00     0.092 A 
HETATM    6  C1  UNK     1      30.572  -7.292  38.305  1.00  0.00     0.004 A 
HETATM    7  O1  UNK     1      29.737  -5.003  38.493  1.00  0.00    -0.275 OA
HETATM    8  C3  UNK     1      29.207  -7.781  38.537  1.00  0.00    -0.043 A 
HETATM    9  C4  UNK     1      31.674  -8.129  38.094  1.00  0.00     0.017 A 
HETATM   10  C10 UNK     1      28.222  -6.893  38.728  1.00  0.00     0.090 A 
HETATM   11  C13 UNK     1      28.935  -9.257  38.559  1.00  0.00     0.049 C 
HETATM   12  C18 UNK     1      28.439  -5.437  38.715  1.00  0.00     0.288 A 
HETATM   13  O4  UNK     1      27.513  -4.653  38.893  1.00  0.00    -0.260 OA
HETATM   14  C9  UNK     1      32.949  -7.594  37.877  1.00  0.00     0.038 A 
ENDBRANCH   2   3
ENDBRANCH   1   2
BRANCH   1  15
HETATM   15  C22 UNK     1      34.495  -5.173  35.333  1.00  0.00     0.288 C 
HETATM   16  O5  UNK     1      34.311  -3.966  35.418  1.00  0.00    -0.262 OA
BRANCH  15  17
HETATM   17  O3  UNK     1      34.255  -5.974  34.219  1.00  0.00    -0.277 OA
BRANCH  17  18
HETATM   18  C12 UNK     1      33.099  -6.746  34.345  1.00  0.00     0.080 A 
HETATM   19  C11 UNK     1      31.893  -6.106  34.529  1.00  0.00     0.049 A 
HETATM   20  C5  UNK     1      30.720  -6.868  34.656  1.00  0.00    -0.023 A 
HETATM   21  C15 UNK     1      29.468  -6.260  34.845  1.00  0.00     0.012 A 
HETATM   22  C8  UNK     1      30.802  -8.280  34.593  1.00  0.00    -0.026 A 
HETATM   23  C20 UNK     1      28.313  -7.032  34.970  1.00  0.00     0.001 A 
HETATM   24  C21 UNK     1      28.394  -8.421  34.909  1.00  0.00     0.001 A 
HETATM   25  C17 UNK     1      29.628  -9.042  34.722  1.00  0.00     0.012 A 
HETATM   26  C14 UNK     1      32.054  -8.887  34.405  1.00  0.00     0.015 A 
HETATM   27  C16 UNK     1      33.208  -8.115  34.280  1.00  0.00     0.038 A 
ENDBRANCH  17  18
ENDBRANCH  15  17
ENDBRANCH   1  15
TORSDOF 5
ENDMDL
MODEL 7
REMARK VINA RESULT:      -9.3     13.116     15.497
REMARK  5 active torsions:
REMARK  status: ('A' for Active; 'I' for Inactive)
REMARK    1  A    between atoms: C19_24  and  O2_2 
REMARK    2  A    between atoms: C6_11  and  O2_2 
REMARK    3  A    between atoms: C12_17  and  O3_3 
REMARK    4  A    between atoms: C22_27  and  O3_3 
REMARK    5  A    between atoms: C19_24  and  C22_27 
ROOT
HETATM    1  C19 UNK     1      29.102  -6.532  39.034  1.00  0.00     0.287 C 
ENDROOT
BRANCH   1   2
HETATM    2  O2  UNK     1      28.558  -7.016  37.807  1.00  0.00    -0.341 OA
BRANCH   2   3
HETATM    3  C6  UNK     1      29.411  -7.128  36.752  1.00  0.00     0.072 A 
HETATM    4  C7  UNK     1      29.150  -6.450  35.566  1.00  0.00     0.075 A 
HETATM    5  C2  UNK     1      30.038  -6.579  34.497  1.00  0.00     0.092 A 
HETATM    6  C1  UNK     1      31.187  -7.369  34.575  1.00  0.00     0.004 A 
HETATM    7  O1  UNK     1      29.720  -5.868  33.324  1.00  0.00    -0.275 OA
HETATM    8  C3  UNK     1      32.066  -7.446  33.400  1.00  0.00    -0.043 A 
HETATM    9  C4  UNK     1      31.432  -8.044  35.777  1.00  0.00     0.017 A 
HETATM   10  C10 UNK     1      31.738  -6.759  32.297  1.00  0.00     0.090 A 
HETATM   11  C13 UNK     1      33.308  -8.286  33.451  1.00  0.00     0.049 C 
HETATM   12  C18 UNK     1      30.531  -5.922  32.201  1.00  0.00     0.288 A 
HETATM   13  O4  UNK     1      30.263  -5.307  31.175  1.00  0.00    -0.260 OA
HETATM   14  C9  UNK     1      30.551  -7.924  36.858  1.00  0.00     0.038 A 
ENDBRANCH   2   3
ENDBRANCH   1   2
BRANCH   1  15
HETATM   15  C22 UNK     1      29.026  -5.028  39.039  1.00  0.00     0.288 C 
HETATM   16  O5  UNK     1      28.022  -4.373  38.791  1.00  0.00    -0.262 OA
BRANCH  15  17
HETATM   17  O3  UNK     1      30.283  -4.531  39.375  1.00  0.00    -0.277 OA
BRANCH  17  18
HETATM   18  C12 UNK     1      31.173  -4.533  38.300  1.00  0.00     0.080 A 
HETATM   19  C11 UNK     1      32.297  -5.326  38.373  1.00  0.00     0.049 A 
HETATM   20  C5  UNK     1      33.202  -5.339  37.300  1.00  0.00    -0.023 A 
HETATM   21  C15 UNK     1      34.362  -6.131  37.328  1.00  0.00     0.012 A 
HETATM   22  C8  UNK     1      32.940  -4.537  36.163  1.00  0.00    -0.026 A 
HETATM   23  C20 UNK     1      35.251  -6.132  36.253  1.00  0.00     0.001 A 
HETATM   24  C21 UNK     1      34.993  -5.343  35.136  1.00  0.00     0.001 A 
HETATM   25  C17 UNK     1      33.846  -4.551  35.089  1.00  0.00     0.012 A 
HETATM   26  C14 UNK     1      31.780  -3.746  36.134  1.00  0.00     0.015 A 
HETATM   27  C16 UNK     1      30.892  -3.744  37.209  1.00  0.00     0.038 A 
ENDBRANCH  17  18
ENDBRANCH  15  17
ENDBRANCH   1  15
TORSDOF 5
ENDMDL
MODEL 8
REMARK VINA RESULT:      -9.3     12.296     14.856
REMARK  5 active torsions:
REMARK  status: ('A' for Active; 'I' for Inactive)
REMARK    1  A    between atoms: C19_24  and  O2_2 
REMARK    2  A    between atoms: C6_11  and  O2_2 
REMARK    3  A    between atoms: C12_17  and  O3_3 
REMARK    4  A    between atoms: C22_27  and  O3_3 
REMARK    5  A    between atoms: C19_24  and  C22_27 
ROOT
HETATM    1  C19 UNK     1      32.463  -3.595  36.417  1.00  0.00     0.287 C 
ENDROOT
BRANCH   1   2
HETATM    2  O2  UNK     1      32.565  -4.365  37.614  1.00  0.00    -0.341 OA
BRANCH   2   3
HETATM    3  C6  UNK     1      31.528  -5.197  37.906  1.00  0.00     0.072 A 
HETATM    4  C7  UNK     1      30.234  -4.695  37.995  1.00  0.00     0.075 A 
HETATM    5  C2  UNK     1      29.185  -5.566  38.296  1.00  0.00     0.092 A 
HETATM    6  C1  UNK     1      29.388  -6.930  38.512  1.00  0.00     0.004 A 
HETATM    7  O1  UNK     1      27.897  -5.000  38.371  1.00  0.00    -0.275 OA
HETATM    8  C3  UNK     1      28.225  -7.773  38.823  1.00  0.00    -0.043 A 
HETATM    9  C4  UNK     1      30.698  -7.415  38.419  1.00  0.00     0.017 A 
HETATM   10  C10 UNK     1      27.012  -7.207  38.888  1.00  0.00     0.090 A 
HETATM   11  C13 UNK     1      28.409  -9.243  39.061  1.00  0.00     0.049 C 
HETATM   12  C18 UNK     1      26.782  -5.771  38.662  1.00  0.00     0.288 A 
HETATM   13  O4  UNK     1      25.657  -5.287  38.730  1.00  0.00    -0.260 OA
HETATM   14  C9  UNK     1      31.760  -6.555  38.118  1.00  0.00     0.038 A 
ENDBRANCH   2   3
ENDBRANCH   1   2
BRANCH   1  15
HETATM   15  C22 UNK     1      33.283  -4.259  35.342  1.00  0.00     0.288 C 
HETATM   16  O5  UNK     1      34.494  -4.431  35.385  1.00  0.00    -0.262 OA
BRANCH  15  17
HETATM   17  O3  UNK     1      32.425  -4.636  34.312  1.00  0.00    -0.277 OA
BRANCH  17  18
HETATM   18  C12 UNK     1      31.842  -5.887  34.521  1.00  0.00     0.080 A 
HETATM   19  C11 UNK     1      30.472  -5.967  34.643  1.00  0.00     0.049 A 
HETATM   20  C5  UNK     1      29.871  -7.219  34.853  1.00  0.00    -0.023 A 
HETATM   21  C15 UNK     1      28.478  -7.350  34.983  1.00  0.00     0.012 A 
HETATM   22  C8  UNK     1      30.685  -8.373  34.935  1.00  0.00    -0.026 A 
HETATM   23  C20 UNK     1      27.897  -8.601  35.191  1.00  0.00     0.001 A 
HETATM   24  C21 UNK     1      28.699  -9.736  35.273  1.00  0.00     0.001 A 
HETATM   25  C17 UNK     1      30.084  -9.625  35.146  1.00  0.00     0.012 A 
HETATM   26  C14 UNK     1      32.078  -8.241  34.805  1.00  0.00     0.015 A 
HETATM   27  C16 UNK     1      32.658  -6.991  34.597  1.00  0.00     0.038 A 
ENDBRANCH  17  18
ENDBRANCH  15  17
ENDBRANCH   1  15
TORSDOF 5
ENDMDL
MODEL 9
REMARK VINA RESULT:      -9.3      1.520      2.279
REMARK  5 active torsions:
REMARK  status: ('A' for Active; 'I' for Inactive)
REMARK    1  A    between atoms: C19_24  and  O2_2 
REMARK    2  A    between atoms: C6_11  and  O2_2 
REMARK    3  A    between atoms: C12_17  and  O3_3 
REMARK    4  A    between atoms: C22_27  and  O3_3 
REMARK    5  A    between atoms: C19_24  and  C22_27 
ROOT
HETATM    1  C19 UNK     1      19.285   1.837  31.126  1.00  0.00     0.287 C 
ENDROOT
BRANCH   1   2
HETATM    2  O2  UNK     1      18.627   0.655  31.582  1.00  0.00    -0.341 OA
BRANCH   2   3
HETATM    3  C6  UNK     1      18.488   0.503  32.927  1.00  0.00     0.072 A 
HETATM    4  C7  UNK     1      18.840  -0.698  33.534  1.00  0.00     0.075 A 
HETATM    5  C2  UNK     1      18.689  -0.833  34.916  1.00  0.00     0.092 A 
HETATM    6  C1  UNK     1      18.196   0.199  35.716  1.00  0.00     0.004 A 
HETATM    7  O1  UNK     1      19.063  -2.072  35.473  1.00  0.00    -0.275 OA
HETATM    8  C3  UNK     1      18.073  -0.031  37.161  1.00  0.00    -0.043 A 
HETATM    9  C4  UNK     1      17.848   1.400  35.085  1.00  0.00     0.017 A 
HETATM   10  C10 UNK     1      18.435  -1.219  37.663  1.00  0.00     0.090 A 
HETATM   11  C13 UNK     1      17.545   1.058  38.049  1.00  0.00     0.049 C 
HETATM   12  C18 UNK     1      18.957  -2.317  36.833  1.00  0.00     0.288 A 
HETATM   13  O4  UNK     1      19.279  -3.392  37.327  1.00  0.00    -0.260 OA
HETATM   14  C9  UNK     1      17.993   1.551  33.702  1.00  0.00     0.038 A 
ENDBRANCH   2   3
ENDBRANCH   1   2
BRANCH   1  15
HETATM   15  C22 UNK     1      18.268   2.738  30.475  1.00  0.00     0.288 C 
HETATM   16  O5  UNK     1      17.073   2.495  30.375  1.00  0.00    -0.262 OA
BRANCH  15  17
HETATM   17  O3  UNK     1      18.927   3.878  30.021  1.00  0.00    -0.277 OA
BRANCH  17  18
HETATM   18  C12 UNK     1      19.107   4.836  31.020  1.00  0.00     0.080 A 
HETATM   19  C11 UNK     1      18.048   5.133  31.851  1.00  0.00     0.049 A 
HETATM   20  C5  UNK     1      18.214   6.093  32.861  1.00  0.00    -0.023 A 
HETATM   21  C15 UNK     1      17.164   6.430  33.732  1.00  0.00     0.012 A 
HETATM   22  C8  UNK     1      19.466   6.737  33.006  1.00  0.00    -0.026 A 
HETATM   23  C20 UNK     1      17.346   7.387  34.731  1.00  0.00     0.001 A 
HETATM   24  C21 UNK     1      18.577   8.020  34.872  1.00  0.00     0.001 A 
HETATM   25  C17 UNK     1      19.631   7.699  34.017  1.00  0.00     0.012 A 
HETATM   26  C14 UNK     1      20.516   6.401  32.136  1.00  0.00     0.015 A 
HETATM   27  C16 UNK     1      20.334   5.445  31.137  1.00  0.00     0.038 A 
ENDBRANCH  17  18
ENDBRANCH  15  17
ENDBRANCH   1  15
TORSDOF 5
ENDMDL
MODEL 10
REMARK VINA RESULT:      -9.3     13.400     16.371
REMARK  5 active torsions:
REMARK  status: ('A' for Active; 'I' for Inactive)
REMARK    1  A    between atoms: C19_24  and  O2_2 
REMARK    2  A    between atoms: C6_11  and  O2_2 
REMARK    3  A    between atoms: C12_17  and  O3_3 
REMARK    4  A    between atoms: C22_27  and  O3_3 
REMARK    5  A    between atoms: C19_24  and  C22_27 
ROOT
HETATM    1  C19 UNK     1      34.752  -5.080  34.158  1.00  0.00     0.287 C 
ENDROOT
BRANCH   1   2
HETATM    2  O2  UNK     1      33.814  -4.099  34.602  1.00  0.00    -0.341 OA
BRANCH   2   3
HETATM    3  C6  UNK     1      32.668  -4.554  35.177  1.00  0.00     0.072 A 
HETATM    4  C7  UNK     1      32.291  -4.101  36.438  1.00  0.00     0.075 A 
HETATM    5  C2  UNK     1      31.111  -4.581  37.009  1.00  0.00     0.092 A 
HETATM    6  C1  UNK     1      30.290  -5.504  36.359  1.00  0.00     0.004 A 
HETATM    7  O1  UNK     1      30.782  -4.086  38.286  1.00  0.00    -0.275 OA
HETATM    8  C3  UNK     1      29.066  -5.953  37.035  1.00  0.00    -0.043 A 
HETATM    9  C4  UNK     1      30.687  -5.947  35.091  1.00  0.00     0.017 A 
HETATM   10  C10 UNK     1      28.779  -5.466  38.250  1.00  0.00     0.090 A 
HETATM   11  C13 UNK     1      28.162  -6.945  36.364  1.00  0.00     0.049 C 
HETATM   12  C18 UNK     1      29.634  -4.492  38.948  1.00  0.00     0.288 A 
HETATM   13  O4  UNK     1      29.340  -4.067  40.060  1.00  0.00    -0.260 OA
HETATM   14  C9  UNK     1      31.867  -5.475  34.505  1.00  0.00     0.038 A 
ENDBRANCH   2   3
ENDBRANCH   1   2
BRANCH   1  15
HETATM   15  C22 UNK     1      35.351  -5.758  35.362  1.00  0.00     0.288 C 
HETATM   16  O5  UNK     1      35.698  -5.191  36.390  1.00  0.00    -0.262 OA
BRANCH  15  17
HETATM   17  O3  UNK     1      35.430  -7.123  35.096  1.00  0.00    -0.277 OA
BRANCH  17  18
HETATM   18  C12 UNK     1      34.268  -7.813  35.445  1.00  0.00     0.080 A 
HETATM   19  C11 UNK     1      33.746  -7.634  36.708  1.00  0.00     0.049 A 
HETATM   20  C5  UNK     1      32.577  -8.320  37.074  1.00  0.00    -0.023 A 
HETATM   21  C15 UNK     1      32.008  -8.169  38.350  1.00  0.00     0.012 A 
HETATM   22  C8  UNK     1      31.958  -9.182  36.138  1.00  0.00    -0.026 A 
HETATM   23  C20 UNK     1      30.846  -8.859  38.697  1.00  0.00     0.001 A 
HETATM   24  C21 UNK     1      30.238  -9.708  37.776  1.00  0.00     0.001 A 
HETATM   25  C17 UNK     1      30.789  -9.869  36.505  1.00  0.00     0.012 A 
HETATM   26  C14 UNK     1      32.527  -9.333  34.863  1.00  0.00     0.015 A 
HETATM   27  C16 UNK     1      33.689  -8.644  34.516  1.00  0.00     0.038 A 
ENDBRANCH  17  18
ENDBRANCH  15  17
ENDBRANCH   1  15
TORSDOF 5
ENDMDL
