MODEL 1
REMARK VINA RESULT:      -8.9      0.000      0.000
REMARK  3 active torsions:
REMARK  status: ('A' for Active; 'I' for Inactive)
REMARK    1  A    between atoms: C4_8  and  O2_2 
REMARK    2  A    between atoms: C9_13  and  O4_4 
REMARK    3  A    between atoms: C3_7  and  C5_9 
ROOT
HETATM    1  O1  UNK     1      18.900  -0.239  32.965  1.00  0.00    -0.306 OA
HETATM    2  O3  UNK     1      18.850   2.816  30.269  1.00  0.00    -0.284 OA
HETATM    3  C1  UNK     1      19.415   0.575  30.737  1.00  0.00     0.051 A 
HETATM    4  C2  UNK     1      19.405  -0.427  31.705  1.00  0.00     0.093 A 
HETATM    5  C3  UNK     1      18.366   1.000  33.285  1.00  0.00     0.123 A 
HETATM    6  C4  UNK     1      18.324   2.052  32.447  1.00  0.00     0.152 A 
HETATM    7  C6  UNK     1      18.863   1.896  31.074  1.00  0.00     0.220 A 
HETATM    8  C7  UNK     1      19.945   0.326  29.468  1.00  0.00     0.021 A 
HETATM    9  C8  UNK     1      19.926  -1.688  31.409  1.00  0.00     0.074 A 
HETATM   10  C9  UNK     1      20.454  -1.940  30.143  1.00  0.00     0.068 A 
HETATM   11  C10 UNK     1      20.464  -0.936  29.175  1.00  0.00     0.037 A 
ENDROOT
BRANCH   5  12
HETATM   12  C5  UNK     1      17.860   1.068  34.667  1.00  0.00     0.001 A 
HETATM   13  C11 UNK     1      16.619   0.515  34.984  1.00  0.00     0.014 A 
HETATM   14  C13 UNK     1      16.139   0.579  36.292  1.00  0.00     0.001 A 
HETATM   15  C15 UNK     1      16.901   1.196  37.285  1.00  0.00     0.000 A 
HETATM   16  C14 UNK     1      18.142   1.748  36.969  1.00  0.00     0.001 A 
HETATM   17  C12 UNK     1      18.622   1.685  35.660  1.00  0.00     0.014 A 
ENDBRANCH   5  12
BRANCH   6  18
HETATM   18  O2  UNK     1      17.815   3.281  32.809  1.00  0.00    -0.355 OA
HETATM   19  H9  UNK     1      17.286   3.646  32.082  1.00  0.00     0.218 HD
ENDBRANCH   6  18
BRANCH  10  20
HETATM   20  O4  UNK     1      20.963  -3.170  29.852  1.00  0.00    -0.361 OA
HETATM   21  H10 UNK     1      20.290  -3.844  30.053  1.00  0.00     0.217 HD
ENDBRANCH  10  20
TORSDOF 3
ENDMDL
MODEL 2
REMARK VINA RESULT:      -8.3     23.766     25.960
REMARK  3 active torsions:
REMARK  status: ('A' for Active; 'I' for Inactive)
REMARK    1  A    between atoms: C4_8  and  O2_2 
REMARK    2  A    between atoms: C9_13  and  O4_4 
REMARK    3  A    between atoms: C3_7  and  C5_9 
ROOT
HETATM    1  O1  UNK     1      13.266   7.572   8.479  1.00  0.00    -0.306 OA
HETATM    2  O3  UNK     1      15.242   4.238   9.735  1.00  0.00    -0.284 OA
HETATM    3  C1  UNK     1      15.227   6.585   9.515  1.00  0.00     0.051 A 
HETATM    4  C2  UNK     1      14.501   7.685   9.062  1.00  0.00     0.093 A 
HETATM    5  C3  UNK     1      12.711   6.309   8.344  1.00  0.00     0.123 A 
HETATM    6  C4  UNK     1      13.310   5.168   8.730  1.00  0.00     0.152 A 
HETATM    7  C6  UNK     1      14.650   5.241   9.363  1.00  0.00     0.220 A 
HETATM    8  C7  UNK     1      16.483   6.761  10.101  1.00  0.00     0.021 A 
HETATM    9  C8  UNK     1      15.028   8.970   9.194  1.00  0.00     0.074 A 
HETATM   10  C9  UNK     1      16.282   9.150   9.779  1.00  0.00     0.068 A 
HETATM   11  C10 UNK     1      17.007   8.047  10.232  1.00  0.00     0.037 A 
ENDROOT
BRANCH   5  12
HETATM   12  C5  UNK     1      11.385   6.329   7.702  1.00  0.00     0.001 A 
HETATM   13  C11 UNK     1      11.280   6.242   6.313  1.00  0.00     0.014 A 
HETATM   14  C13 UNK     1      10.026   6.261   5.705  1.00  0.00     0.001 A 
HETATM   15  C15 UNK     1       8.874   6.367   6.485  1.00  0.00     0.000 A 
HETATM   16  C14 UNK     1       8.977   6.454   7.874  1.00  0.00     0.001 A 
HETATM   17  C12 UNK     1      10.233   6.435   8.482  1.00  0.00     0.014 A 
ENDBRANCH   5  12
BRANCH   6  18
HETATM   18  O2  UNK     1      12.743   3.924   8.552  1.00  0.00    -0.355 OA
HETATM   19  H9  UNK     1      13.185   3.462   7.823  1.00  0.00     0.218 HD
ENDBRANCH   6  18
BRANCH  10  20
HETATM   20  O4  UNK     1      16.798  10.403   9.908  1.00  0.00    -0.361 OA
HETATM   21  H10 UNK     1      16.228  10.918  10.505  1.00  0.00     0.217 HD
ENDBRANCH  10  20
TORSDOF 3
ENDMDL
MODEL 3
REMARK VINA RESULT:      -8.2      1.690      3.095
REMARK  3 active torsions:
REMARK  status: ('A' for Active; 'I' for Inactive)
REMARK    1  A    between atoms: C4_8  and  O2_2 
REMARK    2  A    between atoms: C9_13  and  O4_4 
REMARK    3  A    between atoms: C3_7  and  C5_9 
ROOT
HETATM    1  O1  UNK     1      18.615   0.109  32.932  1.00  0.00    -0.306 OA
HETATM    2  O3  UNK     1      20.713  -3.360  33.346  1.00  0.00    -0.284 OA
HETATM    3  C1  UNK     1      19.997  -1.617  31.929  1.00  0.00     0.051 A 
HETATM    4  C2  UNK     1      19.261  -0.436  31.853  1.00  0.00     0.093 A 
HETATM    5  C3  UNK     1      18.708  -0.539  34.155  1.00  0.00     0.123 A 
HETATM    6  C4  UNK     1      19.377  -1.688  34.359  1.00  0.00     0.152 A 
HETATM    7  C6  UNK     1      20.088  -2.317  33.219  1.00  0.00     0.220 A 
HETATM    8  C7  UNK     1      20.634  -2.126  30.794  1.00  0.00     0.021 A 
HETATM    9  C8  UNK     1      19.159   0.245  30.639  1.00  0.00     0.074 A 
HETATM   10  C9  UNK     1      19.794  -0.260  29.505  1.00  0.00     0.068 A 
HETATM   11  C10 UNK     1      20.530  -1.443  29.582  1.00  0.00     0.037 A 
ENDROOT
BRANCH   5  12
HETATM   12  C5  UNK     1      17.970   0.150  35.228  1.00  0.00     0.001 A 
HETATM   13  C11 UNK     1      16.605  -0.088  35.399  1.00  0.00     0.014 A 
HETATM   14  C13 UNK     1      15.905   0.564  36.414  1.00  0.00     0.001 A 
HETATM   15  C15 UNK     1      16.570   1.453  37.259  1.00  0.00     0.000 A 
HETATM   16  C14 UNK     1      17.934   1.690  37.090  1.00  0.00     0.001 A 
HETATM   17  C12 UNK     1      18.634   1.038  36.073  1.00  0.00     0.014 A 
ENDBRANCH   5  12
BRANCH   6  18
HETATM   18  O2  UNK     1      19.422  -2.324  35.582  1.00  0.00    -0.355 OA
HETATM   19  H9  UNK     1      20.339  -2.375  35.893  1.00  0.00     0.218 HD
ENDBRANCH   6  18
BRANCH  10  20
HETATM   20  O4  UNK     1      19.695   0.403  28.319  1.00  0.00    -0.361 OA
HETATM   21  H10 UNK     1      18.863   0.147  27.884  1.00  0.00     0.217 HD
ENDBRANCH  10  20
TORSDOF 3
ENDMDL
MODEL 4
REMARK VINA RESULT:      -8.2     12.878     16.742
REMARK  3 active torsions:
REMARK  status: ('A' for Active; 'I' for Inactive)
REMARK    1  A    between atoms: C4_8  and  O2_2 
REMARK    2  A    between atoms: C9_13  and  O4_4 
REMARK    3  A    between atoms: C3_7  and  C5_9 
ROOT
HETATM    1  O1  UNK     1      19.019  -0.949  17.695  1.00  0.00    -0.306 OA
HETATM    2  O3  UNK     1      19.373   2.353  15.333  1.00  0.00    -0.284 OA
HETATM    3  C1  UNK     1      19.156   1.468  17.507  1.00  0.00     0.051 A 
HETATM    4  C2  UNK     1      19.035   0.300  18.259  1.00  0.00     0.093 A 
HETATM    5  C3  UNK     1      19.139  -1.054  16.318  1.00  0.00     0.123 A 
HETATM    6  C4  UNK     1      19.252  -0.008  15.480  1.00  0.00     0.152 A 
HETATM    7  C6  UNK     1      19.270   1.364  16.045  1.00  0.00     0.220 A 
HETATM    8  C7  UNK     1      19.166   2.715  18.138  1.00  0.00     0.021 A 
HETATM    9  C8  UNK     1      18.924   0.373  19.648  1.00  0.00     0.074 A 
HETATM   10  C9  UNK     1      18.933   1.616  20.281  1.00  0.00     0.068 A 
HETATM   11  C10 UNK     1      19.054   2.785  19.527  1.00  0.00     0.037 A 
ENDROOT
BRANCH   5  12
HETATM   12  C5  UNK     1      19.106  -2.449  15.843  1.00  0.00     0.001 A 
HETATM   13  C11 UNK     1      20.277  -3.207  15.824  1.00  0.00     0.014 A 
HETATM   14  C13 UNK     1      20.247  -4.527  15.374  1.00  0.00     0.001 A 
HETATM   15  C15 UNK     1      19.045  -5.090  14.944  1.00  0.00     0.000 A 
HETATM   16  C14 UNK     1      17.874  -4.332  14.963  1.00  0.00     0.001 A 
HETATM   17  C12 UNK     1      17.905  -3.011  15.412  1.00  0.00     0.014 A 
ENDBRANCH   5  12
BRANCH   6  18
HETATM   18  O2  UNK     1      19.338  -0.146  14.111  1.00  0.00    -0.355 OA
HETATM   19  H9  UNK     1      19.423  -1.084  13.879  1.00  0.00     0.218 HD
ENDBRANCH   6  18
BRANCH  10  20
HETATM   20  O4  UNK     1      18.824   1.690  21.636  1.00  0.00    -0.361 OA
HETATM   21  H10 UNK     1      19.549   2.240  21.980  1.00  0.00     0.217 HD
ENDBRANCH  10  20
TORSDOF 3
ENDMDL
MODEL 5
REMARK VINA RESULT:      -8.1      3.197      4.260
REMARK  3 active torsions:
REMARK  status: ('A' for Active; 'I' for Inactive)
REMARK    1  A    between atoms: C4_8  and  O2_2 
REMARK    2  A    between atoms: C9_13  and  O4_4 
REMARK    3  A    between atoms: C3_7  and  C5_9 
ROOT
HETATM    1  O1  UNK     1      19.541   1.356  31.298  1.00  0.00    -0.306 OA
HETATM    2  O3  UNK     1      18.831  -0.066  27.546  1.00  0.00    -0.284 OA
HETATM    3  C1  UNK     1      19.640  -0.486  29.720  1.00  0.00     0.051 A 
HETATM    4  C2  UNK     1      19.860   0.061  30.983  1.00  0.00     0.093 A 
HETATM    5  C3  UNK     1      18.964   2.152  30.320  1.00  0.00     0.123 A 
HETATM    6  C4  UNK     1      18.709   1.749  29.062  1.00  0.00     0.152 A 
HETATM    7  C6  UNK     1      19.041   0.356  28.674  1.00  0.00     0.220 A 
HETATM    8  C7  UNK     1      19.987  -1.814  29.456  1.00  0.00     0.021 A 
HETATM    9  C8  UNK     1      20.428  -0.718  31.991  1.00  0.00     0.074 A 
HETATM   10  C9  UNK     1      20.775  -2.044  31.731  1.00  0.00     0.068 A 
HETATM   11  C10 UNK     1      20.555  -2.591  30.467  1.00  0.00     0.037 A 
ENDROOT
BRANCH   5  12
HETATM   12  C5  UNK     1      18.673   3.518  30.789  1.00  0.00     0.001 A 
HETATM   13  C11 UNK     1      19.128   4.617  30.060  1.00  0.00     0.014 A 
HETATM   14  C13 UNK     1      18.853   5.911  30.504  1.00  0.00     0.001 A 
HETATM   15  C15 UNK     1      18.121   6.106  31.675  1.00  0.00     0.000 A 
HETATM   16  C14 UNK     1      17.664   5.007  32.403  1.00  0.00     0.001 A 
HETATM   17  C12 UNK     1      17.941   3.713  31.960  1.00  0.00     0.014 A 
ENDBRANCH   5  12
BRANCH   6  18
HETATM   18  O2  UNK     1      18.164   2.577  28.104  1.00  0.00    -0.355 OA
HETATM   19  H9  UNK     1      17.598   2.063  27.507  1.00  0.00     0.218 HD
ENDBRANCH   6  18
BRANCH  10  20
HETATM   20  O4  UNK     1      21.330  -2.807  32.714  1.00  0.00    -0.361 OA
HETATM   21  H10 UNK     1      20.618  -3.190  33.255  1.00  0.00     0.217 HD
ENDBRANCH  10  20
TORSDOF 3
ENDMDL
MODEL 6
REMARK VINA RESULT:      -8.0      2.427      6.734
REMARK  3 active torsions:
REMARK  status: ('A' for Active; 'I' for Inactive)
REMARK    1  A    between atoms: C4_8  and  O2_2 
REMARK    2  A    between atoms: C9_13  and  O4_4 
REMARK    3  A    between atoms: C3_7  and  C5_9 
ROOT
HETATM    1  O1  UNK     1      18.699  -0.509  33.472  1.00  0.00    -0.306 OA
HETATM    2  O3  UNK     1      20.553  -3.352  35.727  1.00  0.00    -0.284 OA
HETATM    3  C1  UNK     1      18.990  -1.589  35.626  1.00  0.00     0.051 A 
HETATM    4  C2  UNK     1      18.394  -0.637  34.802  1.00  0.00     0.093 A 
HETATM    5  C3  UNK     1      19.633  -1.374  32.921  1.00  0.00     0.123 A 
HETATM    6  C4  UNK     1      20.286  -2.329  33.609  1.00  0.00     0.152 A 
HETATM    7  C6  UNK     1      19.992  -2.501  35.052  1.00  0.00     0.220 A 
HETATM    8  C7  UNK     1      18.640  -1.672  36.976  1.00  0.00     0.021 A 
HETATM    9  C8  UNK     1      17.443   0.240  35.323  1.00  0.00     0.074 A 
HETATM   10  C9  UNK     1      17.091   0.160  36.671  1.00  0.00     0.068 A 
HETATM   11  C10 UNK     1      17.688  -0.794  37.496  1.00  0.00     0.037 A 
ENDROOT
BRANCH   5  12
HETATM   12  C5  UNK     1      19.868  -1.129  31.487  1.00  0.00     0.001 A 
HETATM   13  C11 UNK     1      19.792   0.168  30.979  1.00  0.00     0.014 A 
HETATM   14  C13 UNK     1      20.013   0.400  29.622  1.00  0.00     0.001 A 
HETATM   15  C15 UNK     1      20.313  -0.665  28.772  1.00  0.00     0.000 A 
HETATM   16  C14 UNK     1      20.392  -1.962  29.280  1.00  0.00     0.001 A 
HETATM   17  C12 UNK     1      20.168  -2.194  30.638  1.00  0.00     0.014 A 
ENDBRANCH   5  12
BRANCH   6  18
HETATM   18  O2  UNK     1      21.234  -3.151  33.037  1.00  0.00    -0.355 OA
HETATM   19  H9  UNK     1      21.011  -4.079  33.208  1.00  0.00     0.218 HD
ENDBRANCH   6  18
BRANCH  10  20
HETATM   20  O4  UNK     1      16.162   1.015  37.183  1.00  0.00    -0.361 OA
HETATM   21  H10 UNK     1      16.581   1.880  37.334  1.00  0.00     0.217 HD
ENDBRANCH  10  20
TORSDOF 3
ENDMDL
MODEL 7
REMARK VINA RESULT:      -7.6     23.935     26.682
REMARK  3 active torsions:
REMARK  status: ('A' for Active; 'I' for Inactive)
REMARK    1  A    between atoms: C4_8  and  O2_2 
REMARK    2  A    between atoms: C9_13  and  O4_4 
REMARK    3  A    between atoms: C3_7  and  C5_9 
ROOT
HETATM    1  O1  UNK     1      11.489   7.712   8.999  1.00  0.00    -0.306 OA
HETATM    2  O3  UNK     1      11.620   5.958   5.324  1.00  0.00    -0.284 OA
HETATM    3  C1  UNK     1      10.303   6.764   7.105  1.00  0.00     0.051 A 
HETATM    4  C2  UNK     1      10.326   7.363   8.363  1.00  0.00     0.093 A 
HETATM    5  C3  UNK     1      12.693   7.466   8.358  1.00  0.00     0.123 A 
HETATM    6  C4  UNK     1      12.809   6.885   7.150  1.00  0.00     0.152 A 
HETATM    7  C6  UNK     1      11.577   6.488   6.425  1.00  0.00     0.220 A 
HETATM    8  C7  UNK     1       9.086   6.430   6.505  1.00  0.00     0.021 A 
HETATM    9  C8  UNK     1       9.130   7.634   9.029  1.00  0.00     0.074 A 
HETATM   10  C9  UNK     1       7.913   7.302   8.433  1.00  0.00     0.068 A 
HETATM   11  C10 UNK     1       7.892   6.701   7.174  1.00  0.00     0.037 A 
ENDROOT
BRANCH   5  12
HETATM   12  C5  UNK     1      13.863   7.887   9.149  1.00  0.00     0.001 A 
HETATM   13  C11 UNK     1      14.420   9.151   8.954  1.00  0.00     0.014 A 
HETATM   14  C13 UNK     1      15.527   9.549   9.703  1.00  0.00     0.001 A 
HETATM   15  C15 UNK     1      16.077   8.684  10.648  1.00  0.00     0.000 A 
HETATM   16  C14 UNK     1      15.520   7.420  10.845  1.00  0.00     0.001 A 
HETATM   17  C12 UNK     1      14.413   7.021  10.095  1.00  0.00     0.014 A 
ENDBRANCH   5  12
BRANCH   6  18
HETATM   18  O2  UNK     1      14.025   6.626   6.553  1.00  0.00    -0.355 OA
HETATM   19  H9  UNK     1      14.201   5.673   6.565  1.00  0.00     0.218 HD
ENDBRANCH   6  18
BRANCH  10  20
HETATM   20  O4  UNK     1       6.745   7.564   9.081  1.00  0.00    -0.361 OA
HETATM   21  H10 UNK     1       6.317   6.721   9.312  1.00  0.00     0.217 HD
ENDBRANCH  10  20
TORSDOF 3
ENDMDL
MODEL 8
REMARK VINA RESULT:      -7.5      2.449      5.868
REMARK  3 active torsions:
REMARK  status: ('A' for Active; 'I' for Inactive)
REMARK    1  A    between atoms: C4_8  and  O2_2 
REMARK    2  A    between atoms: C9_13  and  O4_4 
REMARK    3  A    between atoms: C3_7  and  C5_9 
ROOT
HETATM    1  O1  UNK     1      19.451  -1.391  33.655  1.00  0.00    -0.306 OA
HETATM    2  O3  UNK     1      17.286   1.668  35.254  1.00  0.00    -0.284 OA
HETATM    3  C1  UNK     1      18.387  -0.389  35.593  1.00  0.00     0.051 A 
HETATM    4  C2  UNK     1      19.122  -1.405  34.985  1.00  0.00     0.093 A 
HETATM    5  C3  UNK     1      19.044  -0.313  32.884  1.00  0.00     0.123 A 
HETATM    6  C4  UNK     1      18.322   0.725  33.345  1.00  0.00     0.152 A 
HETATM    7  C6  UNK     1      17.939   0.751  34.778  1.00  0.00     0.220 A 
HETATM    8  C7  UNK     1      18.080  -0.458  36.955  1.00  0.00     0.021 A 
HETATM    9  C8  UNK     1      19.556  -2.498  35.737  1.00  0.00     0.074 A 
HETATM   10  C9  UNK     1      19.252  -2.569  37.097  1.00  0.00     0.068 A 
HETATM   11  C10 UNK     1      18.515  -1.551  37.704  1.00  0.00     0.037 A 
ENDROOT
BRANCH   5  12
HETATM   12  C5  UNK     1      19.461  -0.423  31.475  1.00  0.00     0.001 A 
HETATM   13  C11 UNK     1      20.007  -1.616  31.001  1.00  0.00     0.014 A 
HETATM   14  C13 UNK     1      20.403  -1.721  29.667  1.00  0.00     0.001 A 
HETATM   15  C15 UNK     1      20.252  -0.632  28.808  1.00  0.00     0.000 A 
HETATM   16  C14 UNK     1      19.705   0.560  29.281  1.00  0.00     0.001 A 
HETATM   17  C12 UNK     1      19.310   0.665  30.616  1.00  0.00     0.014 A 
ENDBRANCH   5  12
BRANCH   6  18
HETATM   18  O2  UNK     1      17.905   1.766  32.544  1.00  0.00    -0.355 OA
HETATM   19  H9  UNK     1      17.096   2.158  32.907  1.00  0.00     0.218 HD
ENDBRANCH   6  18
BRANCH  10  20
HETATM   20  O4  UNK     1      19.674  -3.634  37.832  1.00  0.00    -0.361 OA
HETATM   21  H10 UNK     1      18.896  -4.122  38.155  1.00  0.00     0.217 HD
ENDBRANCH  10  20
TORSDOF 3
ENDMDL
MODEL 9
REMARK VINA RESULT:      -7.5      2.974      4.749
REMARK  3 active torsions:
REMARK  status: ('A' for Active; 'I' for Inactive)
REMARK    1  A    between atoms: C4_8  and  O2_2 
REMARK    2  A    between atoms: C9_13  and  O4_4 
REMARK    3  A    between atoms: C3_7  and  C5_9 
ROOT
HETATM    1  O1  UNK     1      18.148   3.102  33.185  1.00  0.00    -0.306 OA
HETATM    2  O3  UNK     1      19.274   1.702  29.528  1.00  0.00    -0.284 OA
HETATM    3  C1  UNK     1      18.728   1.217  31.770  1.00  0.00     0.051 A 
HETATM    4  C2  UNK     1      18.346   1.759  32.996  1.00  0.00     0.093 A 
HETATM    5  C3  UNK     1      18.325   3.956  32.107  1.00  0.00     0.123 A 
HETATM    6  C4  UNK     1      18.702   3.562  30.877  1.00  0.00     0.152 A 
HETATM    7  C6  UNK     1      18.932   2.119  30.626  1.00  0.00     0.220 A 
HETATM    8  C7  UNK     1      18.916  -0.161  31.636  1.00  0.00     0.021 A 
HETATM    9  C8  UNK     1      18.148   0.925  34.096  1.00  0.00     0.074 A 
HETATM   10  C9  UNK     1      18.335  -0.452  33.966  1.00  0.00     0.068 A 
HETATM   11  C10 UNK     1      18.718  -0.993  32.738  1.00  0.00     0.037 A 
ENDROOT
BRANCH   5  12
HETATM   12  C5  UNK     1      18.082   5.369  32.447  1.00  0.00     0.001 A 
HETATM   13  C11 UNK     1      19.122   6.156  32.944  1.00  0.00     0.014 A 
HETATM   14  C13 UNK     1      18.892   7.493  33.266  1.00  0.00     0.001 A 
HETATM   15  C15 UNK     1      17.623   8.045  33.090  1.00  0.00     0.000 A 
HETATM   16  C14 UNK     1      16.583   7.259  32.593  1.00  0.00     0.001 A 
HETATM   17  C12 UNK     1      16.813   5.920  32.271  1.00  0.00     0.014 A 
ENDBRANCH   5  12
BRANCH   6  18
HETATM   18  O2  UNK     1      18.901   4.442  29.835  1.00  0.00    -0.355 OA
HETATM   19  H9  UNK     1      18.632   4.030  28.999  1.00  0.00     0.218 HD
ENDBRANCH   6  18
BRANCH  10  20
HETATM   20  O4  UNK     1      18.143  -1.268  35.039  1.00  0.00    -0.361 OA
HETATM   21  H10 UNK     1      18.754  -1.004  35.748  1.00  0.00     0.217 HD
ENDBRANCH  10  20
TORSDOF 3
ENDMDL
MODEL 10
REMARK VINA RESULT:      -7.4     23.882     25.974
REMARK  3 active torsions:
REMARK  status: ('A' for Active; 'I' for Inactive)
REMARK    1  A    between atoms: C4_8  and  O2_2 
REMARK    2  A    between atoms: C9_13  and  O4_4 
REMARK    3  A    between atoms: C3_7  and  C5_9 
ROOT
HETATM    1  O1  UNK     1      12.776   6.546   8.478  1.00  0.00    -0.306 OA
HETATM    2  O3  UNK     1      13.666  10.130  10.199  1.00  0.00    -0.284 OA
HETATM    3  C1  UNK     1      14.386   7.963   9.615  1.00  0.00     0.051 A 
HETATM    4  C2  UNK     1      14.019   6.760   9.015  1.00  0.00     0.093 A 
HETATM    5  C3  UNK     1      11.849   7.576   8.524  1.00  0.00     0.123 A 
HETATM    6  C4  UNK     1      12.074   8.779   9.083  1.00  0.00     0.152 A 
HETATM    7  C6  UNK     1      13.404   9.055   9.680  1.00  0.00     0.220 A 
HETATM    8  C7  UNK     1      15.669   8.123  10.146  1.00  0.00     0.021 A 
HETATM    9  C8  UNK     1      14.933   5.708   8.942  1.00  0.00     0.074 A 
HETATM   10  C9  UNK     1      16.214   5.865   9.472  1.00  0.00     0.068 A 
HETATM   11  C10 UNK     1      16.581   7.070  10.073  1.00  0.00     0.037 A 
ENDROOT
BRANCH   5  12
HETATM   12  C5  UNK     1      10.557   7.215   7.915  1.00  0.00     0.001 A 
HETATM   13  C11 UNK     1       9.386   7.282   8.671  1.00  0.00     0.014 A 
HETATM   14  C13 UNK     1       8.163   6.939   8.094  1.00  0.00     0.001 A 
HETATM   15  C15 UNK     1       8.110   6.531   6.761  1.00  0.00     0.000 A 
HETATM   16  C14 UNK     1       9.280   6.465   6.005  1.00  0.00     0.001 A 
HETATM   17  C12 UNK     1      10.504   6.807   6.582  1.00  0.00     0.014 A 
ENDBRANCH   5  12
BRANCH   6  18
HETATM   18  O2  UNK     1      11.119   9.771   9.141  1.00  0.00    -0.355 OA
HETATM   19  H9  UNK     1      10.453   9.629   8.451  1.00  0.00     0.218 HD
ENDBRANCH   6  18
BRANCH  10  20
HETATM   20  O4  UNK     1      17.108   4.840   9.403  1.00  0.00    -0.361 OA
HETATM   21  H10 UNK     1      17.095   4.354  10.245  1.00  0.00     0.217 HD
ENDBRANCH  10  20
TORSDOF 3
ENDMDL
