MODEL 1
REMARK VINA RESULT:      -9.8      0.000      0.000
REMARK  5 active torsions:
REMARK  status: ('A' for Active; 'I' for Inactive)
REMARK    1  A    between atoms: C17_22  and  O2_2 
REMARK    2  A    between atoms: C21_26  and  O2_2 
REMARK       I    between atoms: C11_16  and  N1_5 
REMARK    3  A    between atoms: C6_11  and  N1_5 
REMARK    4  A    between atoms: C1_6  and  C2_7 
REMARK    5  A    between atoms: C11_16  and  C12_17 
ROOT
HETATM    1  O1  UNK     1      18.697   0.756  32.600  1.00  0.00    -0.271 OA
HETATM    2  O4  UNK     1      17.818   2.674  33.476  1.00  0.00    -0.259 OA
HETATM    3  C12 UNK     1      18.584   2.783  31.236  1.00  0.00     0.108 A 
HETATM    4  C13 UNK     1      19.516   0.747  30.310  1.00  0.00     0.002 A 
HETATM    5  C14 UNK     1      19.141   2.148  30.198  1.00  0.00     0.037 A 
HETATM    6  C15 UNK     1      19.285   0.082  31.510  1.00  0.00     0.123 A 
HETATM    7  C16 UNK     1      18.329   2.097  32.522  1.00  0.00     0.304 A 
HETATM    8  C17 UNK     1      19.620  -1.259  31.683  1.00  0.00     0.103 A 
HETATM    9  C18 UNK     1      20.101   0.046  29.254  1.00  0.00     0.014 A 
HETATM   10  C19 UNK     1      20.202  -1.951  30.623  1.00  0.00     0.040 A 
HETATM   11  C20 UNK     1      20.443  -1.300  29.412  1.00  0.00     0.004 A 
ENDROOT
BRANCH   3  12
HETATM   12  C11 UNK     1      18.242   4.195  31.026  1.00  0.00     0.262 C 
HETATM   13  O3  UNK     1      18.477   4.725  29.942  1.00  0.00    -0.267 OA
HETATM   14  N1  UNK     1      17.666   4.767  32.152  1.00  0.00    -0.322 N 
HETATM   15  H12 UNK     1      17.557   4.135  32.925  1.00  0.00     0.169 HD
BRANCH  14  16
HETATM   16  C6  UNK     1      17.215   6.100  32.309  1.00  0.00     0.042 A 
HETATM   17  C2  UNK     1      18.048   7.055  32.868  1.00  0.00    -0.024 A 
HETATM   18  C7  UNK     1      17.586   8.364  33.013  1.00  0.00     0.010 A 
HETATM   19  C9  UNK     1      16.298   8.699  32.596  1.00  0.00     0.001 A 
HETATM   20  C10 UNK     1      15.471   7.726  32.035  1.00  0.00     0.002 A 
HETATM   21  C8  UNK     1      15.933   6.418  31.890  1.00  0.00     0.030 A 
BRANCH  17  22
HETATM   22  C1  UNK     1      19.432   6.725  33.323  1.00  0.00    -0.022 C 
HETATM   23  C3  UNK     1      19.429   5.508  34.298  1.00  0.00     0.019 C 
HETATM   24  C4  UNK     1      20.082   7.928  34.072  1.00  0.00     0.019 C 
HETATM   25  C5  UNK     1      20.436   6.347  32.186  1.00  0.00     0.019 C 
ENDBRANCH  17  22
ENDBRANCH  14  16
ENDBRANCH   3  12
BRANCH   8  26
HETATM   26  O2  UNK     1      19.387  -1.896  32.860  1.00  0.00    -0.349 OA
BRANCH  26  27
HETATM   27  C21 UNK     1      20.506  -2.509  33.501  1.00  0.00     0.171 C 
HETATM   28  C22 UNK     1      20.287  -2.492  35.000  1.00  0.00     0.034 C 
ENDBRANCH  26  27
ENDBRANCH   8  26
TORSDOF 5
ENDMDL
MODEL 2
REMARK VINA RESULT:      -9.2      4.937     11.400
REMARK  5 active torsions:
REMARK  status: ('A' for Active; 'I' for Inactive)
REMARK    1  A    between atoms: C17_22  and  O2_2 
REMARK    2  A    between atoms: C21_26  and  O2_2 
REMARK       I    between atoms: C11_16  and  N1_5 
REMARK    3  A    between atoms: C6_11  and  N1_5 
REMARK    4  A    between atoms: C1_6  and  C2_7 
REMARK    5  A    between atoms: C11_16  and  C12_17 
ROOT
HETATM    1  O1  UNK     1      19.554  -1.288  34.891  1.00  0.00    -0.271 OA
HETATM    2  O4  UNK     1      20.781  -3.157  34.422  1.00  0.00    -0.259 OA
HETATM    3  C12 UNK     1      19.896  -2.990  36.614  1.00  0.00     0.108 A 
HETATM    4  C13 UNK     1      18.595  -1.006  37.108  1.00  0.00     0.002 A 
HETATM    5  C14 UNK     1      19.178  -2.282  37.493  1.00  0.00     0.037 A 
HETATM    6  C15 UNK     1      18.797  -0.538  35.813  1.00  0.00     0.123 A 
HETATM    7  C16 UNK     1      20.124  -2.512  35.231  1.00  0.00     0.304 A 
HETATM    8  C17 UNK     1      18.266   0.675  35.381  1.00  0.00     0.103 A 
HETATM    9  C18 UNK     1      17.840  -0.235  37.993  1.00  0.00     0.014 A 
HETATM   10  C19 UNK     1      17.512   1.438  36.270  1.00  0.00     0.040 A 
HETATM   11  C20 UNK     1      17.301   0.985  37.574  1.00  0.00     0.004 A 
ENDROOT
BRANCH   3  12
HETATM   12  C11 UNK     1      20.443  -4.263  37.097  1.00  0.00     0.262 C 
HETATM   13  O3  UNK     1      21.655  -4.462  37.053  1.00  0.00    -0.267 OA
HETATM   14  N1  UNK     1      19.450  -5.117  37.561  1.00  0.00    -0.322 N 
HETATM   15  H12 UNK     1      18.524  -4.734  37.513  1.00  0.00     0.169 HD
BRANCH  14  16
HETATM   16  C6  UNK     1      19.611  -6.418  38.095  1.00  0.00     0.042 A 
HETATM   17  C2  UNK     1      19.061  -7.510  37.445  1.00  0.00    -0.024 A 
HETATM   18  C7  UNK     1      19.232  -8.785  37.986  1.00  0.00     0.010 A 
HETATM   19  C9  UNK     1      19.950  -8.949  39.170  1.00  0.00     0.001 A 
HETATM   20  C10 UNK     1      20.497  -7.840  39.814  1.00  0.00     0.002 A 
HETATM   21  C8  UNK     1      20.327  -6.566  39.272  1.00  0.00     0.030 A 
BRANCH  17  22
HETATM   22  C1  UNK     1      18.287  -7.363  36.175  1.00  0.00    -0.022 C 
HETATM   23  C3  UNK     1      17.630  -8.714  35.757  1.00  0.00     0.019 C 
HETATM   24  C4  UNK     1      19.207  -6.903  35.004  1.00  0.00     0.019 C 
HETATM   25  C5  UNK     1      17.118  -6.326  36.222  1.00  0.00     0.019 C 
ENDBRANCH  17  22
ENDBRANCH  14  16
ENDBRANCH   3  12
BRANCH   8  26
HETATM   26  O2  UNK     1      18.470   1.120  34.113  1.00  0.00    -0.349 OA
BRANCH  26  27
HETATM   27  C21 UNK     1      18.239   2.507  33.864  1.00  0.00     0.171 C 
HETATM   28  C22 UNK     1      18.197   2.740  32.368  1.00  0.00     0.034 C 
ENDBRANCH  26  27
ENDBRANCH   8  26
TORSDOF 5
ENDMDL
MODEL 3
REMARK VINA RESULT:      -9.0      4.164     10.450
REMARK  5 active torsions:
REMARK  status: ('A' for Active; 'I' for Inactive)
REMARK    1  A    between atoms: C17_22  and  O2_2 
REMARK    2  A    between atoms: C21_26  and  O2_2 
REMARK       I    between atoms: C11_16  and  N1_5 
REMARK    3  A    between atoms: C6_11  and  N1_5 
REMARK    4  A    between atoms: C1_6  and  C2_7 
REMARK    5  A    between atoms: C11_16  and  C12_17 
ROOT
HETATM    1  O1  UNK     1      18.991  -0.734  34.152  1.00  0.00    -0.271 OA
HETATM    2  O4  UNK     1      18.648  -0.875  36.406  1.00  0.00    -0.259 OA
HETATM    3  C12 UNK     1      19.940  -2.599  35.418  1.00  0.00     0.108 A 
HETATM    4  C13 UNK     1      20.301  -2.446  33.027  1.00  0.00     0.002 A 
HETATM    5  C14 UNK     1      20.482  -3.112  34.307  1.00  0.00     0.037 A 
HETATM    6  C15 UNK     1      19.559  -1.270  32.979  1.00  0.00     0.123 A 
HETATM    7  C16 UNK     1      19.146  -1.349  35.391  1.00  0.00     0.304 A 
HETATM    8  C17 UNK     1      19.349  -0.583  31.785  1.00  0.00     0.103 A 
HETATM    9  C18 UNK     1      20.848  -2.947  31.844  1.00  0.00     0.014 A 
HETATM   10  C19 UNK     1      19.899  -1.089  30.609  1.00  0.00     0.040 A 
HETATM   11  C20 UNK     1      20.646  -2.268  30.638  1.00  0.00     0.004 A 
ENDROOT
BRANCH   3  12
HETATM   12  C11 UNK     1      20.177  -3.343  36.660  1.00  0.00     0.262 C 
HETATM   13  O3  UNK     1      20.041  -2.779  37.745  1.00  0.00    -0.267 OA
HETATM   14  N1  UNK     1      20.548  -4.659  36.419  1.00  0.00    -0.322 N 
HETATM   15  H12 UNK     1      20.582  -4.905  35.447  1.00  0.00     0.169 HD
BRANCH  14  16
HETATM   16  C6  UNK     1      20.854  -5.659  37.375  1.00  0.00     0.042 A 
HETATM   17  C2  UNK     1      20.139  -6.846  37.394  1.00  0.00    -0.024 A 
HETATM   18  C7  UNK     1      20.457  -7.819  38.342  1.00  0.00     0.010 A 
HETATM   19  C9  UNK     1      21.483  -7.591  39.258  1.00  0.00     0.001 A 
HETATM   20  C10 UNK     1      22.192  -6.391  39.228  1.00  0.00     0.002 A 
HETATM   21  C8  UNK     1      21.876  -5.418  38.279  1.00  0.00     0.030 A 
BRANCH  17  22
HETATM   22  C1  UNK     1      19.035  -7.116  36.424  1.00  0.00    -0.022 C 
HETATM   23  C3  UNK     1      17.801  -6.206  36.707  1.00  0.00     0.019 C 
HETATM   24  C4  UNK     1      18.559  -8.598  36.510  1.00  0.00     0.019 C 
HETATM   25  C5  UNK     1      19.393  -6.878  34.921  1.00  0.00     0.019 C 
ENDBRANCH  17  22
ENDBRANCH  14  16
ENDBRANCH   3  12
BRANCH   8  26
HETATM   26  O2  UNK     1      18.623   0.565  31.752  1.00  0.00    -0.349 OA
BRANCH  26  27
HETATM   27  C21 UNK     1      18.953   1.516  30.740  1.00  0.00     0.171 C 
HETATM   28  C22 UNK     1      18.303   2.842  31.078  1.00  0.00     0.034 C 
ENDBRANCH  26  27
ENDBRANCH   8  26
TORSDOF 5
ENDMDL
MODEL 4
REMARK VINA RESULT:      -8.8      2.083      4.120
REMARK  5 active torsions:
REMARK  status: ('A' for Active; 'I' for Inactive)
REMARK    1  A    between atoms: C17_22  and  O2_2 
REMARK    2  A    between atoms: C21_26  and  O2_2 
REMARK       I    between atoms: C11_16  and  N1_5 
REMARK    3  A    between atoms: C6_11  and  N1_5 
REMARK    4  A    between atoms: C1_6  and  C2_7 
REMARK    5  A    between atoms: C11_16  and  C12_17 
ROOT
HETATM    1  O1  UNK     1      18.085   2.166  32.495  1.00  0.00    -0.271 OA
HETATM    2  O4  UNK     1      18.221   3.811  30.916  1.00  0.00    -0.259 OA
HETATM    3  C12 UNK     1      18.615   4.459  33.161  1.00  0.00     0.108 A 
HETATM    4  C13 UNK     1      18.469   2.712  34.833  1.00  0.00     0.002 A 
HETATM    5  C14 UNK     1      18.696   4.095  34.446  1.00  0.00     0.037 A 
HETATM    6  C15 UNK     1      18.168   1.777  33.847  1.00  0.00     0.123 A 
HETATM    7  C16 UNK     1      18.296   3.482  32.095  1.00  0.00     0.304 A 
HETATM    8  C17 UNK     1      17.940   0.437  34.151  1.00  0.00     0.103 A 
HETATM    9  C18 UNK     1      18.543   2.289  36.162  1.00  0.00     0.014 A 
HETATM   10  C19 UNK     1      18.017   0.023  35.479  1.00  0.00     0.040 A 
HETATM   11  C20 UNK     1      18.316   0.947  36.482  1.00  0.00     0.004 A 
ENDROOT
BRANCH   3  12
HETATM   12  C11 UNK     1      18.860   5.876  32.870  1.00  0.00     0.262 C 
HETATM   13  O3  UNK     1      19.338   6.203  31.786  1.00  0.00    -0.267 OA
HETATM   14  N1  UNK     1      18.495   6.698  33.928  1.00  0.00    -0.322 N 
HETATM   15  H12 UNK     1      18.110   6.208  34.715  1.00  0.00     0.169 HD
BRANCH  14  16
HETATM   16  C6  UNK     1      18.592   8.109  33.998  1.00  0.00     0.042 A 
HETATM   17  C2  UNK     1      17.480   8.897  33.746  1.00  0.00    -0.024 A 
HETATM   18  C7  UNK     1      17.595  10.285  33.821  1.00  0.00     0.010 A 
HETATM   19  C9  UNK     1      18.820  10.867  34.148  1.00  0.00     0.001 A 
HETATM   20  C10 UNK     1      19.930  10.061  34.399  1.00  0.00     0.002 A 
HETATM   21  C8  UNK     1      19.815   8.673  34.324  1.00  0.00     0.030 A 
BRANCH  17  22
HETATM   22  C1  UNK     1      16.156   8.300  33.394  1.00  0.00    -0.022 C 
HETATM   23  C3  UNK     1      16.155   7.754  31.933  1.00  0.00     0.019 C 
HETATM   24  C4  UNK     1      15.015   9.357  33.504  1.00  0.00     0.019 C 
HETATM   25  C5  UNK     1      15.704   7.101  34.289  1.00  0.00     0.019 C 
ENDBRANCH  17  22
ENDBRANCH  14  16
ENDBRANCH   3  12
BRANCH   8  26
HETATM   26  O2  UNK     1      17.649  -0.465  33.177  1.00  0.00    -0.349 OA
BRANCH  26  27
HETATM   27  C21 UNK     1      18.674  -1.393  32.821  1.00  0.00     0.171 C 
HETATM   28  C22 UNK     1      19.459  -0.836  31.652  1.00  0.00     0.034 C 
ENDBRANCH  26  27
ENDBRANCH   8  26
TORSDOF 5
ENDMDL
MODEL 5
REMARK VINA RESULT:      -8.7      1.227      2.628
REMARK  5 active torsions:
REMARK  status: ('A' for Active; 'I' for Inactive)
REMARK    1  A    between atoms: C17_22  and  O2_2 
REMARK    2  A    between atoms: C21_26  and  O2_2 
REMARK       I    between atoms: C11_16  and  N1_5 
REMARK    3  A    between atoms: C6_11  and  N1_5 
REMARK    4  A    between atoms: C1_6  and  C2_7 
REMARK    5  A    between atoms: C11_16  and  C12_17 
ROOT
HETATM    1  O1  UNK     1      18.771   0.773  31.151  1.00  0.00    -0.271 OA
HETATM    2  O4  UNK     1      18.654   2.425  29.577  1.00  0.00    -0.259 OA
HETATM    3  C12 UNK     1      18.280   3.072  31.825  1.00  0.00     0.108 A 
HETATM    4  C13 UNK     1      18.403   1.318  33.492  1.00  0.00     0.002 A 
HETATM    5  C14 UNK     1      18.199   2.707  33.110  1.00  0.00     0.037 A 
HETATM    6  C15 UNK     1      18.686   0.382  32.502  1.00  0.00     0.123 A 
HETATM    7  C16 UNK     1      18.579   2.094  30.755  1.00  0.00     0.304 A 
HETATM    8  C17 UNK     1      18.893  -0.963  32.801  1.00  0.00     0.103 A 
HETATM    9  C18 UNK     1      18.327   0.893  34.820  1.00  0.00     0.014 A 
HETATM   10  C19 UNK     1      18.816  -1.379  34.129  1.00  0.00     0.040 A 
HETATM   11  C20 UNK     1      18.532  -0.454  35.135  1.00  0.00     0.004 A 
ENDROOT
BRANCH   3  12
HETATM   12  C11 UNK     1      18.057   4.494  31.539  1.00  0.00     0.262 C 
HETATM   13  O3  UNK     1      18.439   4.969  30.471  1.00  0.00    -0.267 OA
HETATM   14  N1  UNK     1      17.408   5.143  32.582  1.00  0.00    -0.322 N 
HETATM   15  H12 UNK     1      17.178   4.547  33.356  1.00  0.00     0.169 HD
BRANCH  14  16
HETATM   16  C6  UNK     1      17.036   6.507  32.652  1.00  0.00     0.042 A 
HETATM   17  C2  UNK     1      17.886   7.432  33.235  1.00  0.00    -0.024 A 
HETATM   18  C7  UNK     1      17.501   8.772  33.292  1.00  0.00     0.010 A 
HETATM   19  C9  UNK     1      16.271   9.168  32.766  1.00  0.00     0.001 A 
HETATM   20  C10 UNK     1      15.425   8.224  32.184  1.00  0.00     0.002 A 
HETATM   21  C8  UNK     1      15.810   6.885  32.125  1.00  0.00     0.030 A 
BRANCH  17  22
HETATM   22  C1  UNK     1      19.208   7.036  33.806  1.00  0.00    -0.022 C 
HETATM   23  C3  UNK     1      19.771   8.146  34.745  1.00  0.00     0.019 C 
HETATM   24  C4  UNK     1      20.259   6.793  32.679  1.00  0.00     0.019 C 
HETATM   25  C5  UNK     1      19.202   5.728  34.662  1.00  0.00     0.019 C 
ENDBRANCH  17  22
ENDBRANCH  14  16
ENDBRANCH   3  12
BRANCH   8  26
HETATM   26  O2  UNK     1      19.169  -1.866  31.824  1.00  0.00    -0.349 OA
BRANCH  26  27
HETATM   27  C21 UNK     1      20.534  -2.002  31.430  1.00  0.00     0.171 C 
HETATM   28  C22 UNK     1      20.608  -2.055  29.918  1.00  0.00     0.034 C 
ENDBRANCH  26  27
ENDBRANCH   8  26
TORSDOF 5
ENDMDL
MODEL 6
REMARK VINA RESULT:      -8.6     12.684     16.145
REMARK  5 active torsions:
REMARK  status: ('A' for Active; 'I' for Inactive)
REMARK    1  A    between atoms: C17_22  and  O2_2 
REMARK    2  A    between atoms: C21_26  and  O2_2 
REMARK       I    between atoms: C11_16  and  N1_5 
REMARK    3  A    between atoms: C6_11  and  N1_5 
REMARK    4  A    between atoms: C1_6  and  C2_7 
REMARK    5  A    between atoms: C11_16  and  C12_17 
ROOT
HETATM    1  O1  UNK     1      23.991  -8.467  37.482  1.00  0.00    -0.271 OA
HETATM    2  O4  UNK     1      24.926  -6.730  38.632  1.00  0.00    -0.259 OA
HETATM    3  C12 UNK     1      26.364  -8.527  38.068  1.00  0.00     0.108 A 
HETATM    4  C13 UNK     1      25.369 -10.368  36.849  1.00  0.00     0.002 A 
HETATM    5  C14 UNK     1      26.507  -9.721  37.481  1.00  0.00     0.037 A 
HETATM    6  C15 UNK     1      24.135  -9.725  36.863  1.00  0.00     0.123 A 
HETATM    7  C16 UNK     1      25.062  -7.824  38.096  1.00  0.00     0.304 A 
HETATM    8  C17 UNK     1      23.006 -10.291  36.275  1.00  0.00     0.103 A 
HETATM    9  C18 UNK     1      25.472 -11.614  36.226  1.00  0.00     0.014 A 
HETATM   10  C19 UNK     1      23.118 -11.534  35.655  1.00  0.00     0.040 A 
HETATM   11  C20 UNK     1      24.348 -12.194  35.631  1.00  0.00     0.004 A 
ENDROOT
BRANCH   3  12
HETATM   12  C11 UNK     1      27.570  -7.955  38.679  1.00  0.00     0.262 C 
HETATM   13  O3  UNK     1      27.753  -8.069  39.890  1.00  0.00    -0.267 OA
HETATM   14  N1  UNK     1      28.383  -7.326  37.745  1.00  0.00    -0.322 N 
HETATM   15  H12 UNK     1      28.036  -7.369  36.804  1.00  0.00     0.169 HD
BRANCH  14  16
HETATM   16  C6  UNK     1      29.615  -6.669  37.977  1.00  0.00     0.042 A 
HETATM   17  C2  UNK     1      30.810  -7.312  37.700  1.00  0.00    -0.024 A 
HETATM   18  C7  UNK     1      32.014  -6.647  37.934  1.00  0.00     0.010 A 
HETATM   19  C9  UNK     1      32.007  -5.348  38.441  1.00  0.00     0.001 A 
HETATM   20  C10 UNK     1      30.796  -4.714  38.716  1.00  0.00     0.002 A 
HETATM   21  C8  UNK     1      29.592  -5.378  38.482  1.00  0.00     0.030 A 
BRANCH  17  22
HETATM   22  C1  UNK     1      30.848  -8.703  37.156  1.00  0.00    -0.022 C 
HETATM   23  C3  UNK     1      30.554  -9.753  38.271  1.00  0.00     0.019 C 
HETATM   24  C4  UNK     1      32.246  -9.035  36.551  1.00  0.00     0.019 C 
HETATM   25  C5  UNK     1      29.818  -9.004  36.018  1.00  0.00     0.019 C 
ENDBRANCH  17  22
ENDBRANCH  14  16
ENDBRANCH   3  12
BRANCH   8  26
HETATM   26  O2  UNK     1      21.807  -9.651  36.295  1.00  0.00    -0.349 OA
BRANCH  26  27
HETATM   27  C21 UNK     1      21.367  -9.051  35.076  1.00  0.00     0.171 C 
HETATM   28  C22 UNK     1      20.754  -7.701  35.383  1.00  0.00     0.034 C 
ENDBRANCH  26  27
ENDBRANCH   8  26
TORSDOF 5
ENDMDL
MODEL 7
REMARK VINA RESULT:      -8.3     11.656     14.642
REMARK  5 active torsions:
REMARK  status: ('A' for Active; 'I' for Inactive)
REMARK    1  A    between atoms: C17_22  and  O2_2 
REMARK    2  A    between atoms: C21_26  and  O2_2 
REMARK       I    between atoms: C11_16  and  N1_5 
REMARK    3  A    between atoms: C6_11  and  N1_5 
REMARK    4  A    between atoms: C1_6  and  C2_7 
REMARK    5  A    between atoms: C11_16  and  C12_17 
ROOT
HETATM    1  O1  UNK     1      25.797  -5.712  38.795  1.00  0.00    -0.271 OA
HETATM    2  O4  UNK     1      23.539  -5.428  38.993  1.00  0.00    -0.259 OA
HETATM    3  C12 UNK     1      24.333  -7.661  38.991  1.00  0.00     0.108 A 
HETATM    4  C13 UNK     1      26.728  -7.959  38.780  1.00  0.00     0.002 A 
HETATM    5  C14 UNK     1      25.381  -8.490  38.922  1.00  0.00     0.037 A 
HETATM    6  C15 UNK     1      26.905  -6.580  38.720  1.00  0.00     0.123 A 
HETATM    7  C16 UNK     1      24.497  -6.191  38.929  1.00  0.00     0.304 A 
HETATM    8  C17 UNK     1      28.169  -6.008  38.586  1.00  0.00     0.103 A 
HETATM    9  C18 UNK     1      27.850  -8.786  38.703  1.00  0.00     0.014 A 
HETATM   10  C19 UNK     1      29.283  -6.841  38.511  1.00  0.00     0.040 A 
HETATM   11  C20 UNK     1      29.124  -8.226  38.568  1.00  0.00     0.004 A 
ENDROOT
BRANCH   3  12
HETATM   12  C11 UNK     1      23.015  -8.291  39.132  1.00  0.00     0.262 C 
HETATM   13  O3  UNK     1      22.594  -8.580  40.251  1.00  0.00    -0.267 OA
HETATM   14  N1  UNK     1      22.393  -8.486  37.906  1.00  0.00    -0.322 N 
HETATM   15  H12 UNK     1      22.924  -8.157  37.120  1.00  0.00     0.169 HD
BRANCH  14  16
HETATM   16  C6  UNK     1      21.124  -9.065  37.664  1.00  0.00     0.042 A 
HETATM   17  C2  UNK     1      19.999  -8.261  37.567  1.00  0.00    -0.024 A 
HETATM   18  C7  UNK     1      18.758  -8.851  37.327  1.00  0.00     0.010 A 
HETATM   19  C9  UNK     1      18.658 -10.235  37.186  1.00  0.00     0.001 A 
HETATM   20  C10 UNK     1      19.799 -11.030  37.287  1.00  0.00     0.002 A 
HETATM   21  C8  UNK     1      21.040 -10.441  37.527  1.00  0.00     0.030 A 
BRANCH  17  22
HETATM   22  C1  UNK     1      20.078  -6.776  37.713  1.00  0.00    -0.022 C 
HETATM   23  C3  UNK     1      20.210  -6.364  39.211  1.00  0.00     0.019 C 
HETATM   24  C4  UNK     1      18.801  -6.086  37.144  1.00  0.00     0.019 C 
HETATM   25  C5  UNK     1      21.282  -6.096  36.985  1.00  0.00     0.019 C 
ENDBRANCH  17  22
ENDBRANCH  14  16
ENDBRANCH   3  12
BRANCH   8  26
HETATM   26  O2  UNK     1      28.327  -4.659  38.530  1.00  0.00    -0.349 OA
BRANCH  26  27
HETATM   27  C21 UNK     1      29.588  -4.134  38.944  1.00  0.00     0.171 C 
HETATM   28  C22 UNK     1      30.356  -3.673  37.723  1.00  0.00     0.034 C 
ENDBRANCH  26  27
ENDBRANCH   8  26
TORSDOF 5
ENDMDL
MODEL 8
REMARK VINA RESULT:      -8.3     23.191     24.947
REMARK  5 active torsions:
REMARK  status: ('A' for Active; 'I' for Inactive)
REMARK    1  A    between atoms: C17_22  and  O2_2 
REMARK    2  A    between atoms: C21_26  and  O2_2 
REMARK       I    between atoms: C11_16  and  N1_5 
REMARK    3  A    between atoms: C6_11  and  N1_5 
REMARK    4  A    between atoms: C1_6  and  C2_7 
REMARK    5  A    between atoms: C11_16  and  C12_17 
ROOT
HETATM    1  O1  UNK     1       9.553   8.168   9.562  1.00  0.00    -0.271 OA
HETATM    2  O4  UNK     1      10.514   9.610  11.051  1.00  0.00    -0.259 OA
HETATM    3  C12 UNK     1      11.825   8.987   9.177  1.00  0.00     0.108 A 
HETATM    4  C13 UNK     1      10.803   7.457   7.601  1.00  0.00     0.002 A 
HETATM    5  C14 UNK     1      11.918   8.280   8.045  1.00  0.00     0.037 A 
HETATM    6  C15 UNK     1       9.645   7.420   8.371  1.00  0.00     0.123 A 
HETATM    7  C16 UNK     1      10.603   8.963  10.012  1.00  0.00     0.304 A 
HETATM    8  C17 UNK     1       8.542   6.653   8.001  1.00  0.00     0.103 A 
HETATM    9  C18 UNK     1      10.857   6.702   6.427  1.00  0.00     0.014 A 
HETATM   10  C19 UNK     1       8.604   5.904   6.828  1.00  0.00     0.040 A 
HETATM   11  C20 UNK     1       9.758   5.927   6.043  1.00  0.00     0.004 A 
ENDROOT
BRANCH   3  12
HETATM   12  C11 UNK     1      13.001   9.786   9.542  1.00  0.00     0.262 C 
HETATM   13  O3  UNK     1      12.920  10.613  10.448  1.00  0.00    -0.267 OA
HETATM   14  N1  UNK     1      14.107   9.476   8.761  1.00  0.00    -0.322 N 
HETATM   15  H12 UNK     1      13.943   8.752   8.085  1.00  0.00     0.169 HD
BRANCH  14  16
HETATM   16  C6  UNK     1      15.401  10.046   8.833  1.00  0.00     0.042 A 
HETATM   17  C2  UNK     1      16.403   9.410   9.548  1.00  0.00    -0.024 A 
HETATM   18  C7  UNK     1      17.673   9.987   9.605  1.00  0.00     0.010 A 
HETATM   19  C9  UNK     1      17.922  11.191   8.947  1.00  0.00     0.001 A 
HETATM   20  C10 UNK     1      16.903  11.819   8.232  1.00  0.00     0.002 A 
HETATM   21  C8  UNK     1      15.634  11.242   8.174  1.00  0.00     0.030 A 
BRANCH  17  22
HETATM   22  C1  UNK     1      16.164   8.120  10.262  1.00  0.00    -0.022 C 
HETATM   23  C3  UNK     1      15.502   8.360  11.653  1.00  0.00     0.019 C 
HETATM   24  C4  UNK     1      17.500   7.351  10.501  1.00  0.00     0.019 C 
HETATM   25  C5  UNK     1      15.227   7.110   9.522  1.00  0.00     0.019 C 
ENDBRANCH  17  22
ENDBRANCH  14  16
ENDBRANCH   3  12
BRANCH   8  26
HETATM   26  O2  UNK     1       7.417   6.627   8.762  1.00  0.00    -0.349 OA
BRANCH  26  27
HETATM   27  C21 UNK     1       7.286   5.555   9.696  1.00  0.00     0.171 C 
HETATM   28  C22 UNK     1       6.918   6.122  11.051  1.00  0.00     0.034 C 
ENDBRANCH  26  27
ENDBRANCH   8  26
TORSDOF 5
ENDMDL
MODEL 9
REMARK VINA RESULT:      -8.2     13.999     18.053
REMARK  5 active torsions:
REMARK  status: ('A' for Active; 'I' for Inactive)
REMARK    1  A    between atoms: C17_22  and  O2_2 
REMARK    2  A    between atoms: C21_26  and  O2_2 
REMARK       I    between atoms: C11_16  and  N1_5 
REMARK    3  A    between atoms: C6_11  and  N1_5 
REMARK    4  A    between atoms: C1_6  and  C2_7 
REMARK    5  A    between atoms: C11_16  and  C12_17 
ROOT
HETATM    1  O1  UNK     1      19.283   1.542  17.137  1.00  0.00    -0.271 OA
HETATM    2  O4  UNK     1      19.040   0.685  15.033  1.00  0.00    -0.259 OA
HETATM    3  C12 UNK     1      18.915  -0.856  16.829  1.00  0.00     0.108 A 
HETATM    4  C13 UNK     1      19.174   0.056  19.059  1.00  0.00     0.002 A 
HETATM    5  C14 UNK     1      18.959  -1.060  18.151  1.00  0.00     0.037 A 
HETATM    6  C15 UNK     1      19.331   1.333  18.530  1.00  0.00     0.123 A 
HETATM    7  C16 UNK     1      19.079   0.493  16.244  1.00  0.00     0.304 A 
HETATM    8  C17 UNK     1      19.539   2.444  19.345  1.00  0.00     0.103 A 
HETATM    9  C18 UNK     1      19.228  -0.111  20.444  1.00  0.00     0.014 A 
HETATM   10  C19 UNK     1      19.590   2.268  20.726  1.00  0.00     0.040 A 
HETATM   11  C20 UNK     1      19.436   0.994  21.274  1.00  0.00     0.004 A 
ENDROOT
BRANCH   3  12
HETATM   12  C11 UNK     1      18.694  -2.044  15.996  1.00  0.00     0.262 C 
HETATM   13  O3  UNK     1      17.555  -2.483  15.848  1.00  0.00    -0.267 OA
HETATM   14  N1  UNK     1      19.877  -2.536  15.460  1.00  0.00    -0.322 N 
HETATM   15  H12 UNK     1      20.692  -2.004  15.707  1.00  0.00     0.169 HD
BRANCH  14  16
HETATM   16  C6  UNK     1      20.041  -3.661  14.617  1.00  0.00     0.042 A 
HETATM   17  C2  UNK     1      20.194  -3.490  13.250  1.00  0.00    -0.024 A 
HETATM   18  C7  UNK     1      20.356  -4.612  12.436  1.00  0.00     0.010 A 
HETATM   19  C9  UNK     1      20.362  -5.887  12.999  1.00  0.00     0.001 A 
HETATM   20  C10 UNK     1      20.206  -6.043  14.376  1.00  0.00     0.002 A 
HETATM   21  C8  UNK     1      20.045  -4.922  15.190  1.00  0.00     0.030 A 
BRANCH  17  22
HETATM   22  C1  UNK     1      20.191  -2.135  12.620  1.00  0.00    -0.022 C 
HETATM   23  C3  UNK     1      20.598  -2.213  11.117  1.00  0.00     0.019 C 
HETATM   24  C4  UNK     1      21.196  -1.180  13.333  1.00  0.00     0.019 C 
HETATM   25  C5  UNK     1      18.817  -1.390  12.644  1.00  0.00     0.019 C 
ENDBRANCH  17  22
ENDBRANCH  14  16
ENDBRANCH   3  12
BRANCH   8  26
HETATM   26  O2  UNK     1      19.690   3.686  18.814  1.00  0.00    -0.349 OA
BRANCH  26  27
HETATM   27  C21 UNK     1      21.023   4.126  18.555  1.00  0.00     0.171 C 
HETATM   28  C22 UNK     1      21.003   5.609  18.249  1.00  0.00     0.034 C 
ENDBRANCH  26  27
ENDBRANCH   8  26
TORSDOF 5
ENDMDL
MODEL 10
REMARK VINA RESULT:      -8.1     13.928     17.263
REMARK  5 active torsions:
REMARK  status: ('A' for Active; 'I' for Inactive)
REMARK    1  A    between atoms: C17_22  and  O2_2 
REMARK    2  A    between atoms: C21_26  and  O2_2 
REMARK       I    between atoms: C11_16  and  N1_5 
REMARK    3  A    between atoms: C6_11  and  N1_5 
REMARK    4  A    between atoms: C1_6  and  C2_7 
REMARK    5  A    between atoms: C11_16  and  C12_17 
ROOT
HETATM    1  O1  UNK     1      31.785  -5.483  34.637  1.00  0.00    -0.271 OA
HETATM    2  O4  UNK     1      30.059  -5.578  33.143  1.00  0.00    -0.259 OA
HETATM    3  C12 UNK     1      32.026  -6.768  32.570  1.00  0.00     0.108 A 
HETATM    4  C13 UNK     1      33.855  -6.665  34.155  1.00  0.00     0.002 A 
HETATM    5  C14 UNK     1      33.272  -7.124  32.905  1.00  0.00     0.037 A 
HETATM    6  C15 UNK     1      33.097  -5.854  34.994  1.00  0.00     0.123 A 
HETATM    7  C16 UNK     1      31.201  -5.906  33.446  1.00  0.00     0.304 A 
HETATM    8  C17 UNK     1      33.596  -5.381  36.206  1.00  0.00     0.103 A 
HETATM    9  C18 UNK     1      35.151  -7.011  34.544  1.00  0.00     0.014 A 
HETATM   10  C19 UNK     1      34.890  -5.731  36.586  1.00  0.00     0.040 A 
HETATM   11  C20 UNK     1      35.666  -6.543  35.757  1.00  0.00     0.004 A 
ENDROOT
BRANCH   3  12
HETATM   12  C11 UNK     1      31.526  -7.281  31.289  1.00  0.00     0.262 C 
HETATM   13  O3  UNK     1      32.033  -6.894  30.237  1.00  0.00    -0.267 OA
HETATM   14  N1  UNK     1      30.486  -8.185  31.456  1.00  0.00    -0.322 N 
HETATM   15  H12 UNK     1      30.246  -8.362  32.415  1.00  0.00     0.169 HD
BRANCH  14  16
HETATM   16  C6  UNK     1      29.768  -8.873  30.448  1.00  0.00     0.042 A 
HETATM   17  C2  UNK     1      28.501  -8.448  30.082  1.00  0.00    -0.024 A 
HETATM   18  C7  UNK     1      27.811  -9.137  29.085  1.00  0.00     0.010 A 
HETATM   19  C9  UNK     1      28.397 -10.242  28.468  1.00  0.00     0.001 A 
HETATM   20  C10 UNK     1      29.672 -10.659  28.848  1.00  0.00     0.002 A 
HETATM   21  C8  UNK     1      30.363  -9.969  29.844  1.00  0.00     0.030 A 
BRANCH  17  22
HETATM   22  C1  UNK     1      27.850  -7.267  30.726  1.00  0.00    -0.022 C 
HETATM   23  C3  UNK     1      27.857  -7.399  32.280  1.00  0.00     0.019 C 
HETATM   24  C4  UNK     1      26.366  -7.123  30.270  1.00  0.00     0.019 C 
HETATM   25  C5  UNK     1      28.518  -5.887  30.421  1.00  0.00     0.019 C 
ENDBRANCH  17  22
ENDBRANCH  14  16
ENDBRANCH   3  12
BRANCH   8  26
HETATM   26  O2  UNK     1      32.844  -4.590  37.016  1.00  0.00    -0.349 OA
BRANCH  26  27
HETATM   27  C21 UNK     1      32.384  -5.162  38.240  1.00  0.00     0.171 C 
HETATM   28  C22 UNK     1      30.901  -4.892  38.385  1.00  0.00     0.034 C 
ENDBRANCH  26  27
ENDBRANCH   8  26
TORSDOF 5
ENDMDL
