MODEL 1
REMARK VINA RESULT:      -9.5      0.000      0.000
REMARK  3 active torsions:
REMARK  status: ('A' for Active; 'I' for Inactive)
REMARK    1  A    between atoms: C2_7  and  N1_5 
REMARK       I    between atoms: C7_12  and  N1_5 
REMARK    2  A    between atoms: C2_7  and  C4_9 
REMARK    3  A    between atoms: C3_8  and  C7_12 
ROOT
HETATM    1  O2  UNK     1      18.019   3.260  28.688  1.00  0.00    -0.267 OA
HETATM    2  N1  UNK     1      19.198   4.272  30.424  1.00  0.00    -0.352 N 
HETATM    3  C7  UNK     1      18.670   3.200  29.728  1.00  0.00     0.258 C 
HETATM    4  H4  UNK     1      19.712   4.120  31.287  1.00  0.00     0.163 HD
ENDROOT
BRANCH   3   5
HETATM    5  C3  UNK     1      18.966   1.909  30.360  1.00  0.00     0.108 A 
HETATM    6  C6  UNK     1      19.601   1.010  29.599  1.00  0.00     0.037 A 
HETATM    7  C1  UNK     1      19.939  -0.299  30.136  1.00  0.00    -0.001 A 
HETATM    8  C8  UNK     1      20.600  -1.268  29.377  1.00  0.00     0.014 A 
HETATM    9  C5  UNK     1      19.590  -0.598  31.449  1.00  0.00     0.089 A 
HETATM   10  C13 UNK     1      20.902  -2.511  29.940  1.00  0.00     0.001 A 
HETATM   11  C14 UNK     1      20.544  -2.793  31.260  1.00  0.00     0.003 A 
HETATM   12  C10 UNK     1      19.883  -1.832  32.023  1.00  0.00     0.038 A 
HETATM   13  O1  UNK     1      18.921   0.353  32.245  1.00  0.00    -0.274 OA
HETATM   14  C9  UNK     1      18.586   1.613  31.759  1.00  0.00     0.304 A 
HETATM   15  O3  UNK     1      18.004   2.434  32.461  1.00  0.00    -0.259 OA
ENDBRANCH   3   5
BRANCH   2  16
HETATM   16  C2  UNK     1      19.041   5.644  29.997  1.00  0.00     0.161 C 
BRANCH  16  17
HETATM   17  C4  UNK     1      18.545   6.525  31.107  1.00  0.00    -0.040 A 
HETATM   18  C11 UNK     1      17.329   7.184  30.971  1.00  0.00     0.010 A 
HETATM   19  C15 UNK     1      16.867   8.003  32.001  1.00  0.00     0.024 A 
HETATM   20  C17 UNK     1      17.627   8.158  33.162  1.00  0.00     0.034 A 
HETATM   21  C16 UNK     1      18.846   7.493  33.291  1.00  0.00     0.024 A 
HETATM   22 Cl1  UNK     1      17.059   9.170  34.432  1.00  0.00    -0.084 Cl
HETATM   23  C12 UNK     1      19.307   6.673  32.261  1.00  0.00     0.010 A 
ENDBRANCH  16  17
ENDBRANCH   2  16
TORSDOF 3
ENDMDL
MODEL 2
REMARK VINA RESULT:      -9.0      1.503      2.397
REMARK  3 active torsions:
REMARK  status: ('A' for Active; 'I' for Inactive)
REMARK    1  A    between atoms: C2_7  and  N1_5 
REMARK       I    between atoms: C7_12  and  N1_5 
REMARK    2  A    between atoms: C2_7  and  C4_9 
REMARK    3  A    between atoms: C3_8  and  C7_12 
ROOT
HETATM    1  O2  UNK     1      17.161   2.792  30.893  1.00  0.00    -0.267 OA
HETATM    2  N1  UNK     1      19.101   3.635  29.914  1.00  0.00    -0.352 N 
HETATM    3  C7  UNK     1      18.282   2.638  30.412  1.00  0.00     0.258 C 
HETATM    4  H4  UNK     1      20.021   3.407  29.549  1.00  0.00     0.163 HD
ENDROOT
BRANCH   3   5
HETATM    5  C3  UNK     1      18.884   1.304  30.316  1.00  0.00     0.108 A 
HETATM    6  C6  UNK     1      19.210   0.717  31.474  1.00  0.00     0.037 A 
HETATM    7  C1  UNK     1      19.812  -0.607  31.482  1.00  0.00    -0.001 A 
HETATM    8  C8  UNK     1      20.170  -1.256  32.666  1.00  0.00     0.014 A 
HETATM    9  C5  UNK     1      20.042  -1.249  30.269  1.00  0.00     0.089 A 
HETATM   10  C13 UNK     1      20.746  -2.529  32.619  1.00  0.00     0.001 A 
HETATM   11  C14 UNK     1      20.969  -3.158  31.393  1.00  0.00     0.003 A 
HETATM   12  C10 UNK     1      20.616  -2.517  30.207  1.00  0.00     0.038 A 
HETATM   13  O1  UNK     1      19.696  -0.627  29.053  1.00  0.00    -0.274 OA
HETATM   14  C9  UNK     1      19.119   0.639  29.015  1.00  0.00     0.304 A 
HETATM   15  O3  UNK     1      18.821   1.173  27.951  1.00  0.00    -0.259 OA
ENDBRANCH   3   5
BRANCH   2  16
HETATM   16  C2  UNK     1      18.725   5.030  29.898  1.00  0.00     0.161 C 
BRANCH  16  17
HETATM   17  C4  UNK     1      18.915   5.678  31.239  1.00  0.00    -0.040 A 
HETATM   18  C11 UNK     1      20.199   5.935  31.703  1.00  0.00     0.010 A 
HETATM   19  C15 UNK     1      20.376   6.537  32.950  1.00  0.00     0.024 A 
HETATM   20  C17 UNK     1      19.265   6.875  33.724  1.00  0.00     0.034 A 
HETATM   21  C16 UNK     1      17.980   6.614  33.251  1.00  0.00     0.024 A 
HETATM   22 Cl1  UNK     1      19.483   7.615  35.262  1.00  0.00    -0.084 Cl
HETATM   23  C12 UNK     1      17.803   6.013  32.004  1.00  0.00     0.010 A 
ENDBRANCH  16  17
ENDBRANCH   2  16
TORSDOF 3
ENDMDL
MODEL 3
REMARK VINA RESULT:      -8.8      3.438      7.852
REMARK  3 active torsions:
REMARK  status: ('A' for Active; 'I' for Inactive)
REMARK    1  A    between atoms: C2_7  and  N1_5 
REMARK       I    between atoms: C7_12  and  N1_5 
REMARK    2  A    between atoms: C2_7  and  C4_9 
REMARK    3  A    between atoms: C3_8  and  C7_12 
ROOT
HETATM    1  O2  UNK     1      18.639   4.799  28.895  1.00  0.00    -0.267 OA
HETATM    2  N1  UNK     1      18.990   3.015  30.352  1.00  0.00    -0.352 N 
HETATM    3  C7  UNK     1      18.858   4.350  30.017  1.00  0.00     0.258 C 
HETATM    4  H4  UNK     1      19.186   2.744  31.311  1.00  0.00     0.163 HD
ENDROOT
BRANCH   3   5
HETATM    5  C3  UNK     1      19.003   5.245  31.172  1.00  0.00     0.108 A 
HETATM    6  C6  UNK     1      17.898   5.465  31.892  1.00  0.00     0.037 A 
HETATM    7  C1  UNK     1      17.941   6.337  33.056  1.00  0.00    -0.001 A 
HETATM    8  C8  UNK     1      16.811   6.596  33.836  1.00  0.00     0.014 A 
HETATM    9  C5  UNK     1      19.148   6.935  33.404  1.00  0.00     0.089 A 
HETATM   10  C13 UNK     1      16.906   7.441  34.945  1.00  0.00     0.001 A 
HETATM   11  C14 UNK     1      18.126   8.033  35.279  1.00  0.00     0.003 A 
HETATM   12  C10 UNK     1      19.257   7.780  34.506  1.00  0.00     0.038 A 
HETATM   13  O1  UNK     1      20.309   6.699  32.641  1.00  0.00    -0.274 OA
HETATM   14  C9  UNK     1      20.298   5.870  31.523  1.00  0.00     0.304 A 
HETATM   15  O3  UNK     1      21.314   5.670  30.866  1.00  0.00    -0.259 OA
ENDBRANCH   3   5
BRANCH   2  16
HETATM   16  C2  UNK     1      18.884   1.946  29.386  1.00  0.00     0.161 C 
BRANCH  16  17
HETATM   17  C4  UNK     1      19.414   0.648  29.924  1.00  0.00    -0.040 A 
HETATM   18  C11 UNK     1      19.199   0.316  31.256  1.00  0.00     0.010 A 
HETATM   19  C15 UNK     1      19.692  -0.889  31.756  1.00  0.00     0.024 A 
HETATM   20  C17 UNK     1      20.398  -1.754  30.920  1.00  0.00     0.034 A 
HETATM   21  C16 UNK     1      20.610  -1.414  29.584  1.00  0.00     0.024 A 
HETATM   22 Cl1  UNK     1      21.008  -3.240  31.537  1.00  0.00    -0.084 Cl
HETATM   23  C12 UNK     1      20.116  -0.209  29.084  1.00  0.00     0.010 A 
ENDBRANCH  16  17
ENDBRANCH   2  16
TORSDOF 3
ENDMDL
MODEL 4
REMARK VINA RESULT:      -8.6      7.227     10.289
REMARK  3 active torsions:
REMARK  status: ('A' for Active; 'I' for Inactive)
REMARK    1  A    between atoms: C2_7  and  N1_5 
REMARK       I    between atoms: C7_12  and  N1_5 
REMARK    2  A    between atoms: C2_7  and  C4_9 
REMARK    3  A    between atoms: C3_8  and  C7_12 
ROOT
HETATM    1  O2  UNK     1      20.861  -3.927  37.665  1.00  0.00    -0.267 OA
HETATM    2  N1  UNK     1      19.620  -3.906  35.693  1.00  0.00    -0.352 N 
HETATM    3  C7  UNK     1      20.269  -4.505  36.757  1.00  0.00     0.258 C 
HETATM    4  H4  UNK     1      19.170  -4.474  34.981  1.00  0.00     0.163 HD
ENDROOT
BRANCH   3   5
HETATM    5  C3  UNK     1      20.191  -5.970  36.720  1.00  0.00     0.108 A 
HETATM    6  C6  UNK     1      19.955  -6.579  37.888  1.00  0.00     0.037 A 
HETATM    7  C1  UNK     1      19.859  -8.029  37.954  1.00  0.00    -0.001 A 
HETATM    8  C8  UNK     1      19.616  -8.706  39.151  1.00  0.00     0.014 A 
HETATM    9  C5  UNK     1      20.018  -8.768  36.786  1.00  0.00     0.089 A 
HETATM   10  C13 UNK     1      19.533 -10.102  39.161  1.00  0.00     0.001 A 
HETATM   11  C14 UNK     1      19.695 -10.826  37.978  1.00  0.00     0.003 A 
HETATM   12  C10 UNK     1      19.939 -10.158  36.780  1.00  0.00     0.038 A 
HETATM   13  O1  UNK     1      20.266  -8.121  35.559  1.00  0.00    -0.274 OA
HETATM   14  C9  UNK     1      20.363  -6.736  35.465  1.00  0.00     0.304 A 
HETATM   15  O3  UNK     1      20.578  -6.182  34.392  1.00  0.00    -0.259 OA
ENDBRANCH   3   5
BRANCH   2  16
HETATM   16  C2  UNK     1      19.558  -2.473  35.513  1.00  0.00     0.161 C 
BRANCH  16  17
HETATM   17  C4  UNK     1      19.712  -2.081  34.072  1.00  0.00    -0.040 A 
HETATM   18  C11 UNK     1      20.712  -2.665  33.303  1.00  0.00     0.010 A 
HETATM   19  C15 UNK     1      20.856  -2.300  31.965  1.00  0.00     0.024 A 
HETATM   20  C17 UNK     1      20.000  -1.351  31.405  1.00  0.00     0.034 A 
HETATM   21  C16 UNK     1      18.999  -0.770  32.182  1.00  0.00     0.024 A 
HETATM   22 Cl1  UNK     1      20.179  -0.899  29.754  1.00  0.00    -0.084 Cl
HETATM   23  C12 UNK     1      18.854  -1.135  33.521  1.00  0.00     0.010 A 
ENDBRANCH  16  17
ENDBRANCH   2  16
TORSDOF 3
ENDMDL
MODEL 5
REMARK VINA RESULT:      -8.6      5.857      9.345
REMARK  3 active torsions:
REMARK  status: ('A' for Active; 'I' for Inactive)
REMARK    1  A    between atoms: C2_7  and  N1_5 
REMARK       I    between atoms: C7_12  and  N1_5 
REMARK    2  A    between atoms: C2_7  and  C4_9 
REMARK    3  A    between atoms: C3_8  and  C7_12 
ROOT
HETATM    1  O2  UNK     1      17.527  -1.328  35.823  1.00  0.00    -0.267 OA
HETATM    2  N1  UNK     1      19.739  -2.056  35.720  1.00  0.00    -0.352 N 
HETATM    3  C7  UNK     1      18.607  -1.420  35.243  1.00  0.00     0.258 C 
HETATM    4  H4  UNK     1      20.582  -2.091  35.156  1.00  0.00     0.163 HD
ENDROOT
BRANCH   3   5
HETATM    5  C3  UNK     1      18.802  -0.826  33.916  1.00  0.00     0.108 A 
HETATM    6  C6  UNK     1      19.389  -1.605  33.000  1.00  0.00     0.037 A 
HETATM    7  C1  UNK     1      19.626  -1.106  31.655  1.00  0.00    -0.001 A 
HETATM    8  C8  UNK     1      20.236  -1.883  30.668  1.00  0.00     0.014 A 
HETATM    9  C5  UNK     1      19.233   0.191  31.340  1.00  0.00     0.089 A 
HETATM   10  C13 UNK     1      20.441  -1.356  29.389  1.00  0.00     0.001 A 
HETATM   11  C14 UNK     1      20.040  -0.052  29.092  1.00  0.00     0.003 A 
HETATM   12  C10 UNK     1      19.432   0.730  30.070  1.00  0.00     0.038 A 
HETATM   13  O1  UNK     1      18.616   1.007  32.308  1.00  0.00    -0.274 OA
HETATM   14  C9  UNK     1      18.377   0.556  33.603  1.00  0.00     0.304 A 
HETATM   15  O3  UNK     1      17.838   1.274  34.439  1.00  0.00    -0.259 OA
ENDBRANCH   3   5
BRANCH   2  16
HETATM   16  C2  UNK     1      19.792  -2.714  37.005  1.00  0.00     0.161 C 
BRANCH  16  17
HETATM   17  C4  UNK     1      20.186  -4.157  36.882  1.00  0.00    -0.040 A 
HETATM   18  C11 UNK     1      21.053  -4.716  37.813  1.00  0.00     0.010 A 
HETATM   19  C15 UNK     1      21.420  -6.057  37.699  1.00  0.00     0.024 A 
HETATM   20  C17 UNK     1      20.918  -6.830  36.651  1.00  0.00     0.034 A 
HETATM   21  C16 UNK     1      20.048  -6.262  35.720  1.00  0.00     0.024 A 
HETATM   22 Cl1  UNK     1      21.372  -8.483  36.508  1.00  0.00    -0.084 Cl
HETATM   23  C12 UNK     1      19.681  -4.922  35.836  1.00  0.00     0.010 A 
ENDBRANCH  16  17
ENDBRANCH   2  16
TORSDOF 3
ENDMDL
MODEL 6
REMARK VINA RESULT:      -8.5      3.206      7.893
REMARK  3 active torsions:
REMARK  status: ('A' for Active; 'I' for Inactive)
REMARK    1  A    between atoms: C2_7  and  N1_5 
REMARK       I    between atoms: C7_12  and  N1_5 
REMARK    2  A    between atoms: C2_7  and  C4_9 
REMARK    3  A    between atoms: C3_8  and  C7_12 
ROOT
HETATM    1  O2  UNK     1      19.764   4.916  29.975  1.00  0.00    -0.267 OA
HETATM    2  N1  UNK     1      18.269   3.192  30.448  1.00  0.00    -0.352 N 
HETATM    3  C7  UNK     1      18.870   4.420  30.656  1.00  0.00     0.258 C 
HETATM    4  H4  UNK     1      17.545   2.861  31.078  1.00  0.00     0.163 HD
ENDROOT
BRANCH   3   5
HETATM    5  C3  UNK     1      18.325   5.130  31.819  1.00  0.00     0.108 A 
HETATM    6  C6  UNK     1      18.030   6.423  31.638  1.00  0.00     0.037 A 
HETATM    7  C1  UNK     1      17.485   7.212  32.732  1.00  0.00    -0.001 A 
HETATM    8  C8  UNK     1      17.164   8.563  32.588  1.00  0.00     0.014 A 
HETATM    9  C5  UNK     1      17.278   6.600  33.964  1.00  0.00     0.089 A 
HETATM   10  C13 UNK     1      16.642   9.278  33.670  1.00  0.00     0.001 A 
HETATM   11  C14 UNK     1      16.441   8.647  34.900  1.00  0.00     0.003 A 
HETATM   12  C10 UNK     1      16.759   7.299  35.052  1.00  0.00     0.038 A 
HETATM   13  O1  UNK     1      17.590   5.239  34.149  1.00  0.00    -0.274 OA
HETATM   14  C9  UNK     1      18.113   4.459  33.121  1.00  0.00     0.304 A 
HETATM   15  O3  UNK     1      18.381   3.275  33.292  1.00  0.00    -0.259 OA
ENDBRANCH   3   5
BRANCH   2  16
HETATM   16  C2  UNK     1      18.635   2.310  29.362  1.00  0.00     0.161 C 
BRANCH  16  17
HETATM   17  C4  UNK     1      19.195   1.009  29.860  1.00  0.00    -0.040 A 
HETATM   18  C11 UNK     1      19.868   0.169  28.982  1.00  0.00     0.010 A 
HETATM   19  C15 UNK     1      20.388  -1.041  29.443  1.00  0.00     0.024 A 
HETATM   20  C17 UNK     1      20.230  -1.401  30.782  1.00  0.00     0.034 A 
HETATM   21  C16 UNK     1      19.554  -0.553  31.658  1.00  0.00     0.024 A 
HETATM   22 Cl1  UNK     1      20.870  -2.894  31.351  1.00  0.00    -0.084 Cl
HETATM   23  C12 UNK     1      19.034   0.657  31.196  1.00  0.00     0.010 A 
ENDBRANCH  16  17
ENDBRANCH   2  16
TORSDOF 3
ENDMDL
MODEL 7
REMARK VINA RESULT:      -8.5      1.713      2.648
REMARK  3 active torsions:
REMARK  status: ('A' for Active; 'I' for Inactive)
REMARK    1  A    between atoms: C2_7  and  N1_5 
REMARK       I    between atoms: C7_12  and  N1_5 
REMARK    2  A    between atoms: C2_7  and  C4_9 
REMARK    3  A    between atoms: C3_8  and  C7_12 
ROOT
HETATM    1  O2  UNK     1      17.911   3.071  33.684  1.00  0.00    -0.267 OA
HETATM    2  N1  UNK     1      17.596   4.507  31.876  1.00  0.00    -0.352 N 
HETATM    3  C7  UNK     1      18.003   3.336  32.488  1.00  0.00     0.258 C 
HETATM    4  H4  UNK     1      17.730   4.638  30.878  1.00  0.00     0.163 HD
ENDROOT
BRANCH   3   5
HETATM    5  C3  UNK     1      18.587   2.374  31.546  1.00  0.00     0.108 A 
HETATM    6  C6  UNK     1      18.828   1.148  32.026  1.00  0.00     0.037 A 
HETATM    7  C1  UNK     1      19.405   0.125  31.169  1.00  0.00    -0.001 A 
HETATM    8  C8  UNK     1      19.676  -1.166  31.628  1.00  0.00     0.014 A 
HETATM    9  C5  UNK     1      19.700   0.442  29.847  1.00  0.00     0.089 A 
HETATM   10  C13 UNK     1      20.231  -2.115  30.763  1.00  0.00     0.001 A 
HETATM   11  C14 UNK     1      20.520  -1.777  29.439  1.00  0.00     0.003 A 
HETATM   12  C10 UNK     1      20.254  -0.491  28.974  1.00  0.00     0.038 A 
HETATM   13  O1  UNK     1      19.443   1.734  29.347  1.00  0.00    -0.274 OA
HETATM   14  C9  UNK     1      18.892   2.734  30.143  1.00  0.00     0.304 A 
HETATM   15  O3  UNK     1      18.672   3.855  29.698  1.00  0.00    -0.259 OA
ENDBRANCH   3   5
BRANCH   2  16
HETATM   16  C2  UNK     1      16.989   5.603  32.597  1.00  0.00     0.161 C 
BRANCH  16  17
HETATM   17  C4  UNK     1      18.011   6.593  33.079  1.00  0.00    -0.040 A 
HETATM   18  C11 UNK     1      17.594   7.783  33.661  1.00  0.00     0.010 A 
HETATM   19  C15 UNK     1      18.543   8.703  34.108  1.00  0.00     0.024 A 
HETATM   20  C17 UNK     1      19.903   8.425  33.968  1.00  0.00     0.034 A 
HETATM   21  C16 UNK     1      20.314   7.228  33.383  1.00  0.00     0.024 A 
HETATM   22 Cl1  UNK     1      21.074   9.561  34.518  1.00  0.00    -0.084 Cl
HETATM   23  C12 UNK     1      19.365   6.308  32.937  1.00  0.00     0.010 A 
ENDBRANCH  16  17
ENDBRANCH   2  16
TORSDOF 3
ENDMDL
MODEL 8
REMARK VINA RESULT:      -8.3      3.145      4.357
REMARK  3 active torsions:
REMARK  status: ('A' for Active; 'I' for Inactive)
REMARK    1  A    between atoms: C2_7  and  N1_5 
REMARK       I    between atoms: C7_12  and  N1_5 
REMARK    2  A    between atoms: C2_7  and  C4_9 
REMARK    3  A    between atoms: C3_8  and  C7_12 
ROOT
HETATM    1  O2  UNK     1      18.576   2.168  31.162  1.00  0.00    -0.267 OA
HETATM    2  N1  UNK     1      17.905   3.662  32.821  1.00  0.00    -0.352 N 
HETATM    3  C7  UNK     1      18.276   2.425  32.326  1.00  0.00     0.258 C 
HETATM    4  H4  UNK     1      17.661   3.770  33.800  1.00  0.00     0.163 HD
ENDROOT
BRANCH   3   5
HETATM    5  C3  UNK     1      18.289   1.380  33.355  1.00  0.00     0.108 A 
HETATM    6  C6  UNK     1      18.025   1.778  34.605  1.00  0.00     0.037 A 
HETATM    7  C1  UNK     1      18.014   0.815  35.696  1.00  0.00    -0.001 A 
HETATM    8  C8  UNK     1      17.745   1.186  37.015  1.00  0.00     0.014 A 
HETATM    9  C5  UNK     1      18.282  -0.521  35.416  1.00  0.00     0.089 A 
HETATM   10  C13 UNK     1      17.746   0.221  38.027  1.00  0.00     0.001 A 
HETATM   11  C14 UNK     1      18.018  -1.115  37.727  1.00  0.00     0.003 A 
HETATM   12  C10 UNK     1      18.288  -1.493  36.414  1.00  0.00     0.038 A 
HETATM   13  O1  UNK     1      18.559  -0.935  34.098  1.00  0.00    -0.274 OA
HETATM   14  C9  UNK     1      18.577  -0.036  33.035  1.00  0.00     0.304 A 
HETATM   15  O3  UNK     1      18.818  -0.406  31.890  1.00  0.00    -0.259 OA
ENDBRANCH   3   5
BRANCH   2  16
HETATM   16  C2  UNK     1      17.821   4.847  31.998  1.00  0.00     0.161 C 
BRANCH  16  17
HETATM   17  C4  UNK     1      18.485   6.028  32.645  1.00  0.00    -0.040 A 
HETATM   18  C11 UNK     1      19.862   6.029  32.826  1.00  0.00     0.010 A 
HETATM   19  C15 UNK     1      20.480   7.126  33.429  1.00  0.00     0.024 A 
HETATM   20  C17 UNK     1      19.713   8.215  33.846  1.00  0.00     0.034 A 
HETATM   21  C16 UNK     1      18.331   8.206  33.661  1.00  0.00     0.024 A 
HETATM   22 Cl1  UNK     1      20.474   9.567  34.591  1.00  0.00    -0.084 Cl
HETATM   23  C12 UNK     1      17.714   7.110  33.058  1.00  0.00     0.010 A 
ENDBRANCH  16  17
ENDBRANCH   2  16
TORSDOF 3
ENDMDL
MODEL 9
REMARK VINA RESULT:      -8.1      4.475      9.738
REMARK  3 active torsions:
REMARK  status: ('A' for Active; 'I' for Inactive)
REMARK    1  A    between atoms: C2_7  and  N1_5 
REMARK       I    between atoms: C7_12  and  N1_5 
REMARK    2  A    between atoms: C2_7  and  C4_9 
REMARK    3  A    between atoms: C3_8  and  C7_12 
ROOT
HETATM    1  O2  UNK     1      17.037   6.847  34.733  1.00  0.00    -0.267 OA
HETATM    2  N1  UNK     1      18.160   7.936  33.005  1.00  0.00    -0.352 N 
HETATM    3  C7  UNK     1      17.123   7.748  33.901  1.00  0.00     0.258 C 
HETATM    4  H4  UNK     1      18.133   8.705  32.344  1.00  0.00     0.163 HD
ENDROOT
BRANCH   3   5
HETATM    5  C3  UNK     1      16.073   8.765  33.778  1.00  0.00     0.108 A 
HETATM    6  C6  UNK     1      15.674   9.343  34.917  1.00  0.00     0.037 A 
HETATM    7  C1  UNK     1      14.638  10.364  34.899  1.00  0.00    -0.001 A 
HETATM    8  C8  UNK     1      14.191  10.993  36.063  1.00  0.00     0.014 A 
HETATM    9  C5  UNK     1      14.072  10.726  33.681  1.00  0.00     0.089 A 
HETATM   10  C13 UNK     1      13.192  11.968  35.992  1.00  0.00     0.001 A 
HETATM   11  C14 UNK     1      12.635  12.318  34.760  1.00  0.00     0.003 A 
HETATM   12  C10 UNK     1      13.075  11.695  33.595  1.00  0.00     0.038 A 
HETATM   13  O1  UNK     1      14.495  10.113  32.485  1.00  0.00    -0.274 OA
HETATM   14  C9  UNK     1      15.484   9.134  32.472  1.00  0.00     0.304 A 
HETATM   15  O3  UNK     1      15.847   8.607  31.425  1.00  0.00    -0.259 OA
ENDBRANCH   3   5
BRANCH   2  16
HETATM   16  C2  UNK     1      19.311   7.064  32.937  1.00  0.00     0.161 C 
BRANCH  16  17
HETATM   17  C4  UNK     1      19.086   5.911  32.001  1.00  0.00    -0.040 A 
HETATM   18  C11 UNK     1      19.500   6.008  30.678  1.00  0.00     0.010 A 
HETATM   19  C15 UNK     1      19.291   4.937  29.808  1.00  0.00     0.024 A 
HETATM   20  C17 UNK     1      18.668   3.777  30.269  1.00  0.00     0.034 A 
HETATM   21  C16 UNK     1      18.256   3.687  31.598  1.00  0.00     0.024 A 
HETATM   22 Cl1  UNK     1      18.409   2.457  29.196  1.00  0.00    -0.084 Cl
HETATM   23  C12 UNK     1      18.466   4.757  32.467  1.00  0.00     0.010 A 
ENDBRANCH  16  17
ENDBRANCH   2  16
TORSDOF 3
ENDMDL
MODEL 10
REMARK VINA RESULT:      -8.1      3.857      8.171
REMARK  3 active torsions:
REMARK  status: ('A' for Active; 'I' for Inactive)
REMARK    1  A    between atoms: C2_7  and  N1_5 
REMARK       I    between atoms: C7_12  and  N1_5 
REMARK    2  A    between atoms: C2_7  and  C4_9 
REMARK    3  A    between atoms: C3_8  and  C7_12 
ROOT
HETATM    1  O2  UNK     1      18.596   4.184  30.958  1.00  0.00    -0.267 OA
HETATM    2  N1  UNK     1      18.063   3.540  33.134  1.00  0.00    -0.352 N 
HETATM    3  C7  UNK     1      18.301   4.451  32.121  1.00  0.00     0.258 C 
HETATM    4  H4  UNK     1      17.839   3.861  34.070  1.00  0.00     0.163 HD
ENDROOT
BRANCH   3   5
HETATM    5  C3  UNK     1      18.165   5.843  32.564  1.00  0.00     0.108 A 
HETATM    6  C6  UNK     1      19.270   6.420  33.051  1.00  0.00     0.037 A 
HETATM    7  C1  UNK     1      19.235   7.798  33.515  1.00  0.00    -0.001 A 
HETATM    8  C8  UNK     1      20.364   8.438  34.032  1.00  0.00     0.014 A 
HETATM    9  C5  UNK     1      18.038   8.502  33.443  1.00  0.00     0.089 A 
HETATM   10  C13 UNK     1      20.278   9.765  34.465  1.00  0.00     0.001 A 
HETATM   11  C14 UNK     1      19.067  10.456  34.385  1.00  0.00     0.003 A 
HETATM   12  C10 UNK     1      17.937   9.824  33.871  1.00  0.00     0.038 A 
HETATM   13  O1  UNK     1      16.878   7.890  32.929  1.00  0.00    -0.274 OA
HETATM   14  C9  UNK     1      16.881   6.573  32.478  1.00  0.00     0.304 A 
HETATM   15  O3  UNK     1      15.865   6.050  32.031  1.00  0.00    -0.259 OA
ENDBRANCH   3   5
BRANCH   2  16
HETATM   16  C2  UNK     1      18.135   2.109  32.940  1.00  0.00     0.161 C 
BRANCH  16  17
HETATM   17  C4  UNK     1      18.120   1.364  34.244  1.00  0.00    -0.040 A 
HETATM   18  C11 UNK     1      18.291   2.059  35.435  1.00  0.00     0.010 A 
HETATM   19  C15 UNK     1      18.278   1.367  36.646  1.00  0.00     0.024 A 
HETATM   20  C17 UNK     1      18.094  -0.016  36.657  1.00  0.00     0.034 A 
HETATM   21  C16 UNK     1      17.922  -0.706  35.457  1.00  0.00     0.024 A 
HETATM   22 Cl1  UNK     1      18.080  -0.870  38.151  1.00  0.00    -0.084 Cl
HETATM   23  C12 UNK     1      17.935  -0.014  34.246  1.00  0.00     0.010 A 
ENDBRANCH  16  17
ENDBRANCH   2  16
TORSDOF 3
ENDMDL
