MODEL 1
REMARK VINA RESULT:      -8.9      0.000      0.000
REMARK  7 active torsions:
REMARK  status: ('A' for Active; 'I' for Inactive)
REMARK    1  A    between atoms: C3_9  and  O1_1 
REMARK    2  A    between atoms: C5_11  and  O1_1 
REMARK       I    between atoms: C20_26  and  N1_5 
REMARK    3  A    between atoms: N1_5  and  N2_6 
REMARK    4  A    between atoms: C1_7  and  C2_8 
REMARK    5  A    between atoms: C1_7  and  C3_9 
REMARK    6  A    between atoms: C20_26  and  C8_14 
REMARK    7  A    between atoms: C12_18  and  C21_27 
ROOT
HETATM    1  O4  UNK     1      21.300  -3.574  32.474  1.00  0.00    -0.266 OA
HETATM    2  N1  UNK     1      20.257  -2.349  34.139  1.00  0.00    -0.243 N 
HETATM    3  C20 UNK     1      20.655  -2.594  32.838  1.00  0.00     0.271 C 
HETATM    4  H20 UNK     1      19.775  -1.508  34.437  1.00  0.00     0.192 HD
ENDROOT
BRANCH   2   5
HETATM    5  N2  UNK     1      20.592  -3.246  35.097  1.00  0.00    -0.183 NA
HETATM    6  C21 UNK     1      19.658  -4.099  35.370  1.00  0.00     0.156 C 
BRANCH   6   7
HETATM    7  C12 UNK     1      19.822  -5.148  36.376  1.00  0.00     0.056 A 
HETATM    8  C9  UNK     1      19.262  -6.510  36.237  1.00  0.00     0.198 A 
HETATM    9  C6  UNK     1      19.531  -7.435  37.354  1.00  0.00     0.049 A 
HETATM   10  O3  UNK     1      18.612  -6.851  35.257  1.00  0.00    -0.286 OA
HETATM   11  C15 UNK     1      19.047  -8.746  37.324  1.00  0.00     0.018 A 
HETATM   12  C7  UNK     1      20.276  -6.985  38.444  1.00  0.00     0.089 A 
HETATM   13  C18 UNK     1      19.315  -9.601  38.394  1.00  0.00     0.001 A 
HETATM   14  C19 UNK     1      20.059  -9.152  39.484  1.00  0.00     0.003 A 
HETATM   15  C16 UNK     1      20.542  -7.843  39.512  1.00  0.00     0.038 A 
HETATM   16  O2  UNK     1      20.776  -5.708  38.527  1.00  0.00    -0.321 OA
HETATM   17  C17 UNK     1      20.519  -4.855  37.479  1.00  0.00     0.159 A 
ENDBRANCH   6   7
ENDBRANCH   2   5
BRANCH   3  18
HETATM   18  C8  UNK     1      20.274  -1.560  31.840  1.00  0.00     0.033 A 
HETATM   19  C13 UNK     1      20.746  -1.674  30.550  1.00  0.00     0.020 A 
HETATM   20  C10 UNK     1      20.388  -0.703  29.614  1.00  0.00     0.038 A 
HETATM   21  C5  UNK     1      19.567   0.359  29.990  1.00  0.00     0.068 A 
HETATM   22  C11 UNK     1      19.103   0.450  31.302  1.00  0.00     0.038 A 
HETATM   23  C14 UNK     1      19.460  -0.520  32.238  1.00  0.00     0.020 A 
BRANCH  21  24
HETATM   24  O1  UNK     1      19.218   1.305  29.077  1.00  0.00    -0.351 OA
BRANCH  24  25
HETATM   25  C3  UNK     1      18.117   2.151  29.407  1.00  0.00     0.175 C 
BRANCH  25  26
HETATM   26  C1  UNK     1      18.552   3.603  29.259  1.00  0.00     0.026 C 
BRANCH  26  27
HETATM   27  C2  UNK     1      18.992   4.197  30.594  1.00  0.00    -0.002 C 
HETATM   28  C4  UNK     1      19.735   5.509  30.402  1.00  0.00     0.005 C 
ENDBRANCH  26  27
ENDBRANCH  25  26
ENDBRANCH  24  25
ENDBRANCH  21  24
ENDBRANCH   3  18
TORSDOF 7
ENDMDL
MODEL 2
REMARK VINA RESULT:      -8.7      2.546      3.150
REMARK  7 active torsions:
REMARK  status: ('A' for Active; 'I' for Inactive)
REMARK    1  A    between atoms: C3_9  and  O1_1 
REMARK    2  A    between atoms: C5_11  and  O1_1 
REMARK       I    between atoms: C20_26  and  N1_5 
REMARK    3  A    between atoms: N1_5  and  N2_6 
REMARK    4  A    between atoms: C1_7  and  C2_8 
REMARK    5  A    between atoms: C1_7  and  C3_9 
REMARK    6  A    between atoms: C20_26  and  C8_14 
REMARK    7  A    between atoms: C12_18  and  C21_27 
ROOT
HETATM    1  O4  UNK     1      18.589  -2.020  37.190  1.00  0.00    -0.266 OA
HETATM    2  N1  UNK     1      19.958  -2.674  35.440  1.00  0.00    -0.243 N 
HETATM    3  C20 UNK     1      19.098  -1.809  36.092  1.00  0.00     0.271 C 
HETATM    4  H20 UNK     1      20.327  -2.513  34.509  1.00  0.00     0.192 HD
ENDROOT
BRANCH   2   5
HETATM    5  N2  UNK     1      20.276  -3.845  36.042  1.00  0.00    -0.183 NA
HETATM    6  C21 UNK     1      19.734  -4.884  35.492  1.00  0.00     0.156 C 
BRANCH   6   7
HETATM    7  C12 UNK     1      19.953  -6.241  35.992  1.00  0.00     0.056 A 
HETATM    8  C9  UNK     1      20.615  -7.306  35.209  1.00  0.00     0.198 A 
HETATM    9  C6  UNK     1      20.748  -8.613  35.880  1.00  0.00     0.049 A 
HETATM   10  O3  UNK     1      21.026  -7.118  34.072  1.00  0.00    -0.286 OA
HETATM   11  C15 UNK     1      21.357  -9.688  35.228  1.00  0.00     0.018 A 
HETATM   12  C7  UNK     1      20.256  -8.764  37.176  1.00  0.00     0.089 A 
HETATM   13  C18 UNK     1      21.470 -10.915  35.884  1.00  0.00     0.001 A 
HETATM   14  C19 UNK     1      20.978 -11.066  37.181  1.00  0.00     0.003 A 
HETATM   15  C16 UNK     1      20.370  -9.991  37.830  1.00  0.00     0.038 A 
HETATM   16  O2  UNK     1      19.648  -7.741  37.865  1.00  0.00    -0.321 OA
HETATM   17  C17 UNK     1      19.530  -6.528  37.228  1.00  0.00     0.159 A 
ENDBRANCH   6   7
ENDBRANCH   2   5
BRANCH   3  18
HETATM   18  C8  UNK     1      18.774  -0.552  35.368  1.00  0.00     0.033 A 
HETATM   19  C13 UNK     1      18.591  -0.598  34.003  1.00  0.00     0.020 A 
HETATM   20  C10 UNK     1      18.286   0.583  33.324  1.00  0.00     0.038 A 
HETATM   21  C5  UNK     1      18.173   1.782  34.027  1.00  0.00     0.068 A 
HETATM   22  C11 UNK     1      18.362   1.800  35.408  1.00  0.00     0.038 A 
HETATM   23  C14 UNK     1      18.666   0.620  36.088  1.00  0.00     0.020 A 
BRANCH  21  24
HETATM   24  O1  UNK     1      17.876   2.932  33.364  1.00  0.00    -0.351 OA
BRANCH  24  25
HETATM   25  C3  UNK     1      18.207   2.986  31.977  1.00  0.00     0.175 C 
BRANCH  25  26
HETATM   26  C1  UNK     1      18.278   4.444  31.545  1.00  0.00     0.026 C 
BRANCH  26  27
HETATM   27  C2  UNK     1      19.053   4.608  30.240  1.00  0.00    -0.002 C 
HETATM   28  C4  UNK     1      20.032   5.767  30.315  1.00  0.00     0.005 C 
ENDBRANCH  26  27
ENDBRANCH  25  26
ENDBRANCH  24  25
ENDBRANCH  21  24
ENDBRANCH   3  18
TORSDOF 7
ENDMDL
MODEL 3
REMARK VINA RESULT:      -8.7      1.223      2.157
REMARK  7 active torsions:
REMARK  status: ('A' for Active; 'I' for Inactive)
REMARK    1  A    between atoms: C3_9  and  O1_1 
REMARK    2  A    between atoms: C5_11  and  O1_1 
REMARK       I    between atoms: C20_26  and  N1_5 
REMARK    3  A    between atoms: N1_5  and  N2_6 
REMARK    4  A    between atoms: C1_7  and  C2_8 
REMARK    5  A    between atoms: C1_7  and  C3_9 
REMARK    6  A    between atoms: C20_26  and  C8_14 
REMARK    7  A    between atoms: C12_18  and  C21_27 
ROOT
HETATM    1  O4  UNK     1      21.229  -3.540  32.323  1.00  0.00    -0.266 OA
HETATM    2  N1  UNK     1      20.047  -2.862  34.195  1.00  0.00    -0.243 N 
HETATM    3  C20 UNK     1      20.510  -2.727  32.899  1.00  0.00     0.271 C 
HETATM    4  H20 UNK     1      19.500  -2.157  34.678  1.00  0.00     0.192 HD
ENDROOT
BRANCH   2   5
HETATM    5  N2  UNK     1      20.400  -3.965  34.897  1.00  0.00    -0.183 NA
HETATM    6  C21 UNK     1      19.663  -4.187  35.936  1.00  0.00     0.156 C 
BRANCH   6   7
HETATM    7  C12 UNK     1      19.882  -5.327  36.825  1.00  0.00     0.056 A 
HETATM    8  C9  UNK     1      21.130  -5.543  37.590  1.00  0.00     0.198 A 
HETATM    9  C6  UNK     1      21.168  -6.750  38.436  1.00  0.00     0.049 A 
HETATM   10  O3  UNK     1      22.075  -4.769  37.524  1.00  0.00    -0.286 OA
HETATM   11  C15 UNK     1      22.300  -7.047  39.199  1.00  0.00     0.018 A 
HETATM   12  C7  UNK     1      20.058  -7.594  38.466  1.00  0.00     0.089 A 
HETATM   13  C18 UNK     1      22.311  -8.196  39.992  1.00  0.00     0.001 A 
HETATM   14  C19 UNK     1      21.202  -9.041  40.021  1.00  0.00     0.003 A 
HETATM   15  C16 UNK     1      20.072  -8.741  39.259  1.00  0.00     0.038 A 
HETATM   16  O2  UNK     1      18.919  -7.350  37.737  1.00  0.00    -0.321 OA
HETATM   17  C17 UNK     1      18.895  -6.222  36.952  1.00  0.00     0.159 A 
ENDBRANCH   6   7
ENDBRANCH   2   5
BRANCH   3  18
HETATM   18  C8  UNK     1      20.103  -1.484  32.193  1.00  0.00     0.033 A 
HETATM   19  C13 UNK     1      19.097  -0.712  32.731  1.00  0.00     0.020 A 
HETATM   20  C10 UNK     1      18.715   0.455  32.067  1.00  0.00     0.038 A 
HETATM   21  C5  UNK     1      19.349   0.821  30.880  1.00  0.00     0.068 A 
HETATM   22  C11 UNK     1      20.365   0.021  30.357  1.00  0.00     0.038 A 
HETATM   23  C14 UNK     1      20.747  -1.145  31.021  1.00  0.00     0.020 A 
BRANCH  21  24
HETATM   24  O1  UNK     1      18.977   1.959  30.234  1.00  0.00    -0.351 OA
BRANCH  24  25
HETATM   25  C3  UNK     1      18.330   2.966  31.012  1.00  0.00     0.175 C 
BRANCH  25  26
HETATM   26  C1  UNK     1      18.956   4.315  30.688  1.00  0.00     0.026 C 
BRANCH  26  27
HETATM   27  C2  UNK     1      18.779   5.308  31.834  1.00  0.00    -0.002 C 
HETATM   28  C4  UNK     1      18.167   4.645  33.057  1.00  0.00     0.005 C 
ENDBRANCH  26  27
ENDBRANCH  25  26
ENDBRANCH  24  25
ENDBRANCH  21  24
ENDBRANCH   3  18
TORSDOF 7
ENDMDL
MODEL 4
REMARK VINA RESULT:      -8.6      2.682      3.580
REMARK  7 active torsions:
REMARK  status: ('A' for Active; 'I' for Inactive)
REMARK    1  A    between atoms: C3_9  and  O1_1 
REMARK    2  A    between atoms: C5_11  and  O1_1 
REMARK       I    between atoms: C20_26  and  N1_5 
REMARK    3  A    between atoms: N1_5  and  N2_6 
REMARK    4  A    between atoms: C1_7  and  C2_8 
REMARK    5  A    between atoms: C1_7  and  C3_9 
REMARK    6  A    between atoms: C20_26  and  C8_14 
REMARK    7  A    between atoms: C12_18  and  C21_27 
ROOT
HETATM    1  O4  UNK     1      17.823  -0.662  37.336  1.00  0.00    -0.266 OA
HETATM    2  N1  UNK     1      19.447  -1.644  36.009  1.00  0.00    -0.243 N 
HETATM    3  C20 UNK     1      18.539  -0.655  36.337  1.00  0.00     0.271 C 
HETATM    4  H20 UNK     1      19.991  -1.654  35.154  1.00  0.00     0.192 HD
ENDROOT
BRANCH   2   5
HETATM    5  N2  UNK     1      19.572  -2.708  36.839  1.00  0.00    -0.183 NA
HETATM    6  C21 UNK     1      19.662  -3.845  36.228  1.00  0.00     0.156 C 
BRANCH   6   7
HETATM    7  C12 UNK     1      19.803  -5.112  36.944  1.00  0.00     0.056 A 
HETATM    8  C9  UNK     1      21.036  -5.519  37.654  1.00  0.00     0.198 A 
HETATM    9  C6  UNK     1      20.991  -6.834  38.322  1.00  0.00     0.049 A 
HETATM   10  O3  UNK     1      22.033  -4.811  37.685  1.00  0.00    -0.286 OA
HETATM   11  C15 UNK     1      22.102  -7.314  39.020  1.00  0.00     0.018 A 
HETATM   12  C7  UNK     1      19.824  -7.594  38.247  1.00  0.00     0.089 A 
HETATM   13  C18 UNK     1      22.035  -8.562  39.643  1.00  0.00     0.001 A 
HETATM   14  C19 UNK     1      20.869  -9.323  39.568  1.00  0.00     0.003 A 
HETATM   15  C16 UNK     1      19.760  -8.841  38.870  1.00  0.00     0.038 A 
HETATM   16  O2  UNK     1      18.703  -7.172  37.574  1.00  0.00    -0.321 OA
HETATM   17  C17 UNK     1      18.757  -5.944  36.957  1.00  0.00     0.159 A 
ENDBRANCH   6   7
ENDBRANCH   2   5
BRANCH   3  18
HETATM   18  C8  UNK     1      18.435   0.473  35.375  1.00  0.00     0.033 A 
HETATM   19  C13 UNK     1      18.503   1.764  35.853  1.00  0.00     0.020 A 
HETATM   20  C10 UNK     1      18.406   2.823  34.948  1.00  0.00     0.038 A 
HETATM   21  C5  UNK     1      18.243   2.564  33.587  1.00  0.00     0.068 A 
HETATM   22  C11 UNK     1      18.178   1.248  33.131  1.00  0.00     0.038 A 
HETATM   23  C14 UNK     1      18.275   0.190  34.034  1.00  0.00     0.020 A 
BRANCH  21  24
HETATM   24  O1  UNK     1      18.148   3.597  32.706  1.00  0.00    -0.351 OA
BRANCH  24  25
HETATM   25  C3  UNK     1      18.120   4.915  33.252  1.00  0.00     0.175 C 
BRANCH  25  26
HETATM   26  C1  UNK     1      18.278   5.919  32.119  1.00  0.00     0.026 C 
BRANCH  26  27
HETATM   27  C2  UNK     1      19.734   6.051  31.682  1.00  0.00    -0.002 C 
HETATM   28  C4  UNK     1      19.895   5.795  30.193  1.00  0.00     0.005 C 
ENDBRANCH  26  27
ENDBRANCH  25  26
ENDBRANCH  24  25
ENDBRANCH  21  24
ENDBRANCH   3  18
TORSDOF 7
ENDMDL
MODEL 5
REMARK VINA RESULT:      -8.6      2.717      3.233
REMARK  7 active torsions:
REMARK  status: ('A' for Active; 'I' for Inactive)
REMARK    1  A    between atoms: C3_9  and  O1_1 
REMARK    2  A    between atoms: C5_11  and  O1_1 
REMARK       I    between atoms: C20_26  and  N1_5 
REMARK    3  A    between atoms: N1_5  and  N2_6 
REMARK    4  A    between atoms: C1_7  and  C2_8 
REMARK    5  A    between atoms: C1_7  and  C3_9 
REMARK    6  A    between atoms: C20_26  and  C8_14 
REMARK    7  A    between atoms: C12_18  and  C21_27 
ROOT
HETATM    1  O4  UNK     1      17.890  -0.599  37.554  1.00  0.00    -0.266 OA
HETATM    2  N1  UNK     1      19.379  -1.668  36.140  1.00  0.00    -0.243 N 
HETATM    3  C20 UNK     1      18.540  -0.635  36.512  1.00  0.00     0.271 C 
HETATM    4  H20 UNK     1      19.867  -1.712  35.251  1.00  0.00     0.192 HD
ENDROOT
BRANCH   2   5
HETATM    5  N2  UNK     1      19.509  -2.729  36.972  1.00  0.00    -0.183 NA
HETATM    6  C21 UNK     1      20.088  -3.753  36.435  1.00  0.00     0.156 C 
BRANCH   6   7
HETATM    7  C12 UNK     1      20.322  -4.997  37.168  1.00  0.00     0.056 A 
HETATM    8  C9  UNK     1      19.391  -6.147  37.149  1.00  0.00     0.198 A 
HETATM    9  C6  UNK     1      19.795  -7.318  37.950  1.00  0.00     0.049 A 
HETATM   10  O3  UNK     1      18.348  -6.129  36.510  1.00  0.00    -0.286 OA
HETATM   11  C15 UNK     1      18.988  -8.456  38.001  1.00  0.00     0.018 A 
HETATM   12  C7  UNK     1      20.997  -7.274  38.658  1.00  0.00     0.089 A 
HETATM   13  C18 UNK     1      19.393  -9.551  38.767  1.00  0.00     0.001 A 
HETATM   14  C19 UNK     1      20.593  -9.508  39.476  1.00  0.00     0.003 A 
HETATM   15  C16 UNK     1      21.398  -8.369  39.422  1.00  0.00     0.038 A 
HETATM   16  O2  UNK     1      21.829  -6.181  38.644  1.00  0.00    -0.321 OA
HETATM   17  C17 UNK     1      21.441  -5.096  37.893  1.00  0.00     0.159 A 
ENDBRANCH   6   7
ENDBRANCH   2   5
BRANCH   3  18
HETATM   18  C8  UNK     1      18.427   0.488  35.544  1.00  0.00     0.033 A 
HETATM   19  C13 UNK     1      18.189   0.201  34.217  1.00  0.00     0.020 A 
HETATM   20  C10 UNK     1      18.083   1.255  33.309  1.00  0.00     0.038 A 
HETATM   21  C5  UNK     1      18.218   2.571  33.750  1.00  0.00     0.068 A 
HETATM   22  C11 UNK     1      18.458   2.834  35.098  1.00  0.00     0.038 A 
HETATM   23  C14 UNK     1      18.564   1.780  36.007  1.00  0.00     0.020 A 
BRANCH  21  24
HETATM   24  O1  UNK     1      18.114   3.598  32.864  1.00  0.00    -0.351 OA
BRANCH  24  25
HETATM   25  C3  UNK     1      18.173   4.922  33.395  1.00  0.00     0.175 C 
BRANCH  25  26
HETATM   26  C1  UNK     1      18.288   5.909  32.241  1.00  0.00     0.026 C 
BRANCH  26  27
HETATM   27  C2  UNK     1      19.695   5.923  31.649  1.00  0.00    -0.002 C 
HETATM   28  C4  UNK     1      19.660   5.895  30.130  1.00  0.00     0.005 C 
ENDBRANCH  26  27
ENDBRANCH  25  26
ENDBRANCH  24  25
ENDBRANCH  21  24
ENDBRANCH   3  18
TORSDOF 7
ENDMDL
MODEL 6
REMARK VINA RESULT:      -8.6      2.845     10.556
REMARK  7 active torsions:
REMARK  status: ('A' for Active; 'I' for Inactive)
REMARK    1  A    between atoms: C3_9  and  O1_1 
REMARK    2  A    between atoms: C5_11  and  O1_1 
REMARK       I    between atoms: C20_26  and  N1_5 
REMARK    3  A    between atoms: N1_5  and  N2_6 
REMARK    4  A    between atoms: C1_7  and  C2_8 
REMARK    5  A    between atoms: C1_7  and  C3_9 
REMARK    6  A    between atoms: C20_26  and  C8_14 
REMARK    7  A    between atoms: C12_18  and  C21_27 
ROOT
HETATM    1  O4  UNK     1      20.945  -3.547  36.132  1.00  0.00    -0.266 OA
HETATM    2  N1  UNK     1      18.927  -2.929  37.085  1.00  0.00    -0.243 N 
HETATM    3  C20 UNK     1      19.926  -3.827  36.759  1.00  0.00     0.271 C 
HETATM    4  H20 UNK     1      18.065  -3.184  37.554  1.00  0.00     0.192 HD
ENDROOT
BRANCH   2   5
HETATM    5  N2  UNK     1      19.063  -1.639  36.693  1.00  0.00    -0.183 NA
HETATM    6  C21 UNK     1      18.297  -1.305  35.705  1.00  0.00     0.156 C 
BRANCH   6   7
HETATM    7  C12 UNK     1      18.295   0.042  35.135  1.00  0.00     0.056 A 
HETATM    8  C9  UNK     1      18.287   0.316  33.681  1.00  0.00     0.198 A 
HETATM    9  C6  UNK     1      18.284   1.739  33.292  1.00  0.00     0.049 A 
HETATM   10  O3  UNK     1      18.285  -0.582  32.849  1.00  0.00    -0.286 OA
HETATM   11  C15 UNK     1      18.278   2.108  31.945  1.00  0.00     0.018 A 
HETATM   12  C7  UNK     1      18.289   2.715  34.289  1.00  0.00     0.089 A 
HETATM   13  C18 UNK     1      18.276   3.461  31.603  1.00  0.00     0.001 A 
HETATM   14  C19 UNK     1      18.282   4.438  32.599  1.00  0.00     0.003 A 
HETATM   15  C16 UNK     1      18.288   4.066  33.945  1.00  0.00     0.038 A 
HETATM   16  O2  UNK     1      18.296   2.410  35.629  1.00  0.00    -0.321 OA
HETATM   17  C17 UNK     1      18.298   1.080  35.978  1.00  0.00     0.159 A 
ENDBRANCH   6   7
ENDBRANCH   2   5
BRANCH   3  18
HETATM   18  C8  UNK     1      19.705  -5.229  37.200  1.00  0.00     0.033 A 
HETATM   19  C13 UNK     1      18.743  -5.983  36.562  1.00  0.00     0.020 A 
HETATM   20  C10 UNK     1      18.536  -7.300  36.977  1.00  0.00     0.038 A 
HETATM   21  C5  UNK     1      19.294  -7.830  38.020  1.00  0.00     0.068 A 
HETATM   22  C11 UNK     1      20.261  -7.045  38.648  1.00  0.00     0.038 A 
HETATM   23  C14 UNK     1      20.469  -5.729  38.234  1.00  0.00     0.020 A 
BRANCH  21  24
HETATM   24  O1  UNK     1      19.091  -9.113  38.424  1.00  0.00    -0.351 OA
BRANCH  24  25
HETATM   25  C3  UNK     1      19.245 -10.135  37.439  1.00  0.00     0.175 C 
BRANCH  25  26
HETATM   26  C1  UNK     1      20.687 -10.623  37.458  1.00  0.00     0.026 C 
BRANCH  26  27
HETATM   27  C2  UNK     1      21.273 -10.703  36.051  1.00  0.00    -0.002 C 
HETATM   28  C4  UNK     1      21.311  -9.338  35.384  1.00  0.00     0.005 C 
ENDBRANCH  26  27
ENDBRANCH  25  26
ENDBRANCH  24  25
ENDBRANCH  21  24
ENDBRANCH   3  18
TORSDOF 7
ENDMDL
MODEL 7
REMARK VINA RESULT:      -8.5      6.041      9.874
REMARK  7 active torsions:
REMARK  status: ('A' for Active; 'I' for Inactive)
REMARK    1  A    between atoms: C3_9  and  O1_1 
REMARK    2  A    between atoms: C5_11  and  O1_1 
REMARK       I    between atoms: C20_26  and  N1_5 
REMARK    3  A    between atoms: N1_5  and  N2_6 
REMARK    4  A    between atoms: C1_7  and  C2_8 
REMARK    5  A    between atoms: C1_7  and  C3_9 
REMARK    6  A    between atoms: C20_26  and  C8_14 
REMARK    7  A    between atoms: C12_18  and  C21_27 
ROOT
HETATM    1  O4  UNK     1      19.007   5.652  33.843  1.00  0.00    -0.266 OA
HETATM    2  N1  UNK     1      17.914   5.411  31.816  1.00  0.00    -0.243 N 
HETATM    3  C20 UNK     1      18.148   6.009  33.040  1.00  0.00     0.271 C 
HETATM    4  H20 UNK     1      17.165   5.679  31.187  1.00  0.00     0.192 HD
ENDROOT
BRANCH   2   5
HETATM    5  N2  UNK     1      18.680   4.353  31.456  1.00  0.00    -0.183 NA
HETATM    6  C21 UNK     1      18.006   3.283  31.184  1.00  0.00     0.156 C 
BRANCH   6   7
HETATM    7  C12 UNK     1      18.648   2.033  30.776  1.00  0.00     0.056 A 
HETATM    8  C9  UNK     1      18.942   0.922  31.706  1.00  0.00     0.198 A 
HETATM    9  C6  UNK     1      19.592  -0.261  31.112  1.00  0.00     0.049 A 
HETATM   10  O3  UNK     1      18.666   0.979  32.897  1.00  0.00    -0.286 OA
HETATM   11  C15 UNK     1      19.915  -1.367  31.903  1.00  0.00     0.018 A 
HETATM   12  C7  UNK     1      19.884  -0.263  29.748  1.00  0.00     0.089 A 
HETATM   13  C18 UNK     1      20.531  -2.474  31.317  1.00  0.00     0.001 A 
HETATM   14  C19 UNK     1      20.823  -2.477  29.953  1.00  0.00     0.003 A 
HETATM   15  C16 UNK     1      20.499  -1.371  29.165  1.00  0.00     0.038 A 
HETATM   16  O2  UNK     1      19.589   0.796  28.923  1.00  0.00    -0.321 OA
HETATM   17  C17 UNK     1      18.983   1.893  29.489  1.00  0.00     0.159 A 
ENDBRANCH   6   7
ENDBRANCH   2   5
BRANCH   3  18
HETATM   18  C8  UNK     1      17.260   7.150  33.383  1.00  0.00     0.033 A 
HETATM   19  C13 UNK     1      16.590   7.800  32.369  1.00  0.00     0.020 A 
HETATM   20  C10 UNK     1      15.755   8.871  32.692  1.00  0.00     0.038 A 
HETATM   21  C5  UNK     1      15.612   9.267  34.021  1.00  0.00     0.068 A 
HETATM   22  C11 UNK     1      16.301   8.592  35.028  1.00  0.00     0.038 A 
HETATM   23  C14 UNK     1      17.135   7.520  34.706  1.00  0.00     0.020 A 
BRANCH  21  24
HETATM   24  O1  UNK     1      14.798  10.311  34.335  1.00  0.00    -0.351 OA
BRANCH  24  25
HETATM   25  C3  UNK     1      15.381  11.392  35.063  1.00  0.00     0.175 C 
BRANCH  25  26
HETATM   26  C1  UNK     1      16.302  12.170  34.134  1.00  0.00     0.026 C 
BRANCH  26  27
HETATM   27  C2  UNK     1      17.726  12.237  34.680  1.00  0.00    -0.002 C 
HETATM   28  C4  UNK     1      18.654  11.291  33.936  1.00  0.00     0.005 C 
ENDBRANCH  26  27
ENDBRANCH  25  26
ENDBRANCH  24  25
ENDBRANCH  21  24
ENDBRANCH   3  18
TORSDOF 7
ENDMDL
MODEL 8
REMARK VINA RESULT:      -8.5      6.311     10.391
REMARK  7 active torsions:
REMARK  status: ('A' for Active; 'I' for Inactive)
REMARK    1  A    between atoms: C3_9  and  O1_1 
REMARK    2  A    between atoms: C5_11  and  O1_1 
REMARK       I    between atoms: C20_26  and  N1_5 
REMARK    3  A    between atoms: N1_5  and  N2_6 
REMARK    4  A    between atoms: C1_7  and  C2_8 
REMARK    5  A    between atoms: C1_7  and  C3_9 
REMARK    6  A    between atoms: C20_26  and  C8_14 
REMARK    7  A    between atoms: C12_18  and  C21_27 
ROOT
HETATM    1  O4  UNK     1      19.834   6.786  32.630  1.00  0.00    -0.266 OA
HETATM    2  N1  UNK     1      17.866   5.767  31.960  1.00  0.00    -0.243 N 
HETATM    3  C20 UNK     1      18.607   6.749  32.591  1.00  0.00     0.271 C 
HETATM    4  H20 UNK     1      16.853   5.717  31.983  1.00  0.00     0.192 HD
ENDROOT
BRANCH   2   5
HETATM    5  N2  UNK     1      18.524   4.764  31.331  1.00  0.00    -0.183 NA
HETATM    6  C21 UNK     1      18.030   3.589  31.554  1.00  0.00     0.156 C 
BRANCH   6   7
HETATM    7  C12 UNK     1      18.597   2.375  30.968  1.00  0.00     0.056 A 
HETATM    8  C9  UNK     1      18.889   1.149  31.743  1.00  0.00     0.198 A 
HETATM    9  C6  UNK     1      19.458   0.023  30.980  1.00  0.00     0.049 A 
HETATM   10  O3  UNK     1      18.673   1.072  32.945  1.00  0.00    -0.286 OA
HETATM   11  C15 UNK     1      19.771  -1.181  31.616  1.00  0.00     0.018 A 
HETATM   12  C7  UNK     1      19.683   0.175  29.611  1.00  0.00     0.089 A 
HETATM   13  C18 UNK     1      20.310  -2.232  30.872  1.00  0.00     0.001 A 
HETATM   14  C19 UNK     1      20.536  -2.080  29.503  1.00  0.00     0.003 A 
HETATM   15  C16 UNK     1      20.223  -0.877  28.870  1.00  0.00     0.038 A 
HETATM   16  O2  UNK     1      19.395   1.335  28.934  1.00  0.00    -0.321 OA
HETATM   17  C17 UNK     1      18.864   2.378  29.657  1.00  0.00     0.159 A 
ENDBRANCH   6   7
ENDBRANCH   2   5
BRANCH   3  18
HETATM   18  C8  UNK     1      17.824   7.808  33.280  1.00  0.00     0.033 A 
HETATM   19  C13 UNK     1      16.513   7.551  33.622  1.00  0.00     0.020 A 
HETATM   20  C10 UNK     1      15.778   8.546  34.268  1.00  0.00     0.038 A 
HETATM   21  C5  UNK     1      16.372   9.775  34.557  1.00  0.00     0.068 A 
HETATM   22  C11 UNK     1      17.700  10.008  34.200  1.00  0.00     0.038 A 
HETATM   23  C14 UNK     1      18.435   9.014  33.554  1.00  0.00     0.020 A 
BRANCH  21  24
HETATM   24  O1  UNK     1      15.655  10.744  35.187  1.00  0.00    -0.351 OA
BRANCH  24  25
HETATM   25  C3  UNK     1      14.257  10.509  35.359  1.00  0.00     0.175 C 
BRANCH  25  26
HETATM   26  C1  UNK     1      13.547  11.849  35.490  1.00  0.00     0.026 C 
BRANCH  26  27
HETATM   27  C2  UNK     1      12.715  12.169  34.250  1.00  0.00    -0.002 C 
HETATM   28  C4  UNK     1      12.938  11.145  33.150  1.00  0.00     0.005 C 
ENDBRANCH  26  27
ENDBRANCH  25  26
ENDBRANCH  24  25
ENDBRANCH  21  24
ENDBRANCH   3  18
TORSDOF 7
ENDMDL
MODEL 9
REMARK VINA RESULT:      -8.4      1.860     10.494
REMARK  7 active torsions:
REMARK  status: ('A' for Active; 'I' for Inactive)
REMARK    1  A    between atoms: C3_9  and  O1_1 
REMARK    2  A    between atoms: C5_11  and  O1_1 
REMARK       I    between atoms: C20_26  and  N1_5 
REMARK    3  A    between atoms: N1_5  and  N2_6 
REMARK    4  A    between atoms: C1_7  and  C2_8 
REMARK    5  A    between atoms: C1_7  and  C3_9 
REMARK    6  A    between atoms: C20_26  and  C8_14 
REMARK    7  A    between atoms: C12_18  and  C21_27 
ROOT
HETATM    1  O4  UNK     1      20.478  -3.952  34.694  1.00  0.00    -0.266 OA
HETATM    2  N1  UNK     1      19.606  -2.544  36.313  1.00  0.00    -0.243 N 
HETATM    3  C20 UNK     1      20.033  -3.765  35.824  1.00  0.00     0.271 C 
HETATM    4  H20 UNK     1      19.189  -2.413  37.228  1.00  0.00     0.192 HD
ENDROOT
BRANCH   2   5
HETATM    5  N2  UNK     1      19.676  -1.463  35.500  1.00  0.00    -0.183 NA
HETATM    6  C21 UNK     1      18.713  -1.387  34.640  1.00  0.00     0.156 C 
BRANCH   6   7
HETATM    7  C12 UNK     1      18.608  -0.294  33.673  1.00  0.00     0.056 A 
HETATM    8  C9  UNK     1      19.041  -0.404  32.263  1.00  0.00     0.198 A 
HETATM    9  C6  UNK     1      18.856   0.803  31.435  1.00  0.00     0.049 A 
HETATM   10  O3  UNK     1      19.525  -1.432  31.808  1.00  0.00    -0.286 OA
HETATM   11  C15 UNK     1      19.232   0.807  30.090  1.00  0.00     0.018 A 
HETATM   12  C7  UNK     1      18.301   1.945  32.014  1.00  0.00     0.089 A 
HETATM   13  C18 UNK     1      19.048   1.963  29.329  1.00  0.00     0.001 A 
HETATM   14  C19 UNK     1      18.494   3.105  29.907  1.00  0.00     0.003 A 
HETATM   15  C16 UNK     1      18.119   3.098  31.251  1.00  0.00     0.038 A 
HETATM   16  O2  UNK     1      17.914   1.998  33.332  1.00  0.00    -0.321 OA
HETATM   17  C17 UNK     1      18.090   0.866  34.092  1.00  0.00     0.159 A 
ENDBRANCH   6   7
ENDBRANCH   2   5
BRANCH   3  18
HETATM   18  C8  UNK     1      19.910  -4.914  36.759  1.00  0.00     0.033 A 
HETATM   19  C13 UNK     1      18.873  -5.806  36.584  1.00  0.00     0.020 A 
HETATM   20  C10 UNK     1      18.758  -6.885  37.461  1.00  0.00     0.038 A 
HETATM   21  C5  UNK     1      19.682  -7.046  38.494  1.00  0.00     0.068 A 
HETATM   22  C11 UNK     1      20.721  -6.129  38.648  1.00  0.00     0.038 A 
HETATM   23  C14 UNK     1      20.837  -5.051  37.770  1.00  0.00     0.020 A 
BRANCH  21  24
HETATM   24  O1  UNK     1      19.569  -8.098  39.349  1.00  0.00    -0.351 OA
BRANCH  24  25
HETATM   25  C3  UNK     1      19.554  -9.404  38.772  1.00  0.00     0.175 C 
BRANCH  25  26
HETATM   26  C1  UNK     1      20.901  -9.665  38.112  1.00  0.00     0.026 C 
BRANCH  26  27
HETATM   27  C2  UNK     1      20.741 -10.083  36.653  1.00  0.00    -0.002 C 
HETATM   28  C4  UNK     1      21.419  -9.100  35.713  1.00  0.00     0.005 C 
ENDBRANCH  26  27
ENDBRANCH  25  26
ENDBRANCH  24  25
ENDBRANCH  21  24
ENDBRANCH   3  18
TORSDOF 7
ENDMDL
MODEL 10
REMARK VINA RESULT:      -8.3      2.383     10.741
REMARK  7 active torsions:
REMARK  status: ('A' for Active; 'I' for Inactive)
REMARK    1  A    between atoms: C3_9  and  O1_1 
REMARK    2  A    between atoms: C5_11  and  O1_1 
REMARK       I    between atoms: C20_26  and  N1_5 
REMARK    3  A    between atoms: N1_5  and  N2_6 
REMARK    4  A    between atoms: C1_7  and  C2_8 
REMARK    5  A    between atoms: C1_7  and  C3_9 
REMARK    6  A    between atoms: C20_26  and  C8_14 
REMARK    7  A    between atoms: C12_18  and  C21_27 
ROOT
HETATM    1  O4  UNK     1      21.445  -2.854  36.137  1.00  0.00    -0.266 OA
HETATM    2  N1  UNK     1      19.178  -2.557  35.771  1.00  0.00    -0.243 N 
HETATM    3  C20 UNK     1      20.284  -3.242  36.240  1.00  0.00     0.271 C 
HETATM    4  H20 UNK     1      18.230  -2.915  35.812  1.00  0.00     0.192 HD
ENDROOT
BRANCH   2   5
HETATM    5  N2  UNK     1      19.368  -1.368  35.151  1.00  0.00    -0.183 NA
HETATM    6  C21 UNK     1      18.406  -1.029  34.356  1.00  0.00     0.156 C 
BRANCH   6   7
HETATM    7  C12 UNK     1      18.421   0.219  33.593  1.00  0.00     0.056 A 
HETATM    8  C9  UNK     1      18.218   1.553  34.200  1.00  0.00     0.198 A 
HETATM    9  C6  UNK     1      18.269   2.698  33.272  1.00  0.00     0.049 A 
HETATM   10  O3  UNK     1      18.019   1.700  35.398  1.00  0.00    -0.286 OA
HETATM   11  C15 UNK     1      18.089   4.002  33.741  1.00  0.00     0.018 A 
HETATM   12  C7  UNK     1      18.497   2.464  31.916  1.00  0.00     0.089 A 
HETATM   13  C18 UNK     1      18.140   5.069  32.843  1.00  0.00     0.001 A 
HETATM   14  C19 UNK     1      18.368   4.835  31.486  1.00  0.00     0.003 A 
HETATM   15  C16 UNK     1      18.548   3.532  31.020  1.00  0.00     0.038 A 
HETATM   16  O2  UNK     1      18.681   1.204  31.399  1.00  0.00    -0.321 OA
HETATM   17  C17 UNK     1      18.632   0.145  32.275  1.00  0.00     0.159 A 
ENDBRANCH   6   7
ENDBRANCH   2   5
BRANCH   3  18
HETATM   18  C8  UNK     1      20.008  -4.549  36.891  1.00  0.00     0.033 A 
HETATM   19  C13 UNK     1      18.937  -5.299  36.451  1.00  0.00     0.020 A 
HETATM   20  C10 UNK     1      18.679  -6.526  37.062  1.00  0.00     0.038 A 
HETATM   21  C5  UNK     1      19.496  -6.975  38.100  1.00  0.00     0.068 A 
HETATM   22  C11 UNK     1      20.572  -6.197  38.525  1.00  0.00     0.038 A 
HETATM   23  C14 UNK     1      20.832  -4.970  37.914  1.00  0.00     0.020 A 
BRANCH  21  24
HETATM   24  O1  UNK     1      19.243  -8.171  38.695  1.00  0.00    -0.351 OA
BRANCH  24  25
HETATM   25  C3  UNK     1      18.985  -9.282  37.836  1.00  0.00     0.175 C 
BRANCH  25  26
HETATM   26  C1  UNK     1      20.269 -10.084  37.672  1.00  0.00     0.026 C 
BRANCH  26  27
HETATM   27  C2  UNK     1      20.884  -9.886  36.289  1.00  0.00    -0.002 C 
HETATM   28  C4  UNK     1      22.062  -8.927  36.335  1.00  0.00     0.005 C 
ENDBRANCH  26  27
ENDBRANCH  25  26
ENDBRANCH  24  25
ENDBRANCH  21  24
ENDBRANCH   3  18
TORSDOF 7
ENDMDL
