MODEL 1
REMARK VINA RESULT:      -9.0      0.000      0.000
REMARK  2 active torsions:
REMARK  status: ('A' for Active; 'I' for Inactive)
REMARK    1  A    between atoms: C5_11  and  N1_6 
REMARK       I    between atoms: C6_12  and  N1_6 
REMARK    2  A    between atoms: C2_8  and  C6_12 
ROOT
HETATM    1 Br1  UNK     1      21.204  -3.665  31.547  1.00  0.00    -0.051 Br
HETATM    2  O1  UNK     1      19.192   1.374  28.833  1.00  0.00    -0.274 OA
HETATM    3  O3  UNK     1      18.328   3.486  28.959  1.00  0.00    -0.259 OA
HETATM    4  C1  UNK     1      19.658   0.144  30.878  1.00  0.00     0.000 A 
HETATM    5  C2  UNK     1      18.741   2.383  31.015  1.00  0.00     0.108 A 
HETATM    6  C3  UNK     1      19.654   0.216  29.489  1.00  0.00     0.089 A 
HETATM    7  C4  UNK     1      19.178   1.284  31.643  1.00  0.00     0.037 A 
HETATM    8  C8  UNK     1      20.123  -1.022  31.491  1.00  0.00     0.033 A 
HETATM    9  C10 UNK     1      18.727   2.481  29.539  1.00  0.00     0.304 A 
HETATM   10  C11 UNK     1      20.100  -0.841  28.698  1.00  0.00     0.039 A 
HETATM   11  C14 UNK     1      20.574  -2.090  30.712  1.00  0.00     0.011 A 
HETATM   12  C15 UNK     1      20.563  -2.000  29.318  1.00  0.00     0.022 A 
ENDROOT
BRANCH   5  13
HETATM   13  C6  UNK     1      18.277   3.479  31.873  1.00  0.00     0.262 C 
HETATM   14  O2  UNK     1      17.582   3.231  32.858  1.00  0.00    -0.267 OA
HETATM   15  N1  UNK     1      18.715   4.717  31.424  1.00  0.00    -0.320 N 
HETATM   16  H2  UNK     1      19.270   4.757  30.573  1.00  0.00     0.169 HD
BRANCH  15  17
HETATM   17  C5  UNK     1      18.459   5.985  32.000  1.00  0.00     0.074 A 
HETATM   18  C12 UNK     1      19.425   6.575  32.799  1.00  0.00     0.143 A 
HETATM   19  C16 UNK     1      19.171   7.825  33.364  1.00  0.00     0.045 A 
HETATM   20  F1  UNK     1      20.596   5.968  33.036  1.00  0.00    -0.204 F 
HETATM   21  C13 UNK     1      17.955   8.466  33.123  1.00  0.00     0.010 A 
HETATM   22  C7  UNK     1      16.993   7.857  32.317  1.00  0.00    -0.060 A 
HETATM   23  C17 UNK     1      15.694   8.542  32.060  1.00  0.00     0.048 C 
HETATM   24  C9  UNK     1      17.247   6.608  31.751  1.00  0.00     0.039 A 
ENDBRANCH  15  17
ENDBRANCH   5  13
TORSDOF 2
ENDMDL
MODEL 2
REMARK VINA RESULT:      -9.0     14.265     16.542
REMARK  2 active torsions:
REMARK  status: ('A' for Active; 'I' for Inactive)
REMARK    1  A    between atoms: C5_11  and  N1_6 
REMARK       I    between atoms: C6_12  and  N1_6 
REMARK    2  A    between atoms: C2_8  and  C6_12 
ROOT
HETATM    1 Br1  UNK     1      18.134  -8.223  12.686  1.00  0.00    -0.051 Br
HETATM    2  O1  UNK     1      19.436  -2.299  12.829  1.00  0.00    -0.274 OA
HETATM    3  O3  UNK     1      19.471  -0.302  13.938  1.00  0.00    -0.259 OA
HETATM    4  C1  UNK     1      18.558  -4.275  13.942  1.00  0.00     0.000 A 
HETATM    5  C2  UNK     1      18.593  -2.157  15.120  1.00  0.00     0.108 A 
HETATM    6  C3  UNK     1      19.124  -3.673  12.822  1.00  0.00     0.089 A 
HETATM    7  C4  UNK     1      18.294  -3.462  15.120  1.00  0.00     0.037 A 
HETATM    8  C8  UNK     1      18.262  -5.639  13.897  1.00  0.00     0.033 A 
HETATM    9  C10 UNK     1      19.195  -1.496  13.941  1.00  0.00     0.304 A 
HETATM   10  C11 UNK     1      19.402  -4.394  11.664  1.00  0.00     0.039 A 
HETATM   11  C14 UNK     1      18.535  -6.376  12.741  1.00  0.00     0.011 A 
HETATM   12  C15 UNK     1      19.104  -5.755  11.627  1.00  0.00     0.022 A 
ENDROOT
BRANCH   5  13
HETATM   13  C6  UNK     1      18.290  -1.423  16.354  1.00  0.00     0.262 C 
HETATM   14  O2  UNK     1      17.323  -1.754  17.039  1.00  0.00    -0.267 OA
HETATM   15  N1  UNK     1      19.193  -0.396  16.588  1.00  0.00    -0.320 N 
HETATM   16  H2  UNK     1      19.933  -0.235  15.909  1.00  0.00     0.169 HD
BRANCH  15  17
HETATM   17  C5  UNK     1      19.206   0.512  17.674  1.00  0.00     0.074 A 
HETATM   18  C12 UNK     1      19.060   1.868  17.429  1.00  0.00     0.143 A 
HETATM   19  C16 UNK     1      19.072   2.759  18.501  1.00  0.00     0.045 A 
HETATM   20  F1  UNK     1      18.907   2.335  16.182  1.00  0.00    -0.204 F 
HETATM   21  C13 UNK     1      19.231   2.284  19.803  1.00  0.00     0.010 A 
HETATM   22  C7  UNK     1      19.377   0.916  20.032  1.00  0.00    -0.060 A 
HETATM   23  C17 UNK     1      19.547   0.408  21.424  1.00  0.00     0.048 C 
HETATM   24  C9  UNK     1      19.365   0.024  18.961  1.00  0.00     0.039 A 
ENDBRANCH  15  17
ENDBRANCH   5  13
TORSDOF 2
ENDMDL
MODEL 3
REMARK VINA RESULT:      -8.6      7.581     11.527
REMARK  2 active torsions:
REMARK  status: ('A' for Active; 'I' for Inactive)
REMARK    1  A    between atoms: C5_11  and  N1_6 
REMARK       I    between atoms: C6_12  and  N1_6 
REMARK    2  A    between atoms: C2_8  and  C6_12 
ROOT
HETATM    1 Br1  UNK     1      16.101   1.935  37.563  1.00  0.00    -0.051 Br
HETATM    2  O1  UNK     1      19.582  -1.534  34.005  1.00  0.00    -0.274 OA
HETATM    3  O3  UNK     1      20.789  -3.444  33.665  1.00  0.00    -0.259 OA
HETATM    4  C1  UNK     1      18.459  -1.187  36.134  1.00  0.00     0.000 A 
HETATM    5  C2  UNK     1      19.739  -3.213  35.777  1.00  0.00     0.108 A 
HETATM    6  C3  UNK     1      18.776  -0.748  34.852  1.00  0.00     0.089 A 
HETATM    7  C4  UNK     1      18.974  -2.470  36.585  1.00  0.00     0.037 A 
HETATM    8  C8  UNK     1      17.657  -0.379  36.943  1.00  0.00     0.033 A 
HETATM    9  C10 UNK     1      20.089  -2.766  34.410  1.00  0.00     0.304 A 
HETATM   10  C11 UNK     1      18.315   0.471  34.359  1.00  0.00     0.039 A 
HETATM   11  C14 UNK     1      17.187   0.847  36.463  1.00  0.00     0.011 A 
HETATM   12  C15 UNK     1      17.516   1.270  35.173  1.00  0.00     0.022 A 
ENDROOT
BRANCH   5  13
HETATM   13  C6  UNK     1      20.209  -4.491  36.322  1.00  0.00     0.262 C 
HETATM   14  O2  UNK     1      21.146  -4.506  37.120  1.00  0.00    -0.267 OA
HETATM   15  N1  UNK     1      19.487  -5.569  35.829  1.00  0.00    -0.320 N 
HETATM   16  H2  UNK     1      18.749  -5.391  35.152  1.00  0.00     0.169 HD
BRANCH  15  17
HETATM   17  C5  UNK     1      19.665  -6.940  36.135  1.00  0.00     0.074 A 
HETATM   18  C12 UNK     1      18.899  -7.519  37.133  1.00  0.00     0.143 A 
HETATM   19  C16 UNK     1      19.075  -8.870  37.431  1.00  0.00     0.045 A 
HETATM   20  F1  UNK     1      17.992  -6.805  37.815  1.00  0.00    -0.204 F 
HETATM   21  C13 UNK     1      20.016  -9.623  36.727  1.00  0.00     0.010 A 
HETATM   22  C7  UNK     1      20.780  -9.024  35.725  1.00  0.00    -0.060 A 
HETATM   23  C17 UNK     1      21.785  -9.829  34.974  1.00  0.00     0.048 C 
HETATM   24  C9  UNK     1      20.604  -7.674  35.427  1.00  0.00     0.039 A 
ENDBRANCH  15  17
ENDBRANCH   5  13
TORSDOF 2
ENDMDL
MODEL 4
REMARK VINA RESULT:      -8.4      8.236     11.753
REMARK  2 active torsions:
REMARK  status: ('A' for Active; 'I' for Inactive)
REMARK    1  A    between atoms: C5_11  and  N1_6 
REMARK       I    between atoms: C6_12  and  N1_6 
REMARK    2  A    between atoms: C2_8  and  C6_12 
ROOT
HETATM    1 Br1  UNK     1      14.699   1.224  36.844  1.00  0.00    -0.051 Br
HETATM    2  O1  UNK     1      20.350  -0.722  35.799  1.00  0.00    -0.274 OA
HETATM    3  O3  UNK     1      21.871  -2.421  35.675  1.00  0.00    -0.259 OA
HETATM    4  C1  UNK     1      18.045  -1.215  36.399  1.00  0.00     0.000 A 
HETATM    5  C2  UNK     1      19.657  -3.020  36.269  1.00  0.00     0.108 A 
HETATM    6  C3  UNK     1      19.030  -0.296  36.047  1.00  0.00     0.089 A 
HETATM    7  C4  UNK     1      18.402  -2.621  36.507  1.00  0.00     0.037 A 
HETATM    8  C8  UNK     1      16.748  -0.754  36.638  1.00  0.00     0.033 A 
HETATM    9  C10 UNK     1      20.720  -2.061  35.894  1.00  0.00     0.304 A 
HETATM   10  C11 UNK     1      18.754   1.064  35.927  1.00  0.00     0.039 A 
HETATM   11  C14 UNK     1      16.457   0.607  36.521  1.00  0.00     0.011 A 
HETATM   12  C15 UNK     1      17.458   1.515  36.166  1.00  0.00     0.022 A 
ENDROOT
BRANCH   5  13
HETATM   13  C6  UNK     1      19.918  -4.457  36.403  1.00  0.00     0.262 C 
HETATM   14  O2  UNK     1      20.222  -5.117  35.410  1.00  0.00    -0.267 OA
HETATM   15  N1  UNK     1      19.775  -4.897  37.712  1.00  0.00    -0.320 N 
HETATM   16  H2  UNK     1      19.495  -4.225  38.422  1.00  0.00     0.169 HD
BRANCH  15  17
HETATM   17  C5  UNK     1      19.947  -6.213  38.205  1.00  0.00     0.074 A 
HETATM   18  C12 UNK     1      18.948  -7.150  38.002  1.00  0.00     0.143 A 
HETATM   19  C16 UNK     1      19.121  -8.446  38.487  1.00  0.00     0.045 A 
HETATM   20  F1  UNK     1      17.821  -6.834  37.348  1.00  0.00    -0.204 F 
HETATM   21  C13 UNK     1      20.290  -8.786  39.169  1.00  0.00     0.010 A 
HETATM   22  C7  UNK     1      21.286  -7.830  39.365  1.00  0.00    -0.060 A 
HETATM   23  C17 UNK     1      22.535  -8.193  40.093  1.00  0.00     0.048 C 
HETATM   24  C9  UNK     1      21.114  -6.534  38.879  1.00  0.00     0.039 A 
ENDBRANCH  15  17
ENDBRANCH   5  13
TORSDOF 2
ENDMDL
MODEL 5
REMARK VINA RESULT:      -8.3      4.594      7.523
REMARK  2 active torsions:
REMARK  status: ('A' for Active; 'I' for Inactive)
REMARK    1  A    between atoms: C5_11  and  N1_6 
REMARK       I    between atoms: C6_12  and  N1_6 
REMARK    2  A    between atoms: C2_8  and  C6_12 
ROOT
HETATM    1 Br1  UNK     1      17.577   7.948  32.599  1.00  0.00    -0.051 Br
HETATM    2  O1  UNK     1      19.180   2.560  30.318  1.00  0.00    -0.274 OA
HETATM    3  O3  UNK     1      19.406   0.298  30.544  1.00  0.00    -0.259 OA
HETATM    4  C1  UNK     1      18.302   3.870  32.169  1.00  0.00     0.000 A 
HETATM    5  C2  UNK     1      18.542   1.470  32.413  1.00  0.00     0.108 A 
HETATM    6  C3  UNK     1      18.800   3.798  30.872  1.00  0.00     0.089 A 
HETATM    7  C4  UNK     1      18.180   2.644  32.944  1.00  0.00     0.037 A 
HETATM    8  C8  UNK     1      17.937   5.116  32.683  1.00  0.00     0.033 A 
HETATM    9  C10 UNK     1      19.074   1.371  31.035  1.00  0.00     0.304 A 
HETATM   10  C11 UNK     1      18.942   4.934  30.077  1.00  0.00     0.039 A 
HETATM   11  C14 UNK     1      18.074   6.264  31.899  1.00  0.00     0.011 A 
HETATM   12  C15 UNK     1      18.576   6.173  30.598  1.00  0.00     0.022 A 
ENDROOT
BRANCH   5  13
HETATM   13  C6  UNK     1      18.381   0.292  33.272  1.00  0.00     0.262 C 
HETATM   14  O2  UNK     1      17.954  -0.758  32.793  1.00  0.00    -0.267 OA
HETATM   15  N1  UNK     1      18.756   0.545  34.584  1.00  0.00    -0.320 N 
HETATM   16  H2  UNK     1      19.072   1.481  34.827  1.00  0.00     0.169 HD
BRANCH  15  17
HETATM   17  C5  UNK     1      18.732  -0.354  35.678  1.00  0.00     0.074 A 
HETATM   18  C12 UNK     1      17.967  -0.048  36.791  1.00  0.00     0.143 A 
HETATM   19  C16 UNK     1      17.944  -0.936  37.866  1.00  0.00     0.045 A 
HETATM   20  F1  UNK     1      17.250   1.082  36.852  1.00  0.00    -0.204 F 
HETATM   21  C13 UNK     1      18.687  -2.116  37.814  1.00  0.00     0.010 A 
HETATM   22  C7  UNK     1      19.452  -2.408  36.685  1.00  0.00    -0.060 A 
HETATM   23  C17 UNK     1      20.246  -3.669  36.629  1.00  0.00     0.048 C 
HETATM   24  C9  UNK     1      19.476  -1.521  35.609  1.00  0.00     0.039 A 
ENDBRANCH  15  17
ENDBRANCH   5  13
TORSDOF 2
ENDMDL
MODEL 6
REMARK VINA RESULT:      -8.3      2.961      3.889
REMARK  2 active torsions:
REMARK  status: ('A' for Active; 'I' for Inactive)
REMARK    1  A    between atoms: C5_11  and  N1_6 
REMARK       I    between atoms: C6_12  and  N1_6 
REMARK    2  A    between atoms: C2_8  and  C6_12 
ROOT
HETATM    1 Br1  UNK     1      17.923  -0.968  37.647  1.00  0.00    -0.051 Br
HETATM    2  O1  UNK     1      18.606   0.965  31.936  1.00  0.00    -0.274 OA
HETATM    3  O3  UNK     1      18.704   2.668  30.416  1.00  0.00    -0.259 OA
HETATM    4  C1  UNK     1      18.231   1.471  34.285  1.00  0.00     0.000 A 
HETATM    5  C2  UNK     1      18.333   3.280  32.675  1.00  0.00     0.108 A 
HETATM    6  C3  UNK     1      18.445   0.543  33.271  1.00  0.00     0.089 A 
HETATM    7  C4  UNK     1      18.178   2.885  33.945  1.00  0.00     0.037 A 
HETATM    8  C8  UNK     1      18.075   1.014  35.595  1.00  0.00     0.033 A 
HETATM    9  C10 UNK     1      18.561   2.310  31.581  1.00  0.00     0.304 A 
HETATM   10  C11 UNK     1      18.506  -0.825  33.529  1.00  0.00     0.039 A 
HETATM   11  C14 UNK     1      18.134  -0.355  35.871  1.00  0.00     0.011 A 
HETATM   12  C15 UNK     1      18.349  -1.272  34.839  1.00  0.00     0.022 A 
ENDROOT
BRANCH   5  13
HETATM   13  C6  UNK     1      18.263   4.725  32.432  1.00  0.00     0.262 C 
HETATM   14  O2  UNK     1      18.176   5.147  31.280  1.00  0.00    -0.267 OA
HETATM   15  N1  UNK     1      18.310   5.457  33.611  1.00  0.00    -0.320 N 
HETATM   16  H2  UNK     1      18.405   4.957  34.491  1.00  0.00     0.169 HD
BRANCH  15  17
HETATM   17  C5  UNK     1      18.267   6.865  33.755  1.00  0.00     0.074 A 
HETATM   18  C12 UNK     1      17.063   7.529  33.584  1.00  0.00     0.143 A 
HETATM   19  C16 UNK     1      17.024   8.916  33.727  1.00  0.00     0.045 A 
HETATM   20  F1  UNK     1      15.939   6.864  33.283  1.00  0.00    -0.204 F 
HETATM   21  C13 UNK     1      18.188   9.619  34.040  1.00  0.00     0.010 A 
HETATM   22  C7  UNK     1      19.391   8.935  34.209  1.00  0.00    -0.060 A 
HETATM   23  C17 UNK     1      20.635   9.686  34.542  1.00  0.00     0.048 C 
HETATM   24  C9  UNK     1      19.431   7.549  34.065  1.00  0.00     0.039 A 
ENDBRANCH  15  17
ENDBRANCH   5  13
TORSDOF 2
ENDMDL
MODEL 7
REMARK VINA RESULT:      -8.3     14.716     18.344
REMARK  2 active torsions:
REMARK  status: ('A' for Active; 'I' for Inactive)
REMARK    1  A    between atoms: C5_11  and  N1_6 
REMARK       I    between atoms: C6_12  and  N1_6 
REMARK    2  A    between atoms: C2_8  and  C6_12 
ROOT
HETATM    1 Br1  UNK     1      19.025   2.039  21.065  1.00  0.00    -0.051 Br
HETATM    2  O1  UNK     1      19.227   0.853  15.119  1.00  0.00    -0.274 OA
HETATM    3  O3  UNK     1      19.168  -0.640  13.390  1.00  0.00    -0.259 OA
HETATM    4  C1  UNK     1      19.022   0.051  17.405  1.00  0.00     0.000 A 
HETATM    5  C2  UNK     1      18.960  -1.535  15.574  1.00  0.00     0.108 A 
HETATM    6  C3  UNK     1      19.177   1.101  16.505  1.00  0.00     0.089 A 
HETATM    7  C4  UNK     1      18.913  -1.306  16.892  1.00  0.00     0.037 A 
HETATM    8  C8  UNK     1      18.978   0.337  18.772  1.00  0.00     0.033 A 
HETATM    9  C10 UNK     1      19.124  -0.435  14.598  1.00  0.00     0.304 A 
HETATM   10  C11 UNK     1      19.287   2.422  16.931  1.00  0.00     0.039 A 
HETATM   11  C14 UNK     1      19.087   1.658  19.214  1.00  0.00     0.011 A 
HETATM   12  C15 UNK     1      19.242   2.699  18.295  1.00  0.00     0.022 A 
ENDROOT
BRANCH   5  13
HETATM   13  C6  UNK     1      18.841  -2.936  15.155  1.00  0.00     0.262 C 
HETATM   14  O2  UNK     1      17.865  -3.597  15.507  1.00  0.00    -0.267 OA
HETATM   15  N1  UNK     1      19.913  -3.342  14.372  1.00  0.00    -0.320 N 
HETATM   16  H2  UNK     1      20.658  -2.676  14.186  1.00  0.00     0.169 HD
BRANCH  15  17
HETATM   17  C5  UNK     1      20.128  -4.618  13.797  1.00  0.00     0.074 A 
HETATM   18  C12 UNK     1      20.649  -5.636  14.580  1.00  0.00     0.143 A 
HETATM   19  C16 UNK     1      20.859  -6.892  14.012  1.00  0.00     0.045 A 
HETATM   20  F1  UNK     1      20.952  -5.435  15.870  1.00  0.00    -0.204 F 
HETATM   21  C13 UNK     1      20.546  -7.113  12.670  1.00  0.00     0.010 A 
HETATM   22  C7  UNK     1      20.023  -6.077  11.897  1.00  0.00    -0.060 A 
HETATM   23  C17 UNK     1      19.690  -6.313  10.463  1.00  0.00     0.048 C 
HETATM   24  C9  UNK     1      19.813  -4.821  12.464  1.00  0.00     0.039 A 
ENDBRANCH  15  17
ENDBRANCH   5  13
TORSDOF 2
ENDMDL
MODEL 8
REMARK VINA RESULT:      -8.3     23.210     24.829
REMARK  2 active torsions:
REMARK  status: ('A' for Active; 'I' for Inactive)
REMARK    1  A    between atoms: C5_11  and  N1_6 
REMARK       I    between atoms: C6_12  and  N1_6 
REMARK    2  A    between atoms: C2_8  and  C6_12 
ROOT
HETATM    1 Br1  UNK     1      17.039  13.469   7.009  1.00  0.00    -0.051 Br
HETATM    2  O1  UNK     1      16.436   8.409  10.301  1.00  0.00    -0.274 OA
HETATM    3  O3  UNK     1      15.184   6.625  10.985  1.00  0.00    -0.259 OA
HETATM    4  C1  UNK     1      15.488  10.012   8.737  1.00  0.00     0.000 A 
HETATM    5  C2  UNK     1      14.157   8.121   9.462  1.00  0.00     0.108 A 
HETATM    6  C3  UNK     1      16.550   9.580   9.527  1.00  0.00     0.089 A 
HETATM    7  C4  UNK     1      14.259   9.234   8.725  1.00  0.00     0.037 A 
HETATM    8  C8  UNK     1      15.639  11.179   7.985  1.00  0.00     0.033 A 
HETATM    9  C10 UNK     1      15.273   7.643  10.309  1.00  0.00     0.304 A 
HETATM   10  C11 UNK     1      17.753  10.280   9.583  1.00  0.00     0.039 A 
HETATM   11  C14 UNK     1      16.841  11.891   8.031  1.00  0.00     0.011 A 
HETATM   12  C15 UNK     1      17.895  11.442   8.829  1.00  0.00     0.022 A 
ENDROOT
BRANCH   5  13
HETATM   13  C6  UNK     1      12.879   7.405   9.382  1.00  0.00     0.262 C 
HETATM   14  O2  UNK     1      12.579   6.593  10.257  1.00  0.00    -0.267 OA
HETATM   15  N1  UNK     1      12.144   7.768   8.262  1.00  0.00    -0.320 N 
HETATM   16  H2  UNK     1      12.543   8.445   7.617  1.00  0.00     0.169 HD
BRANCH  15  17
HETATM   17  C5  UNK     1      10.873   7.282   7.869  1.00  0.00     0.074 A 
HETATM   18  C12 UNK     1      10.755   6.570   6.686  1.00  0.00     0.143 A 
HETATM   19  C16 UNK     1       9.503   6.092   6.301  1.00  0.00     0.045 A 
HETATM   20  F1  UNK     1      11.821   6.334   5.908  1.00  0.00    -0.204 F 
HETATM   21  C13 UNK     1       8.387   6.332   7.103  1.00  0.00     0.010 A 
HETATM   22  C7  UNK     1       8.524   7.050   8.291  1.00  0.00    -0.060 A 
HETATM   23  C17 UNK     1       7.331   7.307   9.148  1.00  0.00     0.048 C 
HETATM   24  C9  UNK     1       9.775   7.529   8.676  1.00  0.00     0.039 A 
ENDBRANCH  15  17
ENDBRANCH   5  13
TORSDOF 2
ENDMDL
MODEL 9
REMARK VINA RESULT:      -8.3      7.305     10.855
REMARK  2 active torsions:
REMARK  status: ('A' for Active; 'I' for Inactive)
REMARK    1  A    between atoms: C5_11  and  N1_6 
REMARK       I    between atoms: C6_12  and  N1_6 
REMARK    2  A    between atoms: C2_8  and  C6_12 
ROOT
HETATM    1 Br1  UNK     1      20.547  -1.466  29.674  1.00  0.00    -0.051 Br
HETATM    2  O1  UNK     1      18.367  -0.729  35.288  1.00  0.00    -0.274 OA
HETATM    3  O3  UNK     1      18.253  -1.383  37.474  1.00  0.00    -0.259 OA
HETATM    4  C1  UNK     1      19.773  -1.964  33.736  1.00  0.00     0.000 A 
HETATM    5  C2  UNK     1      19.654  -2.661  36.054  1.00  0.00     0.108 A 
HETATM    6  C3  UNK     1      18.888  -0.922  33.994  1.00  0.00     0.089 A 
HETATM    7  C4  UNK     1      20.152  -2.850  34.826  1.00  0.00     0.037 A 
HETATM    8  C8  UNK     1      20.268  -2.124  32.440  1.00  0.00     0.033 A 
HETATM    9  C10 UNK     1      18.711  -1.560  36.350  1.00  0.00     0.304 A 
HETATM   10  C11 UNK     1      18.485  -0.038  32.995  1.00  0.00     0.039 A 
HETATM   11  C14 UNK     1      19.873  -1.245  31.427  1.00  0.00     0.011 A 
HETATM   12  C15 UNK     1      18.983  -0.205  31.704  1.00  0.00     0.022 A 
ENDROOT
BRANCH   5  13
HETATM   13  C6  UNK     1      20.096  -3.607  37.086  1.00  0.00     0.262 C 
HETATM   14  O2  UNK     1      20.826  -3.218  37.997  1.00  0.00    -0.267 OA
HETATM   15  N1  UNK     1      19.597  -4.884  36.874  1.00  0.00    -0.320 N 
HETATM   16  H2  UNK     1      19.019  -5.051  36.054  1.00  0.00     0.169 HD
BRANCH  15  17
HETATM   17  C5  UNK     1      19.817  -6.039  37.663  1.00  0.00     0.074 A 
HETATM   18  C12 UNK     1      18.818  -6.993  37.764  1.00  0.00     0.143 A 
HETATM   19  C16 UNK     1      19.037  -8.130  38.541  1.00  0.00     0.045 A 
HETATM   20  F1  UNK     1      17.647  -6.843  37.129  1.00  0.00    -0.204 F 
HETATM   21  C13 UNK     1      20.252  -8.297  39.207  1.00  0.00     0.010 A 
HETATM   22  C7  UNK     1      21.248  -7.327  39.095  1.00  0.00    -0.060 A 
HETATM   23  C17 UNK     1      22.546  -7.505  39.806  1.00  0.00     0.048 C 
HETATM   24  C9  UNK     1      21.029  -6.190  38.318  1.00  0.00     0.039 A 
ENDBRANCH  15  17
ENDBRANCH   5  13
TORSDOF 2
ENDMDL
MODEL 10
REMARK VINA RESULT:      -8.1      7.199      8.728
REMARK  2 active torsions:
REMARK  status: ('A' for Active; 'I' for Inactive)
REMARK    1  A    between atoms: C5_11  and  N1_6 
REMARK       I    between atoms: C6_12  and  N1_6 
REMARK    2  A    between atoms: C2_8  and  C6_12 
ROOT
HETATM    1 Br1  UNK     1      19.451 -10.385  38.555  1.00  0.00    -0.051 Br
HETATM    2  O1  UNK     1      20.500  -5.830  34.688  1.00  0.00    -0.274 OA
HETATM    3  O3  UNK     1      20.529  -3.594  34.217  1.00  0.00    -0.259 OA
HETATM    4  C1  UNK     1      19.793  -6.584  36.889  1.00  0.00     0.000 A 
HETATM    5  C2  UNK     1      19.821  -4.212  36.392  1.00  0.00     0.108 A 
HETATM    6  C3  UNK     1      20.249  -6.869  35.606  1.00  0.00     0.089 A 
HETATM    7  C4  UNK     1      19.580  -5.195  37.268  1.00  0.00     0.037 A 
HETATM    8  C8  UNK     1      19.554  -7.641  37.770  1.00  0.00     0.033 A 
HETATM    9  C10 UNK     1      20.306  -4.492  35.022  1.00  0.00     0.304 A 
HETATM   10  C11 UNK     1      20.473  -8.176  35.180  1.00  0.00     0.039 A 
HETATM   11  C14 UNK     1      19.774  -8.958  37.358  1.00  0.00     0.011 A 
HETATM   12  C15 UNK     1      20.232  -9.225  36.065  1.00  0.00     0.022 A 
ENDROOT
BRANCH   5  13
HETATM   13  C6  UNK     1      19.577  -2.846  36.867  1.00  0.00     0.262 C 
HETATM   14  O2  UNK     1      20.153  -2.438  37.875  1.00  0.00    -0.267 OA
HETATM   15  N1  UNK     1      18.675  -2.164  36.062  1.00  0.00    -0.320 N 
HETATM   16  H2  UNK     1      18.267  -2.652  35.269  1.00  0.00     0.169 HD
BRANCH  15  17
HETATM   17  C5  UNK     1      18.209  -0.836  36.220  1.00  0.00     0.074 A 
HETATM   18  C12 UNK     1      17.505  -0.495  37.364  1.00  0.00     0.143 A 
HETATM   19  C16 UNK     1      17.048   0.814  37.517  1.00  0.00     0.045 A 
HETATM   20  F1  UNK     1      17.258  -1.398  38.323  1.00  0.00    -0.204 F 
HETATM   21  C13 UNK     1      17.300   1.762  36.525  1.00  0.00     0.010 A 
HETATM   22  C7  UNK     1      18.010   1.401  35.380  1.00  0.00    -0.060 A 
HETATM   23  C17 UNK     1      18.279   2.415  34.320  1.00  0.00     0.048 C 
HETATM   24  C9  UNK     1      18.467   0.093  35.226  1.00  0.00     0.039 A 
ENDBRANCH  15  17
ENDBRANCH   5  13
TORSDOF 2
ENDMDL
