MODEL 1
REMARK VINA RESULT:      -9.5      0.000      0.000
REMARK  6 active torsions:
REMARK  status: ('A' for Active; 'I' for Inactive)
REMARK    1  A    between atoms: C1_7  and  O1_4 
REMARK    2  A    between atoms: C4_10  and  O1_4 
REMARK    3  A    between atoms: C3_9  and  O2_5 
REMARK    4  A    between atoms: C2_8  and  C9_15 
REMARK    5  A    between atoms: C4_10  and  C6_12 
REMARK    6  A    between atoms: C10_16  and  C11_17 
ROOT
HETATM    1  N1  UNK     1      21.967  -1.704  35.316  1.00  0.00    -0.191 NA
HETATM    2  C9  UNK     1      18.667  -2.450  35.982  1.00  0.00     0.036 C 
HETATM    3  C10 UNK     1      19.893  -2.996  36.203  1.00  0.00     0.055 C 
HETATM    4  C23 UNK     1      21.035  -2.275  35.708  1.00  0.00     0.100 C 
ENDROOT
BRANCH   3   5
HETATM    5  C11 UNK     1      20.104  -4.251  36.909  1.00  0.00    -0.015 A 
HETATM    6  C16 UNK     1      21.258  -4.437  37.670  1.00  0.00     0.014 A 
HETATM    7  C19 UNK     1      21.461  -5.641  38.346  1.00  0.00     0.024 A 
HETATM    8  C21 UNK     1      20.510  -6.658  38.260  1.00  0.00     0.034 A 
HETATM    9  C20 UNK     1      19.356  -6.471  37.498  1.00  0.00     0.024 A 
HETATM   10 Cl2  UNK     1      20.760  -8.142  39.093  1.00  0.00    -0.084 Cl
HETATM   11  C17 UNK     1      19.153  -5.268  36.822  1.00  0.00     0.014 A 
ENDBRANCH   3   5
BRANCH   2  12
HETATM   12  C2  UNK     1      18.407  -1.184  35.282  1.00  0.00    -0.015 A 
HETATM   13  C5  UNK     1      18.619  -1.164  33.909  1.00  0.00     0.052 A 
HETATM   14  C3  UNK     1      18.388   0.011  33.193  1.00  0.00     0.102 A 
HETATM   15  C1  UNK     1      17.948   1.156  33.856  1.00  0.00     0.103 A 
HETATM   16  C7  UNK     1      17.738   1.127  35.236  1.00  0.00     0.059 A 
HETATM   17  C8  UNK     1      17.970  -0.048  35.951  1.00  0.00     0.024 A 
HETATM   18 Br1  UNK     1      17.664  -0.019  37.827  1.00  0.00    -0.050 Br
BRANCH  14  19
HETATM   19  O2  UNK     1      18.596   0.026  31.848  1.00  0.00    -0.353 OA
HETATM   20  C22 UNK     1      19.691  -0.740  31.351  1.00  0.00     0.210 C 
ENDBRANCH  14  19
BRANCH  15  21
HETATM   21  O1  UNK     1      17.718   2.309  33.169  1.00  0.00    -0.344 OA
BRANCH  21  22
HETATM   22  C4  UNK     1      18.360   3.489  33.647  1.00  0.00     0.216 C 
BRANCH  22  23
HETATM   23  C6  UNK     1      18.724   4.358  32.479  1.00  0.00    -0.012 A 
HETATM   24  C12 UNK     1      19.158   5.669  32.658  1.00  0.00     0.042 A 
HETATM   25 Cl1  UNK     1      19.305   6.365  34.230  1.00  0.00    -0.084 Cl
HETATM   26  C14 UNK     1      19.487   6.446  31.547  1.00  0.00     0.024 A 
HETATM   27  C18 UNK     1      19.379   5.911  30.263  1.00  0.00     0.002 A 
HETATM   28  C15 UNK     1      18.942   4.597  30.090  1.00  0.00     0.001 A 
HETATM   29  C13 UNK     1      18.614   3.819  31.200  1.00  0.00     0.011 A 
ENDBRANCH  22  23
ENDBRANCH  21  22
ENDBRANCH  15  21
ENDBRANCH   2  12
TORSDOF 6
ENDMDL
MODEL 2
REMARK VINA RESULT:      -8.7      6.495      8.976
REMARK  6 active torsions:
REMARK  status: ('A' for Active; 'I' for Inactive)
REMARK    1  A    between atoms: C1_7  and  O1_4 
REMARK    2  A    between atoms: C4_10  and  O1_4 
REMARK    3  A    between atoms: C3_9  and  O2_5 
REMARK    4  A    between atoms: C2_8  and  C9_15 
REMARK    5  A    between atoms: C4_10  and  C6_12 
REMARK    6  A    between atoms: C10_16  and  C11_17 
ROOT
HETATM    1  N1  UNK     1      18.002   3.010  34.182  1.00  0.00    -0.191 NA
HETATM    2  C9  UNK     1      18.148   4.885  31.292  1.00  0.00     0.036 C 
HETATM    3  C10 UNK     1      18.277   3.583  31.661  1.00  0.00     0.055 C 
HETATM    4  C23 UNK     1      18.123   3.275  33.059  1.00  0.00     0.100 C 
ENDROOT
BRANCH   3   5
HETATM    5  C11 UNK     1      18.551   2.501  30.728  1.00  0.00    -0.015 A 
HETATM    6  C16 UNK     1      19.355   1.431  31.119  1.00  0.00     0.014 A 
HETATM    7  C19 UNK     1      19.619   0.393  30.223  1.00  0.00     0.024 A 
HETATM    8  C21 UNK     1      19.078   0.427  28.938  1.00  0.00     0.034 A 
HETATM    9  C20 UNK     1      18.274   1.498  28.548  1.00  0.00     0.024 A 
HETATM   10 Cl2  UNK     1      19.403  -0.851  27.833  1.00  0.00    -0.084 Cl
HETATM   11  C17 UNK     1      18.010   2.536  29.442  1.00  0.00     0.014 A 
ENDBRANCH   3   5
BRANCH   2  12
HETATM   12  C2  UNK     1      17.865   6.008  32.198  1.00  0.00    -0.015 A 
HETATM   13  C5  UNK     1      16.531   6.321  32.423  1.00  0.00     0.052 A 
HETATM   14  C3  UNK     1      16.204   7.377  33.273  1.00  0.00     0.102 A 
HETATM   15  C1  UNK     1      17.215   8.113  33.891  1.00  0.00     0.103 A 
HETATM   16  C7  UNK     1      18.553   7.792  33.659  1.00  0.00     0.059 A 
HETATM   17  C8  UNK     1      18.879   6.736  32.809  1.00  0.00     0.024 A 
HETATM   18 Br1  UNK     1      20.720   6.351  32.536  1.00  0.00    -0.050 Br
BRANCH  14  19
HETATM   19  O2  UNK     1      14.895   7.680  33.492  1.00  0.00    -0.353 OA
HETATM   20  C22 UNK     1      13.968   7.338  32.463  1.00  0.00     0.210 C 
ENDBRANCH  14  19
BRANCH  15  21
HETATM   21  O1  UNK     1      16.909   9.146  34.724  1.00  0.00    -0.344 OA
BRANCH  21  22
HETATM   22  C4  UNK     1      16.943  10.459  34.168  1.00  0.00     0.216 C 
BRANCH  22  23
HETATM   23  C6  UNK     1      15.983  11.334  34.919  1.00  0.00    -0.012 A 
HETATM   24  C12 UNK     1      16.323  12.632  35.291  1.00  0.00     0.042 A 
HETATM   25 Cl1  UNK     1      17.866  13.306  34.910  1.00  0.00    -0.084 Cl
HETATM   26  C14 UNK     1      15.403  13.415  35.988  1.00  0.00     0.024 A 
HETATM   27  C18 UNK     1      14.148  12.899  36.311  1.00  0.00     0.002 A 
HETATM   28  C15 UNK     1      13.813  11.598  35.935  1.00  0.00     0.001 A 
HETATM   29  C13 UNK     1      14.731  10.814  35.238  1.00  0.00     0.011 A 
ENDBRANCH  22  23
ENDBRANCH  21  22
ENDBRANCH  15  21
ENDBRANCH   2  12
TORSDOF 6
ENDMDL
MODEL 3
REMARK VINA RESULT:      -8.4     26.236     28.588
REMARK  6 active torsions:
REMARK  status: ('A' for Active; 'I' for Inactive)
REMARK    1  A    between atoms: C1_7  and  O1_4 
REMARK    2  A    between atoms: C4_10  and  O1_4 
REMARK    3  A    between atoms: C3_9  and  O2_5 
REMARK    4  A    between atoms: C2_8  and  C9_15 
REMARK    5  A    between atoms: C4_10  and  C6_12 
REMARK    6  A    between atoms: C10_16  and  C11_17 
ROOT
HETATM    1  N1  UNK     1      16.218  12.346  11.555  1.00  0.00    -0.191 NA
HETATM    2  C9  UNK     1      17.742  10.160   9.366  1.00  0.00     0.036 C 
HETATM    3  C10 UNK     1      18.069  11.270  10.080  1.00  0.00     0.055 C 
HETATM    4  C23 UNK     1      17.038  11.859  10.893  1.00  0.00     0.100 C 
ENDROOT
BRANCH   3   5
HETATM    5  C11 UNK     1      19.390  11.879  10.068  1.00  0.00    -0.015 A 
HETATM    6  C16 UNK     1      19.911  12.438  11.235  1.00  0.00     0.014 A 
HETATM    7  C19 UNK     1      21.178  13.023  11.223  1.00  0.00     0.024 A 
HETATM    8  C21 UNK     1      21.923  13.049  10.044  1.00  0.00     0.034 A 
HETATM    9  C20 UNK     1      21.402  12.491   8.877  1.00  0.00     0.024 A 
HETATM   10 Cl2  UNK     1      23.485  13.771  10.029  1.00  0.00    -0.084 Cl
HETATM   11  C17 UNK     1      20.135  11.906   8.888  1.00  0.00     0.014 A 
ENDBRANCH   3   5
BRANCH   2  12
HETATM   12  C2  UNK     1      16.425   9.508   9.353  1.00  0.00    -0.015 A 
HETATM   13  C5  UNK     1      16.277   8.363  10.126  1.00  0.00     0.052 A 
HETATM   14  C3  UNK     1      15.048   7.703  10.151  1.00  0.00     0.102 A 
HETATM   15  C1  UNK     1      13.978   8.193   9.402  1.00  0.00     0.103 A 
HETATM   16  C7  UNK     1      14.136   9.343   8.629  1.00  0.00     0.059 A 
HETATM   17  C8  UNK     1      15.364  10.003   8.604  1.00  0.00     0.024 A 
HETATM   18 Br1  UNK     1      15.512  11.564   7.531  1.00  0.00    -0.050 Br
BRANCH  14  19
HETATM   19  O2  UNK     1      14.906   6.581  10.909  1.00  0.00    -0.353 OA
HETATM   20  C22 UNK     1      15.136   5.329  10.266  1.00  0.00     0.210 C 
ENDBRANCH  14  19
BRANCH  15  21
HETATM   21  O1  UNK     1      12.773   7.557   9.419  1.00  0.00    -0.344 OA
BRANCH  21  22
HETATM   22  C4  UNK     1      11.637   8.310   8.999  1.00  0.00     0.216 C 
BRANCH  22  23
HETATM   23  C6  UNK     1      10.856   7.504   8.004  1.00  0.00    -0.012 A 
HETATM   24  C12 UNK     1       9.497   7.256   8.178  1.00  0.00     0.042 A 
HETATM   25 Cl1  UNK     1       8.636   7.862   9.546  1.00  0.00    -0.084 Cl
HETATM   26  C14 UNK     1       8.804   6.503   7.230  1.00  0.00     0.024 A 
HETATM   27  C18 UNK     1       9.472   6.000   6.113  1.00  0.00     0.002 A 
HETATM   28  C15 UNK     1      10.833   6.252   5.944  1.00  0.00     0.001 A 
HETATM   29  C13 UNK     1      11.527   7.005   6.891  1.00  0.00     0.011 A 
ENDBRANCH  22  23
ENDBRANCH  21  22
ENDBRANCH  15  21
ENDBRANCH   2  12
TORSDOF 6
ENDMDL
MODEL 4
REMARK VINA RESULT:      -8.4     11.863     14.015
REMARK  6 active torsions:
REMARK  status: ('A' for Active; 'I' for Inactive)
REMARK    1  A    between atoms: C1_7  and  O1_4 
REMARK    2  A    between atoms: C4_10  and  O1_4 
REMARK    3  A    between atoms: C3_9  and  O2_5 
REMARK    4  A    between atoms: C2_8  and  C9_15 
REMARK    5  A    between atoms: C4_10  and  C6_12 
REMARK    6  A    between atoms: C10_16  and  C11_17 
ROOT
HETATM    1  N1  UNK     1      27.343 -10.320  39.690  1.00  0.00    -0.191 NA
HETATM    2  C9  UNK     1      27.429  -8.699  36.647  1.00  0.00     0.036 C 
HETATM    3  C10 UNK     1      26.591  -9.522  37.332  1.00  0.00     0.055 C 
HETATM    4  C23 UNK     1      27.016  -9.959  38.636  1.00  0.00     0.100 C 
ENDROOT
BRANCH   3   5
HETATM    5  C11 UNK     1      25.305  -9.972  36.824  1.00  0.00    -0.015 A 
HETATM    6  C16 UNK     1      24.184  -9.150  36.939  1.00  0.00     0.014 A 
HETATM    7  C19 UNK     1      22.949  -9.582  36.451  1.00  0.00     0.024 A 
HETATM    8  C21 UNK     1      22.836 -10.836  35.850  1.00  0.00     0.034 A 
HETATM    9  C20 UNK     1      23.958 -11.658  35.737  1.00  0.00     0.024 A 
HETATM   10 Cl2  UNK     1      21.315 -11.369  35.251  1.00  0.00    -0.084 Cl
HETATM   11  C17 UNK     1      25.192 -11.227  36.224  1.00  0.00     0.014 A 
ENDBRANCH   3   5
BRANCH   2  12
HETATM   12  C2  UNK     1      28.733  -8.215  37.123  1.00  0.00    -0.015 A 
HETATM   13  C5  UNK     1      29.857  -8.927  36.725  1.00  0.00     0.052 A 
HETATM   14  C3  UNK     1      31.120  -8.512  37.147  1.00  0.00     0.102 A 
HETATM   15  C1  UNK     1      31.249  -7.389  37.965  1.00  0.00     0.103 A 
HETATM   16  C7  UNK     1      30.113  -6.680  38.360  1.00  0.00     0.059 A 
HETATM   17  C8  UNK     1      28.851  -7.096  37.938  1.00  0.00     0.024 A 
HETATM   18 Br1  UNK     1      27.346  -6.086  38.512  1.00  0.00    -0.050 Br
BRANCH  14  19
HETATM   19  O2  UNK     1      32.221  -9.212  36.755  1.00  0.00    -0.353 OA
HETATM   20  C22 UNK     1      32.579  -9.139  35.376  1.00  0.00     0.210 C 
ENDBRANCH  14  19
BRANCH  15  21
HETATM   21  O1  UNK     1      32.476  -6.974  38.383  1.00  0.00    -0.344 OA
BRANCH  21  22
HETATM   22  C4  UNK     1      32.766  -5.583  38.264  1.00  0.00     0.216 C 
BRANCH  22  23
HETATM   23  C6  UNK     1      33.488  -5.340  36.972  1.00  0.00    -0.012 A 
HETATM   24  C12 UNK     1      33.123  -4.300  36.121  1.00  0.00     0.042 A 
HETATM   25 Cl1  UNK     1      31.823  -3.232  36.506  1.00  0.00    -0.084 Cl
HETATM   26  C14 UNK     1      33.818  -4.106  34.927  1.00  0.00     0.024 A 
HETATM   27  C18 UNK     1      34.874  -4.952  34.588  1.00  0.00     0.002 A 
HETATM   28  C15 UNK     1      35.235  -5.993  35.444  1.00  0.00     0.001 A 
HETATM   29  C13 UNK     1      34.541  -6.188  36.638  1.00  0.00     0.011 A 
ENDBRANCH  22  23
ENDBRANCH  21  22
ENDBRANCH  15  21
ENDBRANCH   2  12
TORSDOF 6
ENDMDL
MODEL 5
REMARK VINA RESULT:      -8.3     26.685     28.651
REMARK  6 active torsions:
REMARK  status: ('A' for Active; 'I' for Inactive)
REMARK    1  A    between atoms: C1_7  and  O1_4 
REMARK    2  A    between atoms: C4_10  and  O1_4 
REMARK    3  A    between atoms: C3_9  and  O2_5 
REMARK    4  A    between atoms: C2_8  and  C9_15 
REMARK    5  A    between atoms: C4_10  and  C6_12 
REMARK    6  A    between atoms: C10_16  and  C11_17 
ROOT
HETATM    1  N1  UNK     1      15.957  11.619   7.394  1.00  0.00    -0.191 NA
HETATM    2  C9  UNK     1      17.103   9.977  10.201  1.00  0.00     0.036 C 
HETATM    3  C10 UNK     1      17.553  10.909   9.320  1.00  0.00     0.055 C 
HETATM    4  C23 UNK     1      16.663  11.296   8.257  1.00  0.00     0.100 C 
ENDROOT
BRANCH   3   5
HETATM    5  C11 UNK     1      18.866  11.531   9.399  1.00  0.00    -0.015 A 
HETATM    6  C16 UNK     1      19.572  11.821   8.231  1.00  0.00     0.014 A 
HETATM    7  C19 UNK     1      20.831  12.417   8.308  1.00  0.00     0.024 A 
HETATM    8  C21 UNK     1      21.385  12.721   9.552  1.00  0.00     0.034 A 
HETATM    9  C20 UNK     1      20.679  12.430  10.719  1.00  0.00     0.024 A 
HETATM   10 Cl2  UNK     1      22.938  13.455   9.646  1.00  0.00    -0.084 Cl
HETATM   11  C17 UNK     1      19.419  11.834  10.643  1.00  0.00     0.014 A 
ENDBRANCH   3   5
BRANCH   2  12
HETATM   12  C2  UNK     1      15.784   9.329  10.164  1.00  0.00    -0.015 A 
HETATM   13  C5  UNK     1      15.713   8.072   9.576  1.00  0.00     0.052 A 
HETATM   14  C3  UNK     1      14.487   7.410   9.513  1.00  0.00     0.102 A 
HETATM   15  C1  UNK     1      13.342   8.010  10.038  1.00  0.00     0.103 A 
HETATM   16  C7  UNK     1      13.424   9.273  10.626  1.00  0.00     0.059 A 
HETATM   17  C8  UNK     1      14.650   9.935  10.688  1.00  0.00     0.024 A 
HETATM   18 Br1  UNK     1      14.692  11.651  11.503  1.00  0.00    -0.050 Br
BRANCH  14  19
HETATM   19  O2  UNK     1      14.420   6.178   8.936  1.00  0.00    -0.353 OA
HETATM   20  C22 UNK     1      14.870   5.072   9.715  1.00  0.00     0.210 C 
ENDBRANCH  14  19
BRANCH  15  21
HETATM   21  O1  UNK     1      12.140   7.374   9.982  1.00  0.00    -0.344 OA
BRANCH  21  22
HETATM   22  C4  UNK     1      11.053   8.090   9.400  1.00  0.00     0.216 C 
BRANCH  22  23
HETATM   23  C6  UNK     1      10.589   7.365   8.171  1.00  0.00    -0.012 A 
HETATM   24  C12 UNK     1       9.292   6.870   8.065  1.00  0.00     0.042 A 
HETATM   25 Cl1  UNK     1       8.146   7.064   9.341  1.00  0.00    -0.084 Cl
HETATM   26  C14 UNK     1       8.899   6.202   6.906  1.00  0.00     0.024 A 
HETATM   27  C18 UNK     1       9.803   6.029   5.858  1.00  0.00     0.002 A 
HETATM   28  C15 UNK     1      11.101   6.527   5.969  1.00  0.00     0.001 A 
HETATM   29  C13 UNK     1      11.496   7.196   7.127  1.00  0.00     0.011 A 
ENDBRANCH  22  23
ENDBRANCH  21  22
ENDBRANCH  15  21
ENDBRANCH   2  12
TORSDOF 6
ENDMDL
MODEL 6
REMARK VINA RESULT:      -8.2     10.760     12.731
REMARK  6 active torsions:
REMARK  status: ('A' for Active; 'I' for Inactive)
REMARK    1  A    between atoms: C1_7  and  O1_4 
REMARK    2  A    between atoms: C4_10  and  O1_4 
REMARK    3  A    between atoms: C3_9  and  O2_5 
REMARK    4  A    between atoms: C2_8  and  C9_15 
REMARK    5  A    between atoms: C4_10  and  C6_12 
REMARK    6  A    between atoms: C10_16  and  C11_17 
ROOT
HETATM    1  N1  UNK     1      25.768  -5.478  39.050  1.00  0.00    -0.191 NA
HETATM    2  C9  UNK     1      25.837  -8.685  37.787  1.00  0.00     0.036 C 
HETATM    3  C10 UNK     1      24.918  -7.808  38.271  1.00  0.00     0.055 C 
HETATM    4  C23 UNK     1      25.397  -6.521  38.700  1.00  0.00     0.100 C 
ENDROOT
BRANCH   3   5
HETATM    5  C11 UNK     1      23.496  -8.098  38.369  1.00  0.00    -0.015 A 
HETATM    6  C16 UNK     1      22.794  -7.761  39.527  1.00  0.00     0.014 A 
HETATM    7  C19 UNK     1      21.430  -8.040  39.621  1.00  0.00     0.024 A 
HETATM    8  C21 UNK     1      20.769  -8.656  38.558  1.00  0.00     0.034 A 
HETATM    9  C20 UNK     1      21.471  -8.993  37.401  1.00  0.00     0.024 A 
HETATM   10 Cl2  UNK     1      19.087  -9.001  38.675  1.00  0.00    -0.084 Cl
HETATM   11  C17 UNK     1      22.835  -8.715  37.306  1.00  0.00     0.014 A 
ENDBRANCH   3   5
BRANCH   2  12
HETATM   12  C2  UNK     1      27.280  -8.433  37.663  1.00  0.00    -0.015 A 
HETATM   13  C5  UNK     1      27.697  -7.650  36.595  1.00  0.00     0.052 A 
HETATM   14  C3  UNK     1      29.056  -7.379  36.428  1.00  0.00     0.102 A 
HETATM   15  C1  UNK     1      29.985  -7.893  37.332  1.00  0.00     0.103 A 
HETATM   16  C7  UNK     1      29.557  -8.679  38.403  1.00  0.00     0.059 A 
HETATM   17  C8  UNK     1      28.199  -8.950  38.568  1.00  0.00     0.024 A 
HETATM   18 Br1  UNK     1      27.682 -10.026  40.047  1.00  0.00    -0.050 Br
BRANCH  14  19
HETATM   19  O2  UNK     1      29.462  -6.611  35.380  1.00  0.00    -0.353 OA
HETATM   20  C22 UNK     1      28.626  -6.596  34.224  1.00  0.00     0.210 C 
ENDBRANCH  14  19
BRANCH  15  21
HETATM   21  O1  UNK     1      31.314  -7.635  37.181  1.00  0.00    -0.344 OA
BRANCH  21  22
HETATM   22  C4  UNK     1      31.877  -6.625  38.015  1.00  0.00     0.216 C 
BRANCH  22  23
HETATM   23  C6  UNK     1      32.472  -5.552  37.152  1.00  0.00    -0.012 A 
HETATM   24  C12 UNK     1      31.819  -4.339  36.947  1.00  0.00     0.042 A 
HETATM   25 Cl1  UNK     1      30.291  -4.003  37.675  1.00  0.00    -0.084 Cl
HETATM   26  C14 UNK     1      32.405  -3.365  36.138  1.00  0.00     0.024 A 
HETATM   27  C18 UNK     1      33.639  -3.608  35.536  1.00  0.00     0.002 A 
HETATM   28  C15 UNK     1      34.290  -4.824  35.744  1.00  0.00     0.001 A 
HETATM   29  C13 UNK     1      33.705  -5.798  36.553  1.00  0.00     0.011 A 
ENDBRANCH  22  23
ENDBRANCH  21  22
ENDBRANCH  15  21
ENDBRANCH   2  12
TORSDOF 6
ENDMDL
MODEL 7
REMARK VINA RESULT:      -8.1     26.718     28.508
REMARK  6 active torsions:
REMARK  status: ('A' for Active; 'I' for Inactive)
REMARK    1  A    between atoms: C1_7  and  O1_4 
REMARK    2  A    between atoms: C4_10  and  O1_4 
REMARK    3  A    between atoms: C3_9  and  O2_5 
REMARK    4  A    between atoms: C2_8  and  C9_15 
REMARK    5  A    between atoms: C4_10  and  C6_12 
REMARK    6  A    between atoms: C10_16  and  C11_17 
ROOT
HETATM    1  N1  UNK     1      15.257  10.954   7.581  1.00  0.00    -0.191 NA
HETATM    2  C9  UNK     1      16.702   9.534  10.371  1.00  0.00     0.036 C 
HETATM    3  C10 UNK     1      16.961  10.548   9.503  1.00  0.00     0.055 C 
HETATM    4  C23 UNK     1      16.013  10.765   8.442  1.00  0.00     0.100 C 
ENDROOT
BRANCH   3   5
HETATM    5  C11 UNK     1      18.125  11.414   9.594  1.00  0.00    -0.015 A 
HETATM    6  C16 UNK     1      18.408  12.079  10.788  1.00  0.00     0.014 A 
HETATM    7  C19 UNK     1      19.525  12.911  10.874  1.00  0.00     0.024 A 
HETATM    8  C21 UNK     1      20.358  13.078   9.769  1.00  0.00     0.034 A 
HETATM    9  C20 UNK     1      20.075  12.414   8.575  1.00  0.00     0.024 A 
HETATM   10 Cl2  UNK     1      21.735  14.104   9.875  1.00  0.00    -0.084 Cl
HETATM   11  C17 UNK     1      18.958  11.582   8.487  1.00  0.00     0.014 A 
ENDBRANCH   3   5
BRANCH   2  12
HETATM   12  C2  UNK     1      15.537   8.639  10.322  1.00  0.00    -0.015 A 
HETATM   13  C5  UNK     1      14.301   9.190  10.636  1.00  0.00     0.052 A 
HETATM   14  C3  UNK     1      13.161   8.386  10.605  1.00  0.00     0.102 A 
HETATM   15  C1  UNK     1      13.267   7.039  10.260  1.00  0.00     0.103 A 
HETATM   16  C7  UNK     1      14.513   6.494   9.946  1.00  0.00     0.059 A 
HETATM   17  C8  UNK     1      15.652   7.298   9.978  1.00  0.00     0.024 A 
HETATM   18 Br1  UNK     1      17.317   6.494   9.538  1.00  0.00    -0.050 Br
BRANCH  14  19
HETATM   19  O2  UNK     1      11.951   8.929  10.914  1.00  0.00    -0.353 OA
HETATM   20  C22 UNK     1      11.264   9.618   9.871  1.00  0.00     0.210 C 
ENDBRANCH  14  19
BRANCH  15  21
HETATM   21  O1  UNK     1      12.161   6.245  10.226  1.00  0.00    -0.344 OA
BRANCH  21  22
HETATM   22  C4  UNK     1      12.127   5.223   9.232  1.00  0.00     0.216 C 
BRANCH  22  23
HETATM   23  C6  UNK     1      11.260   5.675   8.093  1.00  0.00    -0.012 A 
HETATM   24  C12 UNK     1       9.872   5.686   8.198  1.00  0.00     0.042 A 
HETATM   25 Cl1  UNK     1       9.071   5.182   9.642  1.00  0.00    -0.084 Cl
HETATM   26  C14 UNK     1       9.100   6.113   7.117  1.00  0.00     0.024 A 
HETATM   27  C18 UNK     1       9.718   6.526   5.937  1.00  0.00     0.002 A 
HETATM   28  C15 UNK     1      11.109   6.513   5.838  1.00  0.00     0.001 A 
HETATM   29  C13 UNK     1      11.882   6.087   6.918  1.00  0.00     0.011 A 
ENDBRANCH  22  23
ENDBRANCH  21  22
ENDBRANCH  15  21
ENDBRANCH   2  12
TORSDOF 6
ENDMDL
MODEL 8
REMARK VINA RESULT:      -8.1      2.391      9.880
REMARK  6 active torsions:
REMARK  status: ('A' for Active; 'I' for Inactive)
REMARK    1  A    between atoms: C1_7  and  O1_4 
REMARK    2  A    between atoms: C4_10  and  O1_4 
REMARK    3  A    between atoms: C3_9  and  O2_5 
REMARK    4  A    between atoms: C2_8  and  C9_15 
REMARK    5  A    between atoms: C4_10  and  C6_12 
REMARK    6  A    between atoms: C10_16  and  C11_17 
ROOT
HETATM    1  N1  UNK     1      20.143   2.647  36.520  1.00  0.00    -0.191 NA
HETATM    2  C9  UNK     1      18.083   1.154  34.193  1.00  0.00     0.036 C 
HETATM    3  C10 UNK     1      18.556   2.397  34.476  1.00  0.00     0.055 C 
HETATM    4  C23 UNK     1      19.433   2.526  35.610  1.00  0.00     0.100 C 
ENDROOT
BRANCH   3   5
HETATM    5  C11 UNK     1      18.229   3.583  33.701  1.00  0.00    -0.015 A 
HETATM    6  C16 UNK     1      18.141   3.505  32.311  1.00  0.00     0.014 A 
HETATM    7  C19 UNK     1      17.828   4.644  31.567  1.00  0.00     0.024 A 
HETATM    8  C21 UNK     1      17.603   5.859  32.213  1.00  0.00     0.034 A 
HETATM    9  C20 UNK     1      17.692   5.937  33.603  1.00  0.00     0.024 A 
HETATM   10 Cl2  UNK     1      17.218   7.263  31.296  1.00  0.00    -0.084 Cl
HETATM   11  C17 UNK     1      18.005   4.799  34.347  1.00  0.00     0.014 A 
ENDBRANCH   3   5
BRANCH   2  12
HETATM   12  C2  UNK     1      18.391  -0.071  34.944  1.00  0.00    -0.015 A 
HETATM   13  C5  UNK     1      19.385  -0.895  34.432  1.00  0.00     0.052 A 
HETATM   14  C3  UNK     1      19.719  -2.072  35.103  1.00  0.00     0.102 A 
HETATM   15  C1  UNK     1      19.056  -2.414  36.281  1.00  0.00     0.103 A 
HETATM   16  C7  UNK     1      18.058  -1.581  36.788  1.00  0.00     0.059 A 
HETATM   17  C8  UNK     1      17.725  -0.405  36.116  1.00  0.00     0.024 A 
HETATM   18 Br1  UNK     1      16.358   0.686  36.861  1.00  0.00    -0.050 Br
BRANCH  14  19
HETATM   19  O2  UNK     1      20.694  -2.877  34.598  1.00  0.00    -0.353 OA
HETATM   20  C22 UNK     1      20.962  -2.775  33.201  1.00  0.00     0.210 C 
ENDBRANCH  14  19
BRANCH  15  21
HETATM   21  O1  UNK     1      19.373  -3.559  36.946  1.00  0.00    -0.344 OA
BRANCH  21  22
HETATM   22  C4  UNK     1      19.068  -4.792  36.297  1.00  0.00     0.216 C 
BRANCH  22  23
HETATM   23  C6  UNK     1      19.332  -5.924  37.245  1.00  0.00    -0.012 A 
HETATM   24  C12 UNK     1      18.755  -7.178  37.057  1.00  0.00     0.042 A 
HETATM   25 Cl1  UNK     1      17.706  -7.498  35.724  1.00  0.00    -0.084 Cl
HETATM   26  C14 UNK     1      19.025  -8.206  37.960  1.00  0.00     0.024 A 
HETATM   27  C18 UNK     1      19.869  -7.978  39.047  1.00  0.00     0.002 A 
HETATM   28  C15 UNK     1      20.444  -6.720  39.230  1.00  0.00     0.001 A 
HETATM   29  C13 UNK     1      20.175  -5.692  38.328  1.00  0.00     0.011 A 
ENDBRANCH  22  23
ENDBRANCH  21  22
ENDBRANCH  15  21
ENDBRANCH   2  12
TORSDOF 6
ENDMDL
MODEL 9
REMARK VINA RESULT:      -8.0      1.889      2.845
REMARK  6 active torsions:
REMARK  status: ('A' for Active; 'I' for Inactive)
REMARK    1  A    between atoms: C1_7  and  O1_4 
REMARK    2  A    between atoms: C4_10  and  O1_4 
REMARK    3  A    between atoms: C3_9  and  O2_5 
REMARK    4  A    between atoms: C2_8  and  C9_15 
REMARK    5  A    between atoms: C4_10  and  C6_12 
REMARK    6  A    between atoms: C10_16  and  C11_17 
ROOT
HETATM    1  N1  UNK     1      22.176  -1.609  35.449  1.00  0.00    -0.191 NA
HETATM    2  C9  UNK     1      18.855  -2.503  35.691  1.00  0.00     0.036 C 
HETATM    3  C10 UNK     1      20.073  -3.070  35.900  1.00  0.00     0.055 C 
HETATM    4  C23 UNK     1      21.231  -2.254  35.647  1.00  0.00     0.100 C 
ENDROOT
BRANCH   3   5
HETATM    5  C11 UNK     1      20.261  -4.436  36.364  1.00  0.00    -0.015 A 
HETATM    6  C16 UNK     1      19.810  -5.504  35.589  1.00  0.00     0.014 A 
HETATM    7  C19 UNK     1      19.990  -6.814  36.035  1.00  0.00     0.024 A 
HETATM    8  C21 UNK     1      20.621  -7.055  37.255  1.00  0.00     0.034 A 
HETATM    9  C20 UNK     1      21.072  -5.987  38.030  1.00  0.00     0.024 A 
HETATM   10 Cl2  UNK     1      20.843  -8.670  37.805  1.00  0.00    -0.084 Cl
HETATM   11  C17 UNK     1      20.892  -4.676  37.585  1.00  0.00     0.014 A 
ENDBRANCH   3   5
BRANCH   2  12
HETATM   12  C2  UNK     1      18.617  -1.128  35.230  1.00  0.00    -0.015 A 
HETATM   13  C5  UNK     1      18.162  -0.214  36.171  1.00  0.00     0.052 A 
HETATM   14  C3  UNK     1      17.919   1.106  35.789  1.00  0.00     0.102 A 
HETATM   15  C1  UNK     1      18.134   1.500  34.469  1.00  0.00     0.103 A 
HETATM   16  C7  UNK     1      18.592   0.575  33.530  1.00  0.00     0.059 A 
HETATM   17  C8  UNK     1      18.834  -0.745  33.912  1.00  0.00     0.024 A 
HETATM   18 Br1  UNK     1      19.456  -1.954  32.585  1.00  0.00    -0.050 Br
BRANCH  14  19
HETATM   19  O2  UNK     1      17.473   2.000  36.715  1.00  0.00    -0.353 OA
HETATM   20  C22 UNK     1      17.340   1.534  38.056  1.00  0.00     0.210 C 
ENDBRANCH  14  19
BRANCH  15  21
HETATM   21  O1  UNK     1      17.902   2.785  34.084  1.00  0.00    -0.344 OA
BRANCH  21  22
HETATM   22  C4  UNK     1      18.177   3.115  32.724  1.00  0.00     0.216 C 
BRANCH  22  23
HETATM   23  C6  UNK     1      18.176   4.607  32.571  1.00  0.00    -0.012 A 
HETATM   24  C12 UNK     1      18.516   5.213  31.364  1.00  0.00     0.042 A 
HETATM   25 Cl1  UNK     1      18.954   4.282  29.978  1.00  0.00    -0.084 Cl
HETATM   26  C14 UNK     1      18.504   6.604  31.261  1.00  0.00     0.024 A 
HETATM   27  C18 UNK     1      18.155   7.384  32.363  1.00  0.00     0.002 A 
HETATM   28  C15 UNK     1      17.815   6.772  33.570  1.00  0.00     0.001 A 
HETATM   29  C13 UNK     1      17.826   5.381  33.674  1.00  0.00     0.011 A 
ENDBRANCH  22  23
ENDBRANCH  21  22
ENDBRANCH  15  21
ENDBRANCH   2  12
TORSDOF 6
ENDMDL
MODEL 10
REMARK VINA RESULT:      -8.0      6.160      9.035
REMARK  6 active torsions:
REMARK  status: ('A' for Active; 'I' for Inactive)
REMARK    1  A    between atoms: C1_7  and  O1_4 
REMARK    2  A    between atoms: C4_10  and  O1_4 
REMARK    3  A    between atoms: C3_9  and  O2_5 
REMARK    4  A    between atoms: C2_8  and  C9_15 
REMARK    5  A    between atoms: C4_10  and  C6_12 
REMARK    6  A    between atoms: C10_16  and  C11_17 
ROOT
HETATM    1  N1  UNK     1      19.456   6.037  29.518  1.00  0.00    -0.191 NA
HETATM    2  C9  UNK     1      17.812   4.643  32.210  1.00  0.00     0.036 C 
HETATM    3  C10 UNK     1      18.539   4.223  31.140  1.00  0.00     0.055 C 
HETATM    4  C23 UNK     1      19.043   5.234  30.247  1.00  0.00     0.100 C 
ENDROOT
BRANCH   3   5
HETATM    5  C11 UNK     1      18.835   2.827  30.860  1.00  0.00    -0.015 A 
HETATM    6  C16 UNK     1      19.006   2.401  29.543  1.00  0.00     0.014 A 
HETATM    7  C19 UNK     1      19.289   1.060  29.275  1.00  0.00     0.024 A 
HETATM    8  C21 UNK     1      19.399   0.147  30.323  1.00  0.00     0.034 A 
HETATM    9  C20 UNK     1      19.227   0.574  31.640  1.00  0.00     0.024 A 
HETATM   10 Cl2  UNK     1      19.747  -1.505  29.992  1.00  0.00    -0.084 Cl
HETATM   11  C17 UNK     1      18.944   1.913  31.909  1.00  0.00     0.014 A 
ENDBRANCH   3   5
BRANCH   2  12
HETATM   12  C2  UNK     1      17.495   6.041  32.535  1.00  0.00    -0.015 A 
HETATM   13  C5  UNK     1      16.216   6.487  32.233  1.00  0.00     0.052 A 
HETATM   14  C3  UNK     1      15.860   7.805  32.519  1.00  0.00     0.102 A 
HETATM   15  C1  UNK     1      16.787   8.666  33.107  1.00  0.00     0.103 A 
HETATM   16  C7  UNK     1      18.071   8.208  33.407  1.00  0.00     0.059 A 
HETATM   17  C8  UNK     1      18.426   6.891  33.119  1.00  0.00     0.024 A 
HETATM   18 Br1  UNK     1      20.190   6.332  33.554  1.00  0.00    -0.050 Br
BRANCH  14  19
HETATM   19  O2  UNK     1      14.604   8.240  32.222  1.00  0.00    -0.353 OA
HETATM   20  C22 UNK     1      13.560   7.268  32.238  1.00  0.00     0.210 C 
ENDBRANCH  14  19
BRANCH  15  21
HETATM   21  O1  UNK     1      16.452   9.954  33.392  1.00  0.00    -0.344 OA
BRANCH  21  22
HETATM   22  C4  UNK     1      15.735  10.185  34.603  1.00  0.00     0.216 C 
BRANCH  22  23
HETATM   23  C6  UNK     1      14.523  11.018  34.305  1.00  0.00    -0.012 A 
HETATM   24  C12 UNK     1      13.689  11.475  35.322  1.00  0.00     0.042 A 
HETATM   25 Cl1  UNK     1      14.003  11.112  36.979  1.00  0.00    -0.084 Cl
HETATM   26  C14 UNK     1      12.572  12.248  35.005  1.00  0.00     0.024 A 
HETATM   27  C18 UNK     1      12.291  12.558  33.674  1.00  0.00     0.002 A 
HETATM   28  C15 UNK     1      13.130  12.097  32.660  1.00  0.00     0.001 A 
HETATM   29  C13 UNK     1      14.248  11.325  32.975  1.00  0.00     0.011 A 
ENDBRANCH  22  23
ENDBRANCH  21  22
ENDBRANCH  15  21
ENDBRANCH   2  12
TORSDOF 6
ENDMDL
