MODEL 1
REMARK VINA RESULT:      -7.6      0.000      0.000
REMARK  1 active torsions:
REMARK  status: ('A' for Active; 'I' for Inactive)
REMARK    1  A    between atoms: C11_15  and  N2_4 
ROOT
HETATM    1  O1  UNK     1      18.227   2.047  32.248  1.00  0.00    -0.273 OA
HETATM    2  O2  UNK     1      18.811   2.877  30.206  1.00  0.00    -0.257 OA
HETATM    3  N1  UNK     1      20.031   0.547  29.419  1.00  0.00    -0.385 N 
HETATM    4  C1  UNK     1      20.052  -1.721  31.132  1.00  0.00     0.043 C 
HETATM    5  C2  UNK     1      19.443  -0.392  31.535  1.00  0.00    -0.012 A 
HETATM    6  C3  UNK     1      20.247  -1.859  29.613  1.00  0.00     0.024 C 
HETATM    7  C4  UNK     1      20.828  -0.588  29.000  1.00  0.00     0.120 C 
HETATM    8  C5  UNK     1      19.444   0.636  30.664  1.00  0.00     0.112 A 
HETATM    9  C6  UNK     1      18.852  -0.226  32.868  1.00  0.00     0.009 A 
HETATM   10  C7  UNK     1      18.254   0.993  33.180  1.00  0.00     0.090 A 
HETATM   11  C8  UNK     1      18.818   1.938  30.997  1.00  0.00     0.315 A 
HETATM   12  C9  UNK     1      18.858  -1.218  33.858  1.00  0.00     0.043 A 
HETATM   13  C10 UNK     1      17.663   1.241  34.421  1.00  0.00     0.040 A 
HETATM   14  C11 UNK     1      18.272  -0.985  35.108  1.00  0.00     0.026 A 
HETATM   15  C12 UNK     1      17.673   0.241  35.388  1.00  0.00     0.032 A 
HETATM   16  H7  UNK     1      20.017   1.376  28.833  1.00  0.00     0.159 HD
ENDROOT
BRANCH  14  17
HETATM   17  N2  UNK     1      18.288  -1.999  36.090  1.00  0.00    -0.399 N 
HETATM   18  H11 UNK     1      18.400  -2.967  35.817  1.00  0.00     0.156 HD
HETATM   19  H12 UNK     1      18.181  -1.759  37.067  1.00  0.00     0.156 HD
ENDBRANCH  14  17
TORSDOF 1
ENDMDL
MODEL 2
REMARK VINA RESULT:      -7.3      2.144      4.320
REMARK  1 active torsions:
REMARK  status: ('A' for Active; 'I' for Inactive)
REMARK    1  A    between atoms: C11_15  and  N2_4 
ROOT
HETATM    1  O1  UNK     1      18.282   1.276  33.129  1.00  0.00    -0.273 OA
HETATM    2  O2  UNK     1      18.445  -0.934  33.660  1.00  0.00    -0.257 OA
HETATM    3  N1  UNK     1      19.549  -1.610  31.238  1.00  0.00    -0.385 N 
HETATM    4  C1  UNK     1      20.077   0.388  29.287  1.00  0.00     0.043 C 
HETATM    5  C2  UNK     1      19.418   0.693  30.618  1.00  0.00    -0.012 A 
HETATM    6  C3  UNK     1      20.810  -0.965  29.273  1.00  0.00     0.024 C 
HETATM    7  C4  UNK     1      19.981  -2.063  29.933  1.00  0.00     0.120 C 
HETATM    8  C5  UNK     1      19.220  -0.298  31.509  1.00  0.00     0.112 A 
HETATM    9  C6  UNK     1      19.000   2.063  30.936  1.00  0.00     0.009 A 
HETATM   10  C7  UNK     1      18.449   2.312  32.191  1.00  0.00     0.090 A 
HETATM   11  C8  UNK     1      18.624  -0.037  32.842  1.00  0.00     0.315 A 
HETATM   12  C9  UNK     1      19.112   3.143  30.050  1.00  0.00     0.043 A 
HETATM   13  C10 UNK     1      18.027   3.585  32.583  1.00  0.00     0.040 A 
HETATM   14  C11 UNK     1      18.692   4.424  30.427  1.00  0.00     0.026 A 
HETATM   15  C12 UNK     1      18.153   4.645  31.692  1.00  0.00     0.032 A 
HETATM   16  H7  UNK     1      19.339  -2.302  31.950  1.00  0.00     0.159 HD
ENDROOT
BRANCH  14  17
HETATM   17  N2  UNK     1      18.815   5.498  29.519  1.00  0.00    -0.399 N 
HETATM   18  H11 UNK     1      18.230   5.534  28.695  1.00  0.00     0.156 HD
HETATM   19  H12 UNK     1      19.493   6.229  29.688  1.00  0.00     0.156 HD
ENDBRANCH  14  17
TORSDOF 1
ENDMDL
MODEL 3
REMARK VINA RESULT:      -7.3      1.640      4.526
REMARK  1 active torsions:
REMARK  status: ('A' for Active; 'I' for Inactive)
REMARK    1  A    between atoms: C11_15  and  N2_4 
ROOT
HETATM    1  O1  UNK     1      18.910   1.944  30.870  1.00  0.00    -0.273 OA
HETATM    2  O2  UNK     1      17.826   3.488  32.150  1.00  0.00    -0.257 OA
HETATM    3  N1  UNK     1      17.571   1.785  34.289  1.00  0.00    -0.385 N 
HETATM    4  C1  UNK     1      18.650  -0.842  34.177  1.00  0.00     0.043 C 
HETATM    5  C2  UNK     1      18.711   0.122  33.009  1.00  0.00    -0.012 A 
HETATM    6  C3  UNK     1      18.365  -0.146  35.519  1.00  0.00     0.024 C 
HETATM    7  C4  UNK     1      17.259   0.898  35.390  1.00  0.00     0.120 C 
HETATM    8  C5  UNK     1      18.202   1.362  33.138  1.00  0.00     0.112 A 
HETATM    9  C6  UNK     1      19.325  -0.294  31.742  1.00  0.00     0.009 A 
HETATM   10  C7  UNK     1      19.410   0.639  30.711  1.00  0.00     0.090 A 
HETATM   11  C8  UNK     1      18.283   2.354  32.038  1.00  0.00     0.315 A 
HETATM   12  C9  UNK     1      19.825  -1.580  31.498  1.00  0.00     0.043 A 
HETATM   13  C10 UNK     1      19.981   0.334  29.473  1.00  0.00     0.040 A 
HETATM   14  C11 UNK     1      20.398  -1.902  30.262  1.00  0.00     0.026 A 
HETATM   15  C12 UNK     1      20.479  -0.946  29.252  1.00  0.00     0.032 A 
HETATM   16  H7  UNK     1      17.187   2.724  34.296  1.00  0.00     0.159 HD
ENDROOT
BRANCH  14  17
HETATM   17  N2  UNK     1      20.897  -3.203  30.038  1.00  0.00    -0.399 N 
HETATM   18  H11 UNK     1      20.968  -3.858  30.806  1.00  0.00     0.156 HD
HETATM   19  H12 UNK     1      21.192  -3.480  29.110  1.00  0.00     0.156 HD
ENDBRANCH  14  17
TORSDOF 1
ENDMDL
MODEL 4
REMARK VINA RESULT:      -7.2      2.876      6.061
REMARK  1 active torsions:
REMARK  status: ('A' for Active; 'I' for Inactive)
REMARK    1  A    between atoms: C11_15  and  N2_4 
ROOT
HETATM    1  O1  UNK     1      20.527  -2.883  34.993  1.00  0.00    -0.273 OA
HETATM    2  O2  UNK     1      20.219  -3.012  37.248  1.00  0.00    -0.257 OA
HETATM    3  N1  UNK     1      18.219  -1.130  37.253  1.00  0.00    -0.385 N 
HETATM    4  C1  UNK     1      17.344   0.049  34.819  1.00  0.00     0.043 C 
HETATM    5  C2  UNK     1      18.480  -0.952  34.885  1.00  0.00    -0.012 A 
HETATM    6  C3  UNK     1      16.450   0.030  36.071  1.00  0.00     0.024 C 
HETATM    7  C4  UNK     1      17.275  -0.037  37.353  1.00  0.00     0.120 C 
HETATM    8  C5  UNK     1      18.828  -1.492  36.069  1.00  0.00     0.112 A 
HETATM    9  C6  UNK     1      19.198  -1.333  33.662  1.00  0.00     0.009 A 
HETATM   10  C7  UNK     1      20.199  -2.297  33.757  1.00  0.00     0.090 A 
HETATM   11  C8  UNK     1      19.900  -2.511  36.173  1.00  0.00     0.315 A 
HETATM   12  C9  UNK     1      18.945  -0.780  32.400  1.00  0.00     0.043 A 
HETATM   13  C10 UNK     1      20.932  -2.725  32.647  1.00  0.00     0.040 A 
HETATM   14  C11 UNK     1      19.672  -1.197  31.278  1.00  0.00     0.026 A 
HETATM   15  C12 UNK     1      20.661  -2.169  31.401  1.00  0.00     0.032 A 
HETATM   16  H7  UNK     1      18.560  -1.561  38.106  1.00  0.00     0.159 HD
ENDROOT
BRANCH  14  17
HETATM   17  N2  UNK     1      19.400  -0.627  30.016  1.00  0.00    -0.399 N 
HETATM   18  H11 UNK     1      20.101  -0.653  29.287  1.00  0.00     0.156 HD
HETATM   19  H12 UNK     1      18.507  -0.186  29.840  1.00  0.00     0.156 HD
ENDBRANCH  14  17
TORSDOF 1
ENDMDL
MODEL 5
REMARK VINA RESULT:      -7.1     12.911     14.134
REMARK  1 active torsions:
REMARK  status: ('A' for Active; 'I' for Inactive)
REMARK    1  A    between atoms: C11_15  and  N2_4 
ROOT
HETATM    1  O1  UNK     1      28.178  -4.765  38.743  1.00  0.00    -0.273 OA
HETATM    2  O2  UNK     1      25.910  -4.983  38.822  1.00  0.00    -0.257 OA
HETATM    3  N1  UNK     1      25.996  -7.722  38.640  1.00  0.00    -0.385 N 
HETATM    4  C1  UNK     1      28.489  -9.080  38.519  1.00  0.00     0.043 C 
HETATM    5  C2  UNK     1      28.379  -7.569  38.564  1.00  0.00    -0.012 A 
HETATM    6  C3  UNK     1      27.206  -9.793  38.979  1.00  0.00     0.024 C 
HETATM    7  C4  UNK     1      25.958  -9.146  38.386  1.00  0.00     0.120 C 
HETATM    8  C5  UNK     1      27.165  -6.990  38.646  1.00  0.00     0.112 A 
HETATM    9  C6  UNK     1      29.589  -6.740  38.520  1.00  0.00     0.009 A 
HETATM   10  C7  UNK     1      29.448  -5.357  38.618  1.00  0.00     0.090 A 
HETATM   11  C8  UNK     1      27.012  -5.518  38.741  1.00  0.00     0.315 A 
HETATM   12  C9  UNK     1      30.886  -7.252  38.374  1.00  0.00     0.043 A 
HETATM   13  C10 UNK     1      30.543  -4.490  38.589  1.00  0.00     0.040 A 
HETATM   14  C11 UNK     1      31.993  -6.396  38.342  1.00  0.00     0.026 A 
HETATM   15  C12 UNK     1      31.822  -5.018  38.452  1.00  0.00     0.032 A 
HETATM   16  H7  UNK     1      25.122  -7.208  38.674  1.00  0.00     0.159 HD
ENDROOT
BRANCH  14  17
HETATM   17  N2  UNK     1      33.290  -6.933  38.197  1.00  0.00    -0.399 N 
HETATM   18  H11 UNK     1      34.092  -6.418  38.536  1.00  0.00     0.156 HD
HETATM   19  H12 UNK     1      33.420  -7.829  37.746  1.00  0.00     0.156 HD
ENDBRANCH  14  17
TORSDOF 1
ENDMDL
MODEL 6
REMARK VINA RESULT:      -7.1      2.453      5.462
REMARK  1 active torsions:
REMARK  status: ('A' for Active; 'I' for Inactive)
REMARK    1  A    between atoms: C11_15  and  N2_4 
ROOT
HETATM    1  O1  UNK     1      20.805  -2.350  30.987  1.00  0.00    -0.273 OA
HETATM    2  O2  UNK     1      21.308  -3.823  32.653  1.00  0.00    -0.257 OA
HETATM    3  N1  UNK     1      19.843  -2.458  34.533  1.00  0.00    -0.385 N 
HETATM    4  C1  UNK     1      18.397  -0.119  33.814  1.00  0.00     0.043 C 
HETATM    5  C2  UNK     1      19.267  -0.882  32.834  1.00  0.00    -0.012 A 
HETATM    6  C3  UNK     1      18.026  -0.944  35.059  1.00  0.00     0.024 C 
HETATM    7  C4  UNK     1      19.228  -1.709  35.608  1.00  0.00     0.120 C 
HETATM    8  C5  UNK     1      19.905  -1.998  33.234  1.00  0.00     0.112 A 
HETATM    9  C6  UNK     1      19.410  -0.406  31.452  1.00  0.00     0.009 A 
HETATM   10  C7  UNK     1      20.174  -1.164  30.568  1.00  0.00     0.090 A 
HETATM   11  C8  UNK     1      20.727  -2.802  32.297  1.00  0.00     0.315 A 
HETATM   12  C9  UNK     1      18.833   0.774  30.965  1.00  0.00     0.043 A 
HETATM   13  C10 UNK     1      20.363  -0.792  29.235  1.00  0.00     0.040 A 
HETATM   14  C11 UNK     1      19.014   1.161  29.632  1.00  0.00     0.026 A 
HETATM   15  C12 UNK     1      19.775   0.379  28.768  1.00  0.00     0.032 A 
HETATM   16  H7  UNK     1      20.378  -3.290  34.761  1.00  0.00     0.159 HD
ENDROOT
BRANCH  14  17
HETATM   17  N2  UNK     1      18.422   2.354  29.162  1.00  0.00    -0.399 N 
HETATM   18  H11 UNK     1      18.353   2.527  28.168  1.00  0.00     0.156 HD
HETATM   19  H12 UNK     1      18.073   3.039  29.819  1.00  0.00     0.156 HD
ENDBRANCH  14  17
TORSDOF 1
ENDMDL
MODEL 7
REMARK VINA RESULT:      -6.9      3.061      4.618
REMARK  1 active torsions:
REMARK  status: ('A' for Active; 'I' for Inactive)
REMARK    1  A    between atoms: C11_15  and  N2_4 
ROOT
HETATM    1  O1  UNK     1      18.806   3.152  30.055  1.00  0.00    -0.273 OA
HETATM    2  O2  UNK     1      19.157   1.099  29.128  1.00  0.00    -0.257 OA
HETATM    3  N1  UNK     1      18.855  -0.220  31.518  1.00  0.00    -0.385 N 
HETATM    4  C1  UNK     1      18.234   1.219  33.889  1.00  0.00     0.043 C 
HETATM    5  C2  UNK     1      18.467   1.897  32.553  1.00  0.00    -0.012 A 
HETATM    6  C3  UNK     1      17.932  -0.284  33.757  1.00  0.00     0.024 C 
HETATM    7  C4  UNK     1      18.868  -0.962  32.760  1.00  0.00     0.120 C 
HETATM    8  C5  UNK     1      18.733   1.153  31.463  1.00  0.00     0.112 A 
HETATM    9  C6  UNK     1      18.402   3.360  32.449  1.00  0.00     0.009 A 
HETATM   10  C7  UNK     1      18.568   3.942  31.194  1.00  0.00     0.090 A 
HETATM   11  C8  UNK     1      18.920   1.771  30.127  1.00  0.00     0.315 A 
HETATM   12  C9  UNK     1      18.191   4.216  33.539  1.00  0.00     0.043 A 
HETATM   13  C10 UNK     1      18.518   5.324  30.998  1.00  0.00     0.040 A 
HETATM   14  C11 UNK     1      18.139   5.603  33.359  1.00  0.00     0.026 A 
HETATM   15  C12 UNK     1      18.300   6.156  32.091  1.00  0.00     0.032 A 
HETATM   16  H7  UNK     1      19.087  -0.704  30.657  1.00  0.00     0.159 HD
ENDROOT
BRANCH  14  17
HETATM   17  N2  UNK     1      17.925   6.446  34.471  1.00  0.00    -0.399 N 
HETATM   18  H11 UNK     1      17.738   6.047  35.381  1.00  0.00     0.156 HD
HETATM   19  H12 UNK     1      17.949   7.451  34.357  1.00  0.00     0.156 HD
ENDBRANCH  14  17
TORSDOF 1
ENDMDL
MODEL 8
REMARK VINA RESULT:      -6.9      2.575      5.150
REMARK  1 active torsions:
REMARK  status: ('A' for Active; 'I' for Inactive)
REMARK    1  A    between atoms: C11_15  and  N2_4 
ROOT
HETATM    1  O1  UNK     1      18.532   0.573  32.004  1.00  0.00    -0.273 OA
HETATM    2  O2  UNK     1      18.771  -1.679  32.266  1.00  0.00    -0.257 OA
HETATM    3  N1  UNK     1      18.612  -1.550  35.004  1.00  0.00    -0.385 N 
HETATM    4  C1  UNK     1      18.194   0.941  36.307  1.00  0.00     0.043 C 
HETATM    5  C2  UNK     1      18.345   0.816  34.804  1.00  0.00    -0.012 A 
HETATM    6  C3  UNK     1      17.851  -0.393  36.992  1.00  0.00     0.024 C 
HETATM    7  C4  UNK     1      18.698  -1.540  36.449  1.00  0.00     0.120 C 
HETATM    8  C5  UNK     1      18.516  -0.399  34.248  1.00  0.00     0.112 A 
HETATM    9  C6  UNK     1      18.304   2.014  33.957  1.00  0.00     0.009 A 
HETATM   10  C7  UNK     1      18.393   1.851  32.576  1.00  0.00     0.090 A 
HETATM   11  C8  UNK     1      18.621  -0.574  32.779  1.00  0.00     0.315 A 
HETATM   12  C9  UNK     1      18.191   3.320  34.451  1.00  0.00     0.043 A 
HETATM   13  C10 UNK     1      18.358   2.932  31.692  1.00  0.00     0.040 A 
HETATM   14  C11 UNK     1      18.156   4.414  33.578  1.00  0.00     0.026 A 
HETATM   15  C12 UNK     1      18.238   4.221  32.202  1.00  0.00     0.032 A 
HETATM   16  H7  UNK     1      18.771  -2.422  34.511  1.00  0.00     0.159 HD
ENDROOT
BRANCH  14  17
HETATM   17  N2  UNK     1      18.040   5.722  34.097  1.00  0.00    -0.399 N 
HETATM   18  H11 UNK     1      18.502   5.966  34.964  1.00  0.00     0.156 HD
HETATM   19  H12 UNK     1      17.489   6.414  33.607  1.00  0.00     0.156 HD
ENDBRANCH  14  17
TORSDOF 1
ENDMDL
MODEL 9
REMARK VINA RESULT:      -6.8      6.910      8.682
REMARK  1 active torsions:
REMARK  status: ('A' for Active; 'I' for Inactive)
REMARK    1  A    between atoms: C11_15  and  N2_4 
ROOT
HETATM    1  O1  UNK     1      18.492   7.279  34.591  1.00  0.00    -0.273 OA
HETATM    2  O2  UNK     1      17.005   8.067  36.128  1.00  0.00    -0.257 OA
HETATM    3  N1  UNK     1      14.921   8.115  34.339  1.00  0.00    -0.385 N 
HETATM    4  C1  UNK     1      15.298   7.229  31.665  1.00  0.00     0.043 C 
HETATM    5  C2  UNK     1      16.423   7.278  32.680  1.00  0.00    -0.012 A 
HETATM    6  C3  UNK     1      13.902   7.272  32.309  1.00  0.00     0.024 C 
HETATM    7  C4  UNK     1      13.823   8.318  33.418  1.00  0.00     0.120 C 
HETATM    8  C5  UNK     1      16.170   7.685  33.939  1.00  0.00     0.112 A 
HETATM    9  C6  UNK     1      17.782   6.882  32.293  1.00  0.00     0.009 A 
HETATM   10  C7  UNK     1      18.776   6.890  33.269  1.00  0.00     0.090 A 
HETATM   11  C8  UNK     1      17.229   7.703  34.977  1.00  0.00     0.315 A 
HETATM   12  C9  UNK     1      18.150   6.504  30.995  1.00  0.00     0.043 A 
HETATM   13  C10 UNK     1      20.096   6.525  32.994  1.00  0.00     0.040 A 
HETATM   14  C11 UNK     1      19.469   6.137  30.703  1.00  0.00     0.026 A 
HETATM   15  C12 UNK     1      20.440   6.145  31.701  1.00  0.00     0.032 A 
HETATM   16  H7  UNK     1      14.821   8.434  35.297  1.00  0.00     0.159 HD
ENDROOT
BRANCH  14  17
HETATM   17  N2  UNK     1      19.816   5.758  29.388  1.00  0.00    -0.399 N 
HETATM   18  H11 UNK     1      19.310   6.141  28.600  1.00  0.00     0.156 HD
HETATM   19  H12 UNK     1      20.567   5.098  29.233  1.00  0.00     0.156 HD
ENDBRANCH  14  17
TORSDOF 1
ENDMDL
MODEL 10
REMARK VINA RESULT:      -6.8     23.665     24.907
REMARK  1 active torsions:
REMARK  status: ('A' for Active; 'I' for Inactive)
REMARK    1  A    between atoms: C11_15  and  N2_4 
ROOT
HETATM    1  O1  UNK     1      16.299   6.112  10.023  1.00  0.00    -0.273 OA
HETATM    2  O2  UNK     1      15.599   3.945   9.920  1.00  0.00    -0.257 OA
HETATM    3  N1  UNK     1      13.224   4.591   8.703  1.00  0.00    -0.385 N 
HETATM    4  C1  UNK     1      12.629   7.292   8.046  1.00  0.00     0.043 C 
HETATM    5  C2  UNK     1      13.898   6.882   8.768  1.00  0.00    -0.012 A 
HETATM    6  C3  UNK     1      11.935   6.119   7.333  1.00  0.00     0.024 C 
HETATM    7  C4  UNK     1      11.891   4.871   8.211  1.00  0.00     0.120 C 
HETATM    8  C5  UNK     1      14.130   5.581   9.026  1.00  0.00     0.112 A 
HETATM    9  C6  UNK     1      14.872   7.900   9.181  1.00  0.00     0.009 A 
HETATM   10  C7  UNK     1      16.050   7.477   9.793  1.00  0.00     0.090 A 
HETATM   11  C8  UNK     1      15.379   5.130   9.686  1.00  0.00     0.315 A 
HETATM   12  C9  UNK     1      14.687   9.278   9.008  1.00  0.00     0.043 A 
HETATM   13  C10 UNK     1      17.035   8.373  10.216  1.00  0.00     0.040 A 
HETATM   14  C11 UNK     1      15.664  10.188   9.428  1.00  0.00     0.026 A 
HETATM   15  C12 UNK     1      16.837   9.737  10.028  1.00  0.00     0.032 A 
HETATM   16  H7  UNK     1      13.459   3.638   8.960  1.00  0.00     0.159 HD
ENDROOT
BRANCH  14  17
HETATM   17  N2  UNK     1      15.459  11.573   9.243  1.00  0.00    -0.399 N 
HETATM   18  H11 UNK     1      15.113  11.919   8.357  1.00  0.00     0.156 HD
HETATM   19  H12 UNK     1      15.664  12.220   9.992  1.00  0.00     0.156 HD
ENDBRANCH  14  17
TORSDOF 1
ENDMDL
