MODEL 1
REMARK VINA RESULT:     -10.2      0.000      0.000
REMARK  7 active torsions:
REMARK  status: ('A' for Active; 'I' for Inactive)
REMARK    1  A    between atoms: C10_20  and  O1_4 
REMARK    2  A    between atoms: C22_32  and  O1_4 
REMARK    3  A    between atoms: C20_30  and  O4_7 
REMARK       I    between atoms: C12_22  and  N2_10 
REMARK    4  A    between atoms: C6_16  and  N2_10 
REMARK    5  A    between atoms: C1_11  and  C3_13 
REMARK    6  A    between atoms: C3_13  and  C6_16 
REMARK    7  A    between atoms: C12_22  and  C13_23 
ROOT
HETATM    1  C6  UNK     1      19.521  -2.427  37.171  1.00  0.00     0.127 C 
ENDROOT
BRANCH   1   2
HETATM    2  C3  UNK     1      18.142  -1.771  37.135  1.00  0.00     0.061 C 
BRANCH   2   3
HETATM    3  C1  UNK     1      18.119  -0.480  36.366  1.00  0.00    -0.022 A 
HETATM    4  C2  UNK     1      18.369  -0.348  34.986  1.00  0.00     0.002 A 
HETATM    5  C7  UNK     1      18.690  -1.239  33.942  1.00  0.00     0.051 A 
HETATM    6  C5  UNK     1      18.244   1.012  34.694  1.00  0.00     0.043 A 
HETATM    7  C10 UNK     1      18.873  -0.736  32.648  1.00  0.00     0.079 A 
HETATM    8  C11 UNK     1      18.743   0.626  32.386  1.00  0.00     0.039 A 
HETATM    9  C8  UNK     1      18.424   1.528  33.405  1.00  0.00     0.033 A 
HETATM   10  N1  UNK     1      17.930   1.651  35.872  1.00  0.00    -0.359 N 
HETATM   11  C4  UNK     1      17.853   0.746  36.895  1.00  0.00     0.013 A 
HETATM   12  H3  UNK     1      17.780   2.647  35.962  1.00  0.00     0.166 HD
HETATM   13  C9  UNK     1      17.531   1.176  38.269  1.00  0.00     0.068 C 
BRANCH   7  14
HETATM   14  O1  UNK     1      19.183  -1.592  31.633  1.00  0.00    -0.255 OA
BRANCH  14  15
HETATM   15  C22 UNK     1      20.555  -1.793  31.317  1.00  0.00     0.530 C 
HETATM   16  F1  UNK     1      21.134  -0.642  30.910  1.00  0.00    -0.144 F 
HETATM   17  F2  UNK     1      20.642  -2.684  30.305  1.00  0.00    -0.144 F 
HETATM   18  F3  UNK     1      21.229  -2.295  32.373  1.00  0.00    -0.144 F 
ENDBRANCH  14  15
ENDBRANCH   7  14
ENDBRANCH   2   3
ENDBRANCH   1   2
BRANCH   1  19
HETATM   19  N2  UNK     1      19.450  -3.869  37.197  1.00  0.00    -0.356 N 
HETATM   20  C12 UNK     1      19.841  -4.664  36.134  1.00  0.00     0.257 C 
HETATM   21  O3  UNK     1      20.286  -4.269  35.058  1.00  0.00    -0.267 OA
HETATM   22  H11 UNK     1      19.063  -4.293  38.035  1.00  0.00     0.162 HD
BRANCH  20  23
HETATM   23  C13 UNK     1      19.676  -6.098  36.400  1.00  0.00     0.108 A 
HETATM   24  C15 UNK     1      20.751  -6.866  36.188  1.00  0.00     0.037 A 
HETATM   25  C14 UNK     1      20.685  -8.300  36.425  1.00  0.00     0.002 A 
HETATM   26  C16 UNK     1      19.490  -8.854  36.872  1.00  0.00     0.089 A 
HETATM   27  C18 UNK     1      21.782  -9.140  36.218  1.00  0.00     0.051 A 
HETATM   28  C19 UNK     1      19.361 -10.220  37.117  1.00  0.00     0.041 A 
HETATM   29  O2  UNK     1      18.362  -8.041  37.093  1.00  0.00    -0.274 OA
HETATM   30  C21 UNK     1      20.460 -11.050  36.908  1.00  0.00     0.039 A 
HETATM   31  C20 UNK     1      21.667 -10.512  36.460  1.00  0.00     0.069 A 
HETATM   32  C17 UNK     1      18.394  -6.666  36.877  1.00  0.00     0.304 A 
HETATM   33  O5  UNK     1      17.408  -5.964  37.073  1.00  0.00    -0.259 OA
BRANCH  31  34
HETATM   34  O4  UNK     1      22.740 -11.327  36.258  1.00  0.00    -0.356 OA
HETATM   35  C23 UNK     1      24.015 -10.701  36.133  1.00  0.00     0.210 C 
ENDBRANCH  31  34
ENDBRANCH  20  23
ENDBRANCH   1  19
TORSDOF 7
ENDMDL
MODEL 2
REMARK VINA RESULT:     -10.0      6.016      9.426
REMARK  7 active torsions:
REMARK  status: ('A' for Active; 'I' for Inactive)
REMARK    1  A    between atoms: C10_20  and  O1_4 
REMARK    2  A    between atoms: C22_32  and  O1_4 
REMARK    3  A    between atoms: C20_30  and  O4_7 
REMARK       I    between atoms: C12_22  and  N2_10 
REMARK    4  A    between atoms: C6_16  and  N2_10 
REMARK    5  A    between atoms: C1_11  and  C3_13 
REMARK    6  A    between atoms: C3_13  and  C6_16 
REMARK    7  A    between atoms: C12_22  and  C13_23 
ROOT
HETATM    1  C6  UNK     1      18.701   4.872  29.896  1.00  0.00     0.127 C 
ENDROOT
BRANCH   1   2
HETATM    2  C3  UNK     1      19.826   5.851  30.226  1.00  0.00     0.061 C 
BRANCH   2   3
HETATM    3  C1  UNK     1      19.745   6.398  31.622  1.00  0.00    -0.022 A 
HETATM    4  C2  UNK     1      18.615   7.014  32.195  1.00  0.00     0.002 A 
HETATM    5  C7  UNK     1      17.312   7.315  31.749  1.00  0.00     0.051 A 
HETATM    6  C5  UNK     1      18.978   7.367  33.496  1.00  0.00     0.043 A 
HETATM    7  C10 UNK     1      16.424   7.956  32.620  1.00  0.00     0.079 A 
HETATM    8  C11 UNK     1      16.813   8.296  33.914  1.00  0.00     0.039 A 
HETATM    9  C8  UNK     1      18.100   8.007  34.378  1.00  0.00     0.033 A 
HETATM   10  N1  UNK     1      20.282   6.966  33.675  1.00  0.00    -0.359 N 
HETATM   11  C4  UNK     1      20.756   6.374  32.535  1.00  0.00     0.013 A 
HETATM   12  H3  UNK     1      20.810   7.093  34.528  1.00  0.00     0.166 HD
HETATM   13  C9  UNK     1      22.136   5.856  32.464  1.00  0.00     0.068 C 
BRANCH   7  14
HETATM   14  O1  UNK     1      15.162   8.249  32.197  1.00  0.00    -0.255 OA
BRANCH  14  15
HETATM   15  C22 UNK     1      14.122   7.322  32.488  1.00  0.00     0.530 C 
HETATM   16  F1  UNK     1      14.402   6.102  31.981  1.00  0.00    -0.144 F 
HETATM   17  F2  UNK     1      12.978   7.758  31.915  1.00  0.00    -0.144 F 
HETATM   18  F3  UNK     1      13.913   7.228  33.818  1.00  0.00    -0.144 F 
ENDBRANCH  14  15
ENDBRANCH   7  14
ENDBRANCH   2   3
ENDBRANCH   1   2
BRANCH   1  19
HETATM   19  N2  UNK     1      19.107   3.492  30.036  1.00  0.00    -0.356 N 
HETATM   20  C12 UNK     1      18.275   2.509  30.541  1.00  0.00     0.257 C 
HETATM   21  O3  UNK     1      17.119   2.664  30.928  1.00  0.00    -0.267 OA
HETATM   22  H11 UNK     1      20.061   3.267  29.771  1.00  0.00     0.162 HD
BRANCH  20  23
HETATM   23  C13 UNK     1      18.912   1.187  30.582  1.00  0.00     0.108 A 
HETATM   24  C15 UNK     1      19.030   0.624  31.790  1.00  0.00     0.037 A 
HETATM   25  C14 UNK     1      19.648  -0.685  31.931  1.00  0.00     0.002 A 
HETATM   26  C16 UNK     1      20.113  -1.337  30.794  1.00  0.00     0.089 A 
HETATM   27  C18 UNK     1      19.790  -1.311  33.173  1.00  0.00     0.051 A 
HETATM   28  C19 UNK     1      20.714  -2.591  30.861  1.00  0.00     0.041 A 
HETATM   29  O2  UNK     1      19.987  -0.739  29.525  1.00  0.00    -0.274 OA
HETATM   30  C21 UNK     1      20.853  -3.208  32.103  1.00  0.00     0.039 A 
HETATM   31  C20 UNK     1      20.392  -2.570  33.255  1.00  0.00     0.069 A 
HETATM   32  C17 UNK     1      19.399   0.512  29.357  1.00  0.00     0.304 A 
HETATM   33  O5  UNK     1      19.292   1.025  28.248  1.00  0.00    -0.259 OA
BRANCH  31  34
HETATM   34  O4  UNK     1      20.528  -3.177  34.467  1.00  0.00    -0.356 OA
HETATM   35  C23 UNK     1      20.463  -2.342  35.622  1.00  0.00     0.210 C 
ENDBRANCH  31  34
ENDBRANCH  20  23
ENDBRANCH   1  19
TORSDOF 7
ENDMDL
MODEL 3
REMARK VINA RESULT:      -9.8      5.220      7.777
REMARK  7 active torsions:
REMARK  status: ('A' for Active; 'I' for Inactive)
REMARK    1  A    between atoms: C10_20  and  O1_4 
REMARK    2  A    between atoms: C22_32  and  O1_4 
REMARK    3  A    between atoms: C20_30  and  O4_7 
REMARK       I    between atoms: C12_22  and  N2_10 
REMARK    4  A    between atoms: C6_16  and  N2_10 
REMARK    5  A    between atoms: C1_11  and  C3_13 
REMARK    6  A    between atoms: C3_13  and  C6_16 
REMARK    7  A    between atoms: C12_22  and  C13_23 
ROOT
HETATM    1  C6  UNK     1      18.774   4.269  30.227  1.00  0.00     0.127 C 
ENDROOT
BRANCH   1   2
HETATM    2  C3  UNK     1      17.824   4.691  31.347  1.00  0.00     0.061 C 
BRANCH   2   3
HETATM    3  C1  UNK     1      18.419   4.538  32.718  1.00  0.00    -0.022 A 
HETATM    4  C2  UNK     1      18.364   3.372  33.507  1.00  0.00     0.002 A 
HETATM    5  C7  UNK     1      17.813   2.085  33.345  1.00  0.00     0.051 A 
HETATM    6  C5  UNK     1      19.038   3.670  34.693  1.00  0.00     0.043 A 
HETATM    7  C10 UNK     1      17.956   1.147  34.375  1.00  0.00     0.079 A 
HETATM    8  C11 UNK     1      18.634   1.472  35.548  1.00  0.00     0.039 A 
HETATM    9  C8  UNK     1      19.190   2.742  35.730  1.00  0.00     0.033 A 
HETATM   10  N1  UNK     1      19.473   4.972  34.595  1.00  0.00    -0.359 N 
HETATM   11  C4  UNK     1      19.098   5.507  33.392  1.00  0.00     0.013 A 
HETATM   12  H3  UNK     1      19.994   5.459  35.313  1.00  0.00     0.166 HD
HETATM   13  C9  UNK     1      19.441   6.898  33.038  1.00  0.00     0.068 C 
BRANCH   7  14
HETATM   14  O1  UNK     1      17.426  -0.100  34.225  1.00  0.00    -0.255 OA
BRANCH  14  15
HETATM   15  C22 UNK     1      16.362  -0.487  35.086  1.00  0.00     0.530 C 
HETATM   16  F1  UNK     1      16.833  -0.920  36.276  1.00  0.00    -0.144 F 
HETATM   17  F2  UNK     1      15.686  -1.505  34.511  1.00  0.00    -0.144 F 
HETATM   18  F3  UNK     1      15.498   0.531  35.279  1.00  0.00    -0.144 F 
ENDBRANCH  14  15
ENDBRANCH   7  14
ENDBRANCH   2   3
ENDBRANCH   1   2
BRANCH   1  19
HETATM   19  N2  UNK     1      19.173   2.885  30.328  1.00  0.00    -0.356 N 
HETATM   20  C12 UNK     1      18.639   1.885  29.535  1.00  0.00     0.257 C 
HETATM   21  O3  UNK     1      17.782   2.029  28.665  1.00  0.00    -0.267 OA
HETATM   22  H11 UNK     1      19.858   2.658  31.043  1.00  0.00     0.162 HD
BRANCH  20  23
HETATM   23  C13 UNK     1      19.207   0.562  29.823  1.00  0.00     0.108 A 
HETATM   24  C15 UNK     1      19.381   0.262  31.114  1.00  0.00     0.037 A 
HETATM   25  C14 UNK     1      19.936  -1.026  31.499  1.00  0.00     0.002 A 
HETATM   26  C16 UNK     1      20.283  -1.934  30.503  1.00  0.00     0.089 A 
HETATM   27  C18 UNK     1      20.135  -1.383  32.835  1.00  0.00     0.051 A 
HETATM   28  C19 UNK     1      20.820  -3.184  30.805  1.00  0.00     0.041 A 
HETATM   29  O2  UNK     1      20.098  -1.612  29.145  1.00  0.00    -0.274 OA
HETATM   30  C21 UNK     1      21.015  -3.531  32.140  1.00  0.00     0.039 A 
HETATM   31  C20 UNK     1      20.673  -2.633  33.153  1.00  0.00     0.069 A 
HETATM   32  C17 UNK     1      19.567  -0.388  28.746  1.00  0.00     0.304 A 
HETATM   33  O5  UNK     1      19.408  -0.116  27.561  1.00  0.00    -0.259 OA
BRANCH  31  34
HETATM   34  O4  UNK     1      20.863  -2.977  34.457  1.00  0.00    -0.356 OA
HETATM   35  C23 UNK     1      20.037  -2.332  35.424  1.00  0.00     0.210 C 
ENDBRANCH  31  34
ENDBRANCH  20  23
ENDBRANCH   1  19
TORSDOF 7
ENDMDL
MODEL 4
REMARK VINA RESULT:      -9.4      5.778      9.590
REMARK  7 active torsions:
REMARK  status: ('A' for Active; 'I' for Inactive)
REMARK    1  A    between atoms: C10_20  and  O1_4 
REMARK    2  A    between atoms: C22_32  and  O1_4 
REMARK    3  A    between atoms: C20_30  and  O4_7 
REMARK       I    between atoms: C12_22  and  N2_10 
REMARK    4  A    between atoms: C6_16  and  N2_10 
REMARK    5  A    between atoms: C1_11  and  C3_13 
REMARK    6  A    between atoms: C3_13  and  C6_16 
REMARK    7  A    between atoms: C12_22  and  C13_23 
ROOT
HETATM    1  C6  UNK     1      18.965   4.430  30.076  1.00  0.00     0.127 C 
ENDROOT
BRANCH   1   2
HETATM    2  C3  UNK     1      19.465   5.873  30.124  1.00  0.00     0.061 C 
BRANCH   2   3
HETATM    3  C1  UNK     1      19.509   6.440  31.515  1.00  0.00    -0.022 A 
HETATM    4  C2  UNK     1      18.443   7.092  32.165  1.00  0.00     0.002 A 
HETATM    5  C7  UNK     1      17.117   7.421  31.819  1.00  0.00     0.051 A 
HETATM    6  C5  UNK     1      18.916   7.451  33.428  1.00  0.00     0.043 A 
HETATM    7  C10 UNK     1      16.316   8.095  32.748  1.00  0.00     0.079 A 
HETATM    8  C11 UNK     1      16.815   8.442  34.002  1.00  0.00     0.039 A 
HETATM    9  C8  UNK     1      18.127   8.126  34.367  1.00  0.00     0.033 A 
HETATM   10  N1  UNK     1      20.220   7.019  33.510  1.00  0.00    -0.359 N 
HETATM   11  C4  UNK     1      20.588   6.401  32.345  1.00  0.00     0.013 A 
HETATM   12  H3  UNK     1      20.817   7.144  34.317  1.00  0.00     0.166 HD
HETATM   13  C9  UNK     1      21.944   5.846  32.173  1.00  0.00     0.068 C 
BRANCH   7  14
HETATM   14  O1  UNK     1      15.033   8.415  32.420  1.00  0.00    -0.255 OA
BRANCH  14  15
HETATM   15  C22 UNK     1      14.031   7.417  32.572  1.00  0.00     0.530 C 
HETATM   16  F1  UNK     1      12.860   7.817  32.030  1.00  0.00    -0.144 F 
HETATM   17  F2  UNK     1      13.826   7.203  33.891  1.00  0.00    -0.144 F 
HETATM   18  F3  UNK     1      14.418   6.250  32.016  1.00  0.00    -0.144 F 
ENDBRANCH  14  15
ENDBRANCH   7  14
ENDBRANCH   2   3
ENDBRANCH   1   2
BRANCH   1  19
HETATM   19  N2  UNK     1      18.796   3.857  31.391  1.00  0.00    -0.356 N 
HETATM   20  C12 UNK     1      18.371   2.556  31.598  1.00  0.00     0.257 C 
HETATM   21  O3  UNK     1      18.088   1.738  30.726  1.00  0.00    -0.267 OA
HETATM   22  H11 UNK     1      18.975   4.467  32.183  1.00  0.00     0.162 HD
BRANCH  20  23
HETATM   23  C13 UNK     1      18.279   2.205  33.021  1.00  0.00     0.108 A 
HETATM   24  C15 UNK     1      18.316   0.899  33.311  1.00  0.00     0.037 A 
HETATM   25  C14 UNK     1      18.231   0.453  34.693  1.00  0.00     0.002 A 
HETATM   26  C16 UNK     1      18.109   1.404  35.701  1.00  0.00     0.089 A 
HETATM   27  C18 UNK     1      18.266  -0.899  35.042  1.00  0.00     0.051 A 
HETATM   28  C19 UNK     1      18.023   1.042  37.044  1.00  0.00     0.041 A 
HETATM   29  O2  UNK     1      18.071   2.776  35.389  1.00  0.00    -0.274 OA
HETATM   30  C21 UNK     1      18.060  -0.309  37.383  1.00  0.00     0.039 A 
HETATM   31  C20 UNK     1      18.181  -1.277  36.385  1.00  0.00     0.069 A 
HETATM   32  C17 UNK     1      18.151   3.234  34.077  1.00  0.00     0.304 A 
HETATM   33  O5  UNK     1      18.118   4.432  33.815  1.00  0.00    -0.259 OA
BRANCH  31  34
HETATM   34  O4  UNK     1      18.217  -2.597  36.721  1.00  0.00    -0.356 OA
HETATM   35  C23 UNK     1      19.461  -3.274  36.554  1.00  0.00     0.210 C 
ENDBRANCH  31  34
ENDBRANCH  20  23
ENDBRANCH   1  19
TORSDOF 7
ENDMDL
MODEL 5
REMARK VINA RESULT:      -9.4     17.061     21.770
REMARK  7 active torsions:
REMARK  status: ('A' for Active; 'I' for Inactive)
REMARK    1  A    between atoms: C10_20  and  O1_4 
REMARK    2  A    between atoms: C22_32  and  O1_4 
REMARK    3  A    between atoms: C20_30  and  O4_7 
REMARK       I    between atoms: C12_22  and  N2_10 
REMARK    4  A    between atoms: C6_16  and  N2_10 
REMARK    5  A    between atoms: C1_11  and  C3_13 
REMARK    6  A    between atoms: C3_13  and  C6_16 
REMARK    7  A    between atoms: C12_22  and  C13_23 
ROOT
HETATM    1  C6  UNK     1      20.366  -4.210  14.181  1.00  0.00     0.127 C 
ENDROOT
BRANCH   1   2
HETATM    2  C3  UNK     1      19.747  -4.363  12.793  1.00  0.00     0.061 C 
BRANCH   2   3
HETATM    3  C1  UNK     1      19.394  -5.783  12.454  1.00  0.00    -0.022 A 
HETATM    4  C2  UNK     1      18.343  -6.523  13.031  1.00  0.00     0.002 A 
HETATM    5  C7  UNK     1      17.359  -6.262  14.006  1.00  0.00     0.051 A 
HETATM    6  C5  UNK     1      18.375  -7.783  12.430  1.00  0.00     0.043 A 
HETATM    7  C10 UNK     1      16.447  -7.269  14.342  1.00  0.00     0.079 A 
HETATM    8  C11 UNK     1      16.503  -8.518  13.725  1.00  0.00     0.039 A 
HETATM    9  C8  UNK     1      17.469  -8.800  12.756  1.00  0.00     0.033 A 
HETATM   10  N1  UNK     1      19.415  -7.775  11.529  1.00  0.00    -0.359 N 
HETATM   11  C4  UNK     1      20.040  -6.557  11.539  1.00  0.00     0.013 A 
HETATM   12  H3  UNK     1      19.676  -8.559  10.945  1.00  0.00     0.166 HD
HETATM   13  C9  UNK     1      21.194  -6.286  10.660  1.00  0.00     0.068 C 
BRANCH   7  14
HETATM   14  O1  UNK     1      15.492  -7.024  15.282  1.00  0.00    -0.255 OA
BRANCH  14  15
HETATM   15  C22 UNK     1      15.914  -6.686  16.598  1.00  0.00     0.530 C 
HETATM   16  F1  UNK     1      17.213  -7.006  16.789  1.00  0.00    -0.144 F 
HETATM   17  F2  UNK     1      15.177  -7.389  17.486  1.00  0.00    -0.144 F 
HETATM   18  F3  UNK     1      15.725  -5.373  16.848  1.00  0.00    -0.144 F 
ENDBRANCH  14  15
ENDBRANCH   7  14
ENDBRANCH   2   3
ENDBRANCH   1   2
BRANCH   1  19
HETATM   19  N2  UNK     1      20.170  -2.890  14.734  1.00  0.00    -0.356 N 
HETATM   20  C12 UNK     1      19.066  -2.546  15.494  1.00  0.00     0.257 C 
HETATM   21  O3  UNK     1      18.131  -3.286  15.792  1.00  0.00    -0.267 OA
HETATM   22  H11 UNK     1      20.876  -2.194  14.516  1.00  0.00     0.162 HD
BRANCH  20  23
HETATM   23  C13 UNK     1      19.095  -1.149  15.945  1.00  0.00     0.108 A 
HETATM   24  C15 UNK     1      18.928  -0.948  17.257  1.00  0.00     0.037 A 
HETATM   25  C14 UNK     1      18.942   0.402  17.799  1.00  0.00     0.002 A 
HETATM   26  C16 UNK     1      19.128   1.474  16.931  1.00  0.00     0.089 A 
HETATM   27  C18 UNK     1      18.772   0.659  19.161  1.00  0.00     0.051 A 
HETATM   28  C19 UNK     1      19.151   2.790  17.387  1.00  0.00     0.041 A 
HETATM   29  O2  UNK     1      19.303   1.255  15.552  1.00  0.00    -0.274 OA
HETATM   30  C21 UNK     1      18.982   3.038  18.747  1.00  0.00     0.039 A 
HETATM   31  C20 UNK     1      18.793   1.975  19.633  1.00  0.00     0.069 A 
HETATM   32  C17 UNK     1      19.297  -0.024  15.003  1.00  0.00     0.304 A 
HETATM   33  O5  UNK     1      19.451  -0.205  13.800  1.00  0.00    -0.259 OA
BRANCH  31  34
HETATM   34  O4  UNK     1      18.628   2.221  20.962  1.00  0.00    -0.356 OA
HETATM   35  C23 UNK     1      19.778   2.078  21.795  1.00  0.00     0.210 C 
ENDBRANCH  31  34
ENDBRANCH  20  23
ENDBRANCH   1  19
TORSDOF 7
ENDMDL
MODEL 6
REMARK VINA RESULT:      -9.4      1.548      2.089
REMARK  7 active torsions:
REMARK  status: ('A' for Active; 'I' for Inactive)
REMARK    1  A    between atoms: C10_20  and  O1_4 
REMARK    2  A    between atoms: C22_32  and  O1_4 
REMARK    3  A    between atoms: C20_30  and  O4_7 
REMARK       I    between atoms: C12_22  and  N2_10 
REMARK    4  A    between atoms: C6_16  and  N2_10 
REMARK    5  A    between atoms: C1_11  and  C3_13 
REMARK    6  A    between atoms: C3_13  and  C6_16 
REMARK    7  A    between atoms: C12_22  and  C13_23 
ROOT
HETATM    1  C6  UNK     1      19.463  -2.443  37.217  1.00  0.00     0.127 C 
ENDROOT
BRANCH   1   2
HETATM    2  C3  UNK     1      18.073  -1.833  37.044  1.00  0.00     0.061 C 
BRANCH   2   3
HETATM    3  C1  UNK     1      18.084  -0.538  36.283  1.00  0.00    -0.022 A 
HETATM    4  C2  UNK     1      18.363  -0.400  34.909  1.00  0.00     0.002 A 
HETATM    5  C7  UNK     1      18.692  -1.289  33.865  1.00  0.00     0.051 A 
HETATM    6  C5  UNK     1      18.264   0.963  34.624  1.00  0.00     0.043 A 
HETATM    7  C10 UNK     1      18.909  -0.780  32.580  1.00  0.00     0.079 A 
HETATM    8  C11 UNK     1      18.804   0.585  32.324  1.00  0.00     0.039 A 
HETATM    9  C8  UNK     1      18.478   1.485  33.343  1.00  0.00     0.033 A 
HETATM   10  N1  UNK     1      17.936   1.600  35.800  1.00  0.00    -0.359 N 
HETATM   11  C4  UNK     1      17.825   0.688  36.816  1.00  0.00     0.013 A 
HETATM   12  H3  UNK     1      17.798   2.597  35.894  1.00  0.00     0.166 HD
HETATM   13  C9  UNK     1      17.481   1.115  38.186  1.00  0.00     0.068 C 
BRANCH   7  14
HETATM   14  O1  UNK     1      19.227  -1.634  31.565  1.00  0.00    -0.255 OA
BRANCH  14  15
HETATM   15  C22 UNK     1      20.599  -1.804  31.234  1.00  0.00     0.530 C 
HETATM   16  F1  UNK     1      21.103  -0.688  30.662  1.00  0.00    -0.144 F 
HETATM   17  F2  UNK     1      20.709  -2.814  30.343  1.00  0.00    -0.144 F 
HETATM   18  F3  UNK     1      21.327  -2.129  32.323  1.00  0.00    -0.144 F 
ENDBRANCH  14  15
ENDBRANCH   7  14
ENDBRANCH   2   3
ENDBRANCH   1   2
BRANCH   1  19
HETATM   19  N2  UNK     1      19.455  -3.884  37.114  1.00  0.00    -0.356 N 
HETATM   20  C12 UNK     1      20.599  -4.654  37.218  1.00  0.00     0.257 C 
HETATM   21  O3  UNK     1      21.740  -4.237  37.405  1.00  0.00    -0.267 OA
HETATM   22  H11 UNK     1      18.559  -4.323  36.926  1.00  0.00     0.162 HD
BRANCH  20  23
HETATM   23  C13 UNK     1      20.335  -6.092  37.082  1.00  0.00     0.108 A 
HETATM   24  C15 UNK     1      20.208  -6.781  38.222  1.00  0.00     0.037 A 
HETATM   25  C14 UNK     1      19.945  -8.211  38.189  1.00  0.00     0.002 A 
HETATM   26  C16 UNK     1      19.830  -8.846  36.956  1.00  0.00     0.089 A 
HETATM   27  C18 UNK     1      19.805  -8.969  39.354  1.00  0.00     0.051 A 
HETATM   28  C19 UNK     1      19.579 -10.212  36.856  1.00  0.00     0.041 A 
HETATM   29  O2  UNK     1      19.964  -8.116  35.760  1.00  0.00    -0.274 OA
HETATM   30  C21 UNK     1      19.440 -10.961  38.023  1.00  0.00     0.039 A 
HETATM   31  C20 UNK     1      19.552 -10.342  39.269  1.00  0.00     0.069 A 
HETATM   32  C17 UNK     1      20.215  -6.746  35.759  1.00  0.00     0.304 A 
HETATM   33  O5  UNK     1      20.329  -6.118  34.712  1.00  0.00    -0.259 OA
BRANCH  31  34
HETATM   34  O4  UNK     1      19.415 -11.077  40.407  1.00  0.00    -0.356 OA
HETATM   35  C23 UNK     1      18.988 -12.430  40.257  1.00  0.00     0.210 C 
ENDBRANCH  31  34
ENDBRANCH  20  23
ENDBRANCH   1  19
TORSDOF 7
ENDMDL
MODEL 7
REMARK VINA RESULT:      -9.3      6.790     13.390
REMARK  7 active torsions:
REMARK  status: ('A' for Active; 'I' for Inactive)
REMARK    1  A    between atoms: C10_20  and  O1_4 
REMARK    2  A    between atoms: C22_32  and  O1_4 
REMARK    3  A    between atoms: C20_30  and  O4_7 
REMARK       I    between atoms: C12_22  and  N2_10 
REMARK    4  A    between atoms: C6_16  and  N2_10 
REMARK    5  A    between atoms: C1_11  and  C3_13 
REMARK    6  A    between atoms: C3_13  and  C6_16 
REMARK    7  A    between atoms: C12_22  and  C13_23 
ROOT
HETATM    1  C6  UNK     1      19.045   3.955  31.597  1.00  0.00     0.127 C 
ENDROOT
BRANCH   1   2
HETATM    2  C3  UNK     1      18.418   2.862  30.735  1.00  0.00     0.061 C 
BRANCH   2   3
HETATM    3  C1  UNK     1      18.730   1.474  31.218  1.00  0.00    -0.022 A 
HETATM    4  C2  UNK     1      18.569   1.013  32.539  1.00  0.00     0.002 A 
HETATM    5  C7  UNK     1      18.120   1.586  33.746  1.00  0.00     0.051 A 
HETATM    6  C5  UNK     1      18.975  -0.323  32.540  1.00  0.00     0.043 A 
HETATM    7  C10 UNK     1      18.094   0.802  34.905  1.00  0.00     0.079 A 
HETATM    8  C11 UNK     1      18.505  -0.529  34.877  1.00  0.00     0.039 A 
HETATM    9  C8  UNK     1      18.954  -1.119  33.692  1.00  0.00     0.033 A 
HETATM   10  N1  UNK     1      19.361  -0.630  31.255  1.00  0.00    -0.359 N 
HETATM   11  C4  UNK     1      19.214   0.463  30.443  1.00  0.00     0.013 A 
HETATM   12  H3  UNK     1      19.703  -1.534  30.958  1.00  0.00     0.166 HD
HETATM   13  C9  UNK     1      19.561   0.399  29.011  1.00  0.00     0.068 C 
BRANCH   7  14
HETATM   14  O1  UNK     1      17.660   1.349  36.076  1.00  0.00    -0.255 OA
BRANCH  14  15
HETATM   15  C22 UNK     1      16.432   0.881  36.623  1.00  0.00     0.530 C 
HETATM   16  F1  UNK     1      15.572   0.518  35.647  1.00  0.00    -0.144 F 
HETATM   17  F2  UNK     1      15.862   1.882  37.329  1.00  0.00    -0.144 F 
HETATM   18  F3  UNK     1      16.637  -0.156  37.461  1.00  0.00    -0.144 F 
ENDBRANCH  14  15
ENDBRANCH   7  14
ENDBRANCH   2   3
ENDBRANCH   1   2
BRANCH   1  19
HETATM   19  N2  UNK     1      18.170   5.089  31.782  1.00  0.00    -0.356 N 
HETATM   20  C12 UNK     1      18.582   6.274  32.365  1.00  0.00     0.257 C 
HETATM   21  O3  UNK     1      19.708   6.519  32.793  1.00  0.00    -0.267 OA
HETATM   22  H11 UNK     1      17.205   4.974  31.488  1.00  0.00     0.162 HD
BRANCH  20  23
HETATM   23  C13 UNK     1      17.513   7.277  32.439  1.00  0.00     0.108 A 
HETATM   24  C15 UNK     1      17.212   7.732  33.660  1.00  0.00     0.037 A 
HETATM   25  C14 UNK     1      16.166   8.729  33.835  1.00  0.00     0.002 A 
HETATM   26  C16 UNK     1      15.487   9.195  32.713  1.00  0.00     0.089 A 
HETATM   27  C18 UNK     1      15.819   9.232  35.091  1.00  0.00     0.051 A 
HETATM   28  C19 UNK     1      14.476  10.148  32.812  1.00  0.00     0.041 A 
HETATM   29  O2  UNK     1      15.809   8.712  31.430  1.00  0.00    -0.274 OA
HETATM   30  C21 UNK     1      14.136  10.645  34.068  1.00  0.00     0.039 A 
HETATM   31  C20 UNK     1      14.806  10.189  35.205  1.00  0.00     0.069 A 
HETATM   32  C17 UNK     1      16.805   7.760  31.231  1.00  0.00     0.304 A 
HETATM   33  O5  UNK     1      17.079   7.346  30.110  1.00  0.00    -0.259 OA
BRANCH  31  34
HETATM   34  O4  UNK     1      14.472  10.678  36.431  1.00  0.00    -0.356 OA
HETATM   35  C23 UNK     1      13.935  11.998  36.478  1.00  0.00     0.210 C 
ENDBRANCH  31  34
ENDBRANCH  20  23
ENDBRANCH   1  19
TORSDOF 7
ENDMDL
MODEL 8
REMARK VINA RESULT:      -9.3      6.471     13.080
REMARK  7 active torsions:
REMARK  status: ('A' for Active; 'I' for Inactive)
REMARK    1  A    between atoms: C10_20  and  O1_4 
REMARK    2  A    between atoms: C22_32  and  O1_4 
REMARK    3  A    between atoms: C20_30  and  O4_7 
REMARK       I    between atoms: C12_22  and  N2_10 
REMARK    4  A    between atoms: C6_16  and  N2_10 
REMARK    5  A    between atoms: C1_11  and  C3_13 
REMARK    6  A    between atoms: C3_13  and  C6_16 
REMARK    7  A    between atoms: C12_22  and  C13_23 
ROOT
HETATM    1  C6  UNK     1      19.294   3.434  30.308  1.00  0.00     0.127 C 
ENDROOT
BRANCH   1   2
HETATM    2  C3  UNK     1      18.247   2.324  30.227  1.00  0.00     0.061 C 
BRANCH   2   3
HETATM    3  C1  UNK     1      18.730   1.012  30.776  1.00  0.00    -0.022 A 
HETATM    4  C2  UNK     1      18.639   0.607  32.122  1.00  0.00     0.002 A 
HETATM    5  C7  UNK     1      18.135   1.185  33.305  1.00  0.00     0.051 A 
HETATM    6  C5  UNK     1      19.204  -0.669  32.186  1.00  0.00     0.043 A 
HETATM    7  C10 UNK     1      18.216   0.467  34.504  1.00  0.00     0.079 A 
HETATM    8  C11 UNK     1      18.785  -0.804  34.538  1.00  0.00     0.039 A 
HETATM    9  C8  UNK     1      19.291  -1.398  33.378  1.00  0.00     0.033 A 
HETATM   10  N1  UNK     1      19.612  -0.995  30.913  1.00  0.00    -0.359 N 
HETATM   11  C4  UNK     1      19.325   0.027  30.048  1.00  0.00     0.013 A 
HETATM   12  H3  UNK     1      20.059  -1.866  30.658  1.00  0.00     0.166 HD
HETATM   13  C9  UNK     1      19.664  -0.071  28.615  1.00  0.00     0.068 C 
BRANCH   7  14
HETATM   14  O1  UNK     1      17.729   1.019  35.651  1.00  0.00    -0.255 OA
BRANCH  14  15
HETATM   15  C22 UNK     1      16.555   0.456  36.224  1.00  0.00     0.530 C 
HETATM   16  F1  UNK     1      15.688   0.062  35.266  1.00  0.00    -0.144 F 
HETATM   17  F2  UNK     1      15.944   1.397  36.977  1.00  0.00    -0.144 F 
HETATM   18  F3  UNK     1      16.857  -0.587  37.025  1.00  0.00    -0.144 F 
ENDBRANCH  14  15
ENDBRANCH   7  14
ENDBRANCH   2   3
ENDBRANCH   1   2
BRANCH   1  19
HETATM   19  N2  UNK     1      18.870   4.539  31.136  1.00  0.00    -0.356 N 
HETATM   20  C12 UNK     1      19.058   5.863  30.782  1.00  0.00     0.257 C 
HETATM   21  O3  UNK     1      19.591   6.270  29.752  1.00  0.00    -0.267 OA
HETATM   22  H11 UNK     1      18.446   4.305  32.028  1.00  0.00     0.162 HD
BRANCH  20  23
HETATM   23  C13 UNK     1      18.541   6.802  31.785  1.00  0.00     0.108 A 
HETATM   24  C15 UNK     1      17.324   7.306  31.552  1.00  0.00     0.037 A 
HETATM   25  C14 UNK     1      16.727   8.245  32.490  1.00  0.00     0.002 A 
HETATM   26  C16 UNK     1      17.443   8.608  33.626  1.00  0.00     0.089 A 
HETATM   27  C18 UNK     1      15.459   8.795  32.287  1.00  0.00     0.051 A 
HETATM   28  C19 UNK     1      16.929   9.502  34.562  1.00  0.00     0.041 A 
HETATM   29  O2  UNK     1      18.724   8.074  33.865  1.00  0.00    -0.274 OA
HETATM   30  C21 UNK     1      15.663  10.046  34.353  1.00  0.00     0.039 A 
HETATM   31  C20 UNK     1      14.930   9.693  33.218  1.00  0.00     0.069 A 
HETATM   32  C17 UNK     1      19.320   7.173  32.988  1.00  0.00     0.304 A 
HETATM   33  O5  UNK     1      20.436   6.712  33.205  1.00  0.00    -0.259 OA
BRANCH  31  34
HETATM   34  O4  UNK     1      13.693  10.227  33.018  1.00  0.00    -0.356 OA
HETATM   35  C23 UNK     1      13.629  11.615  32.700  1.00  0.00     0.210 C 
ENDBRANCH  31  34
ENDBRANCH  20  23
ENDBRANCH   1  19
TORSDOF 7
ENDMDL
MODEL 9
REMARK VINA RESULT:      -9.3      3.970      9.519
REMARK  7 active torsions:
REMARK  status: ('A' for Active; 'I' for Inactive)
REMARK    1  A    between atoms: C10_20  and  O1_4 
REMARK    2  A    between atoms: C22_32  and  O1_4 
REMARK    3  A    between atoms: C20_30  and  O4_7 
REMARK       I    between atoms: C12_22  and  N2_10 
REMARK    4  A    between atoms: C6_16  and  N2_10 
REMARK    5  A    between atoms: C1_11  and  C3_13 
REMARK    6  A    between atoms: C3_13  and  C6_16 
REMARK    7  A    between atoms: C12_22  and  C13_23 
ROOT
HETATM    1  C6  UNK     1      19.647  -3.515  36.730  1.00  0.00     0.127 C 
ENDROOT
BRANCH   1   2
HETATM    2  C3  UNK     1      19.801  -4.847  35.997  1.00  0.00     0.061 C 
BRANCH   2   3
HETATM    3  C1  UNK     1      19.524  -6.039  36.869  1.00  0.00    -0.022 A 
HETATM    4  C2  UNK     1      20.450  -6.648  37.739  1.00  0.00     0.002 A 
HETATM    5  C7  UNK     1      21.797  -6.415  38.081  1.00  0.00     0.051 A 
HETATM    6  C5  UNK     1      19.776  -7.709  38.347  1.00  0.00     0.043 A 
HETATM    7  C10 UNK     1      22.418  -7.251  39.016  1.00  0.00     0.079 A 
HETATM    8  C11 UNK     1      21.721  -8.303  39.607  1.00  0.00     0.039 A 
HETATM    9  C8  UNK     1      20.385  -8.553  39.284  1.00  0.00     0.033 A 
HETATM   10  N1  UNK     1      18.495  -7.716  37.845  1.00  0.00    -0.359 N 
HETATM   11  C4  UNK     1      18.335  -6.699  36.943  1.00  0.00     0.013 A 
HETATM   12  H3  UNK     1      17.778  -8.379  38.108  1.00  0.00     0.166 HD
HETATM   13  C9  UNK     1      17.046  -6.486  36.256  1.00  0.00     0.068 C 
BRANCH   7  14
HETATM   14  O1  UNK     1      23.720  -7.032  39.352  1.00  0.00    -0.255 OA
BRANCH  14  15
HETATM   15  C22 UNK     1      24.710  -7.902  38.816  1.00  0.00     0.530 C 
HETATM   16  F1  UNK     1      25.036  -8.870  39.699  1.00  0.00    -0.144 F 
HETATM   17  F2  UNK     1      25.825  -7.184  38.555  1.00  0.00    -0.144 F 
HETATM   18  F3  UNK     1      24.294  -8.458  37.659  1.00  0.00    -0.144 F 
ENDBRANCH  14  15
ENDBRANCH   7  14
ENDBRANCH   2   3
ENDBRANCH   1   2
BRANCH   1  19
HETATM   19  N2  UNK     1      19.425  -2.408  35.829  1.00  0.00    -0.356 N 
HETATM   20  C12 UNK     1      18.297  -1.609  35.878  1.00  0.00     0.257 C 
HETATM   21  O3  UNK     1      17.359  -1.725  36.665  1.00  0.00    -0.267 OA
HETATM   22  H11 UNK     1      20.132  -2.249  35.118  1.00  0.00     0.162 HD
BRANCH  20  23
HETATM   23  C13 UNK     1      18.302  -0.549  34.863  1.00  0.00     0.108 A 
HETATM   24  C15 UNK     1      18.800  -0.878  33.666  1.00  0.00     0.037 A 
HETATM   25  C14 UNK     1      18.847   0.105  32.596  1.00  0.00     0.002 A 
HETATM   26  C16 UNK     1      18.368   1.389  32.840  1.00  0.00     0.089 A 
HETATM   27  C18 UNK     1      19.357  -0.195  31.330  1.00  0.00     0.051 A 
HETATM   28  C19 UNK     1      18.385   2.377  31.857  1.00  0.00     0.041 A 
HETATM   29  O2  UNK     1      17.846   1.730  34.102  1.00  0.00    -0.274 OA
HETATM   30  C21 UNK     1      18.896   2.069  30.598  1.00  0.00     0.039 A 
HETATM   31  C20 UNK     1      19.380   0.787  30.335  1.00  0.00     0.069 A 
HETATM   32  C17 UNK     1      17.786   0.810  35.145  1.00  0.00     0.304 A 
HETATM   33  O5  UNK     1      17.328   1.115  36.241  1.00  0.00    -0.259 OA
BRANCH  31  34
HETATM   34  O4  UNK     1      19.878   0.489  29.102  1.00  0.00    -0.356 OA
HETATM   35  C23 UNK     1      20.059  -0.891  28.792  1.00  0.00     0.210 C 
ENDBRANCH  31  34
ENDBRANCH  20  23
ENDBRANCH   1  19
TORSDOF 7
ENDMDL
MODEL 10
REMARK VINA RESULT:      -9.3      7.009      9.846
REMARK  7 active torsions:
REMARK  status: ('A' for Active; 'I' for Inactive)
REMARK    1  A    between atoms: C10_20  and  O1_4 
REMARK    2  A    between atoms: C22_32  and  O1_4 
REMARK    3  A    between atoms: C20_30  and  O4_7 
REMARK       I    between atoms: C12_22  and  N2_10 
REMARK    4  A    between atoms: C6_16  and  N2_10 
REMARK    5  A    between atoms: C1_11  and  C3_13 
REMARK    6  A    between atoms: C3_13  and  C6_16 
REMARK    7  A    between atoms: C12_22  and  C13_23 
ROOT
HETATM    1  C6  UNK     1      18.932   4.828  29.741  1.00  0.00     0.127 C 
ENDROOT
BRANCH   1   2
HETATM    2  C3  UNK     1      19.809   5.985  30.217  1.00  0.00     0.061 C 
BRANCH   2   3
HETATM    3  C1  UNK     1      19.690   6.252  31.691  1.00  0.00    -0.022 A 
HETATM    4  C2  UNK     1      18.493   6.547  32.373  1.00  0.00     0.002 A 
HETATM    5  C7  UNK     1      17.141   6.688  31.999  1.00  0.00     0.051 A 
HETATM    6  C5  UNK     1      18.840   6.721  33.715  1.00  0.00     0.043 A 
HETATM    7  C10 UNK     1      16.191   6.996  32.978  1.00  0.00     0.079 A 
HETATM    8  C11 UNK     1      16.565   7.164  34.310  1.00  0.00     0.039 A 
HETATM    9  C8  UNK     1      17.899   7.029  34.705  1.00  0.00     0.033 A 
HETATM   10  N1  UNK     1      20.200   6.531  33.809  1.00  0.00    -0.359 N 
HETATM   11  C4  UNK     1      20.724   6.245  32.577  1.00  0.00     0.013 A 
HETATM   12  H3  UNK     1      20.731   6.595  34.667  1.00  0.00     0.166 HD
HETATM   13  C9  UNK     1      22.168   5.999  32.403  1.00  0.00     0.068 C 
BRANCH   7  14
HETATM   14  O1  UNK     1      14.882   7.133  32.624  1.00  0.00    -0.255 OA
BRANCH  14  15
HETATM   15  C22 UNK     1      14.249   8.385  32.855  1.00  0.00     0.530 C 
HETATM   16  F1  UNK     1      13.065   8.459  32.208  1.00  0.00    -0.144 F 
HETATM   17  F2  UNK     1      15.044   9.369  32.379  1.00  0.00    -0.144 F 
HETATM   18  F3  UNK     1      14.064   8.601  34.174  1.00  0.00    -0.144 F 
ENDBRANCH  14  15
ENDBRANCH   7  14
ENDBRANCH   2   3
ENDBRANCH   1   2
BRANCH   1  19
HETATM   19  N2  UNK     1      19.001   3.682  30.616  1.00  0.00    -0.356 N 
HETATM   20  C12 UNK     1      18.564   2.422  30.246  1.00  0.00     0.257 C 
HETATM   21  O3  UNK     1      18.074   2.114  29.162  1.00  0.00    -0.267 OA
HETATM   22  H11 UNK     1      19.364   3.841  31.551  1.00  0.00     0.162 HD
BRANCH  20  23
HETATM   23  C13 UNK     1      18.741   1.421  31.305  1.00  0.00     0.108 A 
HETATM   24  C15 UNK     1      18.279   1.753  32.516  1.00  0.00     0.037 A 
HETATM   25  C14 UNK     1      18.408   0.826  33.630  1.00  0.00     0.002 A 
HETATM   26  C16 UNK     1      19.020  -0.405  33.413  1.00  0.00     0.089 A 
HETATM   27  C18 UNK     1      17.940   1.131  34.910  1.00  0.00     0.051 A 
HETATM   28  C19 UNK     1      19.174  -1.336  34.437  1.00  0.00     0.041 A 
HETATM   29  O2  UNK     1      19.503  -0.748  32.137  1.00  0.00    -0.274 OA
HETATM   30  C21 UNK     1      18.705  -1.025  35.711  1.00  0.00     0.039 A 
HETATM   31  C20 UNK     1      18.089   0.206  35.947  1.00  0.00     0.069 A 
HETATM   32  C17 UNK     1      19.393   0.117  31.051  1.00  0.00     0.304 A 
HETATM   33  O5  UNK     1      19.817  -0.192  29.942  1.00  0.00    -0.259 OA
BRANCH  31  34
HETATM   34  O4  UNK     1      17.630   0.506  37.194  1.00  0.00    -0.356 OA
HETATM   35  C23 UNK     1      16.665   1.552  37.295  1.00  0.00     0.210 C 
ENDBRANCH  31  34
ENDBRANCH  20  23
ENDBRANCH   1  19
TORSDOF 7
ENDMDL
