MODEL 1
REMARK VINA RESULT:      -8.7      0.000      0.000
REMARK  11 active torsions:
REMARK  status: ('A' for Active; 'I' for Inactive)
REMARK    1  A    between atoms: C1_6  and  O1_1 
REMARK    2  A    between atoms: C15_20  and  O3_3 
REMARK    3  A    between atoms: C16_21  and  O3_3 
REMARK    4  A    between atoms: C1_6  and  C4_9 
REMARK    5  A    between atoms: C2_7  and  C3_8 
REMARK    6  A    between atoms: C2_7  and  C4_9 
REMARK    7  A    between atoms: C3_8  and  C5_10 
REMARK    8  A    between atoms: C6_11  and  C7_12 
REMARK    9  A    between atoms: C6_11  and  C8_13 
REMARK   10  A    between atoms: C11_16  and  C8_13 
REMARK   11  A    between atoms: C13_18  and  C15_20 
ROOT
HETATM    1  C11 UNK     1      19.627   5.622  32.437  1.00  0.00    -0.085 C 
HETATM    2  C13 UNK     1      18.813   4.704  31.882  1.00  0.00     0.002 C 
HETATM    3  C14 UNK     1      20.781   6.187  31.650  1.00  0.00     0.043 C 
ENDROOT
BRANCH   1   4
HETATM    4  C8  UNK     1      19.446   6.185  33.831  1.00  0.00     0.037 C 
BRANCH   4   5
HETATM    5  C6  UNK     1      19.589   7.711  33.913  1.00  0.00     0.031 C 
BRANCH   5   6
HETATM    6  C7  UNK     1      18.290   8.409  34.209  1.00  0.00    -0.024 C 
HETATM    7  C5  UNK     1      18.041   9.734  34.220  1.00  0.00    -0.087 C 
HETATM    8  C12 UNK     1      19.144  10.711  33.905  1.00  0.00     0.043 C 
BRANCH   7   9
HETATM    9  C3  UNK     1      16.694  10.357  34.510  1.00  0.00     0.041 C 
BRANCH   9  10
HETATM   10  C2  UNK     1      15.724  10.212  33.336  1.00  0.00     0.086 C 
BRANCH  10  11
HETATM   11  C4  UNK     1      14.896   8.934  33.421  1.00  0.00     0.160 C 
HETATM   12  O2  UNK     1      14.164   8.706  34.386  1.00  0.00    -0.295 OA
BRANCH  11  13
HETATM   13  C1  UNK     1      15.014   7.930  32.263  1.00  0.00     0.111 C 
HETATM   14  C9  UNK     1      13.644   7.407  31.845  1.00  0.00     0.053 C 
HETATM   15  C10 UNK     1      15.965   6.789  32.609  1.00  0.00     0.053 C 
BRANCH  13  16
HETATM   16  O1  UNK     1      15.551   8.634  31.144  1.00  0.00    -0.383 OA
HETATM   17  H19 UNK     1      14.807   8.979  30.621  1.00  0.00     0.211 HD
ENDBRANCH  13  16
ENDBRANCH  11  13
ENDBRANCH  10  11
ENDBRANCH   9  10
ENDBRANCH   7   9
ENDBRANCH   5   6
ENDBRANCH   4   5
ENDBRANCH   1   4
BRANCH   2  18
HETATM   18  C15 UNK     1      18.901   4.127  30.505  1.00  0.00     0.203 C 
BRANCH  18  19
HETATM   19  O3  UNK     1      18.052   2.989  30.435  1.00  0.00    -0.347 OA
BRANCH  19  20
HETATM   20  C16 UNK     1      18.662   1.771  30.275  1.00  0.00     0.071 A 
HETATM   21  C19 UNK     1      18.999   1.009  31.391  1.00  0.00     0.075 A 
HETATM   22  C18 UNK     1      19.619  -0.225  31.204  1.00  0.00     0.092 A 
HETATM   23  C17 UNK     1      19.909  -0.714  29.933  1.00  0.00    -0.002 A 
HETATM   24  O4  UNK     1      19.946  -0.974  32.352  1.00  0.00    -0.275 OA
HETATM   25  C21 UNK     1      19.568   0.059  28.820  1.00  0.00     0.017 A 
HETATM   26  C22 UNK     1      20.558  -2.007  29.811  1.00  0.00     0.020 A 
HETATM   27  C20 UNK     1      18.947   1.298  28.992  1.00  0.00     0.038 A 
HETATM   28  C23 UNK     1      20.864  -2.711  30.903  1.00  0.00     0.083 A 
HETATM   29  C24 UNK     1      20.566  -2.216  32.260  1.00  0.00     0.288 A 
HETATM   30  O5  UNK     1      20.854  -2.874  33.253  1.00  0.00    -0.260 OA
ENDBRANCH  19  20
ENDBRANCH  18  19
ENDBRANCH   2  18
TORSDOF 11
ENDMDL
MODEL 2
REMARK VINA RESULT:      -8.6      2.640      9.082
REMARK  11 active torsions:
REMARK  status: ('A' for Active; 'I' for Inactive)
REMARK    1  A    between atoms: C1_6  and  O1_1 
REMARK    2  A    between atoms: C15_20  and  O3_3 
REMARK    3  A    between atoms: C16_21  and  O3_3 
REMARK    4  A    between atoms: C1_6  and  C4_9 
REMARK    5  A    between atoms: C2_7  and  C3_8 
REMARK    6  A    between atoms: C2_7  and  C4_9 
REMARK    7  A    between atoms: C3_8  and  C5_10 
REMARK    8  A    between atoms: C6_11  and  C7_12 
REMARK    9  A    between atoms: C6_11  and  C8_13 
REMARK   10  A    between atoms: C11_16  and  C8_13 
REMARK   11  A    between atoms: C13_18  and  C15_20 
ROOT
HETATM    1  C11 UNK     1      19.764   0.270  29.476  1.00  0.00    -0.085 C 
HETATM    2  C13 UNK     1      19.413   1.401  30.116  1.00  0.00     0.002 C 
HETATM    3  C14 UNK     1      19.082  -0.117  28.190  1.00  0.00     0.043 C 
ENDROOT
BRANCH   1   4
HETATM    4  C8  UNK     1      20.860  -0.665  29.943  1.00  0.00     0.037 C 
BRANCH   4   5
HETATM    5  C6  UNK     1      20.370  -2.074  30.304  1.00  0.00     0.031 C 
BRANCH   5   6
HETATM    6  C7  UNK     1      20.610  -2.430  31.745  1.00  0.00    -0.024 C 
HETATM    7  C5  UNK     1      19.865  -2.100  32.819  1.00  0.00    -0.087 C 
HETATM    8  C12 UNK     1      18.618  -1.273  32.645  1.00  0.00     0.043 C 
BRANCH   7   9
HETATM    9  C3  UNK     1      20.165  -2.518  34.241  1.00  0.00     0.041 C 
BRANCH   9  10
HETATM   10  C2  UNK     1      20.048  -1.352  35.224  1.00  0.00     0.086 C 
BRANCH  10  11
HETATM   11  C4  UNK     1      18.820  -1.470  36.122  1.00  0.00     0.160 C 
HETATM   12  O2  UNK     1      18.558  -2.519  36.715  1.00  0.00    -0.295 OA
BRANCH  11  13
HETATM   13  C1  UNK     1      17.912  -0.238  36.254  1.00  0.00     0.111 C 
HETATM   14  C9  UNK     1      16.557  -0.478  35.599  1.00  0.00     0.053 C 
HETATM   15  C10 UNK     1      18.586   1.014  35.702  1.00  0.00     0.053 C 
BRANCH  13  16
HETATM   16  O1  UNK     1      17.671  -0.038  37.647  1.00  0.00    -0.383 OA
HETATM   17  H19 UNK     1      18.352   0.569  37.986  1.00  0.00     0.211 HD
ENDBRANCH  13  16
ENDBRANCH  11  13
ENDBRANCH  10  11
ENDBRANCH   9  10
ENDBRANCH   7   9
ENDBRANCH   5   6
ENDBRANCH   4   5
ENDBRANCH   1   4
BRANCH   2  18
HETATM   18  C15 UNK     1      18.371   2.392  29.703  1.00  0.00     0.203 C 
BRANCH  18  19
HETATM   19  O3  UNK     1      17.705   2.862  30.867  1.00  0.00    -0.347 OA
BRANCH  19  20
HETATM   20  C16 UNK     1      18.182   4.017  31.429  1.00  0.00     0.071 A 
HETATM   21  C19 UNK     1      17.512   4.598  32.503  1.00  0.00     0.075 A 
HETATM   22  C18 UNK     1      18.015   5.774  33.057  1.00  0.00     0.092 A 
HETATM   23  C17 UNK     1      19.169   6.380  32.567  1.00  0.00    -0.002 A 
HETATM   24  O4  UNK     1      17.316   6.337  34.144  1.00  0.00    -0.275 OA
HETATM   25  C21 UNK     1      19.834   5.790  31.489  1.00  0.00     0.017 A 
HETATM   26  C22 UNK     1      19.637   7.604  33.192  1.00  0.00     0.020 A 
HETATM   27  C20 UNK     1      19.341   4.612  30.923  1.00  0.00     0.038 A 
HETATM   28  C23 UNK     1      18.969   8.131  34.221  1.00  0.00     0.083 A 
HETATM   29  C24 UNK     1      17.746   7.508  34.759  1.00  0.00     0.288 A 
HETATM   30  O5  UNK     1      17.144   8.005  35.704  1.00  0.00    -0.260 OA
ENDBRANCH  19  20
ENDBRANCH  18  19
ENDBRANCH   2  18
TORSDOF 11
ENDMDL
MODEL 3
REMARK VINA RESULT:      -8.6      4.418      8.317
REMARK  11 active torsions:
REMARK  status: ('A' for Active; 'I' for Inactive)
REMARK    1  A    between atoms: C1_6  and  O1_1 
REMARK    2  A    between atoms: C15_20  and  O3_3 
REMARK    3  A    between atoms: C16_21  and  O3_3 
REMARK    4  A    between atoms: C1_6  and  C4_9 
REMARK    5  A    between atoms: C2_7  and  C3_8 
REMARK    6  A    between atoms: C2_7  and  C4_9 
REMARK    7  A    between atoms: C3_8  and  C5_10 
REMARK    8  A    between atoms: C6_11  and  C7_12 
REMARK    9  A    between atoms: C6_11  and  C8_13 
REMARK   10  A    between atoms: C11_16  and  C8_13 
REMARK   11  A    between atoms: C13_18  and  C15_20 
ROOT
HETATM    1  C11 UNK     1      19.404  -1.727  33.312  1.00  0.00    -0.085 C 
HETATM    2  C13 UNK     1      20.216  -2.493  34.066  1.00  0.00     0.002 C 
HETATM    3  C14 UNK     1      18.389  -0.827  33.966  1.00  0.00     0.043 C 
ENDROOT
BRANCH   1   4
HETATM    4  C8  UNK     1      19.457  -1.666  31.800  1.00  0.00     0.037 C 
BRANCH   4   5
HETATM    5  C6  UNK     1      20.319  -0.521  31.250  1.00  0.00     0.031 C 
BRANCH   5   6
HETATM    6  C7  UNK     1      19.523   0.713  30.926  1.00  0.00    -0.024 C 
HETATM    7  C5  UNK     1      18.992   1.073  29.741  1.00  0.00    -0.087 C 
HETATM    8  C12 UNK     1      19.169   0.187  28.535  1.00  0.00     0.043 C 
BRANCH   7   9
HETATM    9  C3  UNK     1      18.181   2.328  29.502  1.00  0.00     0.041 C 
BRANCH   9  10
HETATM   10  C2  UNK     1      18.946   3.593  29.894  1.00  0.00     0.086 C 
BRANCH  10  11
HETATM   11  C4  UNK     1      18.457   4.182  31.213  1.00  0.00     0.160 C 
HETATM   12  O2  UNK     1      17.667   3.570  31.935  1.00  0.00    -0.295 OA
BRANCH  11  13
HETATM   13  C1  UNK     1      18.976   5.573  31.610  1.00  0.00     0.111 C 
HETATM   14  C9  UNK     1      17.925   6.647  31.353  1.00  0.00     0.053 C 
HETATM   15  C10 UNK     1      20.291   5.899  30.909  1.00  0.00     0.053 C 
BRANCH  13  16
HETATM   16  O1  UNK     1      19.213   5.551  33.017  1.00  0.00    -0.383 OA
HETATM   17  H19 UNK     1      19.831   4.823  33.206  1.00  0.00     0.211 HD
ENDBRANCH  13  16
ENDBRANCH  11  13
ENDBRANCH  10  11
ENDBRANCH   9  10
ENDBRANCH   7   9
ENDBRANCH   5   6
ENDBRANCH   4   5
ENDBRANCH   1   4
BRANCH   2  18
HETATM   18  C15 UNK     1      20.252  -2.582  35.558  1.00  0.00     0.203 C 
BRANCH  18  19
HETATM   19  O3  UNK     1      19.431  -3.667  35.968  1.00  0.00    -0.347 OA
BRANCH  19  20
HETATM   20  C16 UNK     1      20.070  -4.827  36.322  1.00  0.00     0.071 A 
HETATM   21  C19 UNK     1      20.185  -5.867  35.404  1.00  0.00     0.075 A 
HETATM   22  C18 UNK     1      20.838  -7.038  35.787  1.00  0.00     0.092 A 
HETATM   23  C17 UNK     1      21.377  -7.192  37.062  1.00  0.00    -0.002 A 
HETATM   24  O4  UNK     1      20.941  -8.072  34.835  1.00  0.00    -0.275 OA
HETATM   25  C21 UNK     1      21.255  -6.143  37.977  1.00  0.00     0.017 A 
HETATM   26  C22 UNK     1      22.043  -8.439  37.395  1.00  0.00     0.020 A 
HETATM   27  C20 UNK     1      20.603  -4.964  37.607  1.00  0.00     0.038 A 
HETATM   28  C23 UNK     1      22.137  -9.413  36.488  1.00  0.00     0.083 A 
HETATM   29  C24 UNK     1      21.575  -9.274  35.131  1.00  0.00     0.288 A 
HETATM   30  O5  UNK     1      21.669 -10.179  34.309  1.00  0.00    -0.260 OA
ENDBRANCH  19  20
ENDBRANCH  18  19
ENDBRANCH   2  18
TORSDOF 11
ENDMDL
MODEL 4
REMARK VINA RESULT:      -8.6      2.353      4.553
REMARK  11 active torsions:
REMARK  status: ('A' for Active; 'I' for Inactive)
REMARK    1  A    between atoms: C1_6  and  O1_1 
REMARK    2  A    between atoms: C15_20  and  O3_3 
REMARK    3  A    between atoms: C16_21  and  O3_3 
REMARK    4  A    between atoms: C1_6  and  C4_9 
REMARK    5  A    between atoms: C2_7  and  C3_8 
REMARK    6  A    between atoms: C2_7  and  C4_9 
REMARK    7  A    between atoms: C3_8  and  C5_10 
REMARK    8  A    between atoms: C6_11  and  C7_12 
REMARK    9  A    between atoms: C6_11  and  C8_13 
REMARK   10  A    between atoms: C11_16  and  C8_13 
REMARK   11  A    between atoms: C13_18  and  C15_20 
ROOT
HETATM    1  C11 UNK     1      18.200   1.557  35.769  1.00  0.00    -0.085 C 
HETATM    2  C13 UNK     1      19.114   0.607  35.489  1.00  0.00     0.002 C 
HETATM    3  C14 UNK     1      17.034   1.245  36.670  1.00  0.00     0.043 C 
ENDROOT
BRANCH   1   4
HETATM    4  C8  UNK     1      18.274   2.981  35.261  1.00  0.00     0.037 C 
BRANCH   4   5
HETATM    5  C6  UNK     1      18.278   3.100  33.730  1.00  0.00     0.031 C 
BRANCH   5   6
HETATM    6  C7  UNK     1      18.209   4.523  33.249  1.00  0.00    -0.024 C 
HETATM    7  C5  UNK     1      18.397   4.988  31.998  1.00  0.00    -0.087 C 
HETATM    8  C12 UNK     1      18.719   4.033  30.879  1.00  0.00     0.043 C 
BRANCH   7   9
HETATM    9  C3  UNK     1      18.288   6.441  31.591  1.00  0.00     0.041 C 
BRANCH   9  10
HETATM   10  C2  UNK     1      17.553   7.282  32.637  1.00  0.00     0.086 C 
BRANCH  10  11
HETATM   11  C4  UNK     1      16.444   8.130  32.025  1.00  0.00     0.160 C 
HETATM   12  O2  UNK     1      16.369   8.308  30.807  1.00  0.00    -0.295 OA
BRANCH  11  13
HETATM   13  C1  UNK     1      15.424   8.769  32.981  1.00  0.00     0.111 C 
HETATM   14  C9  UNK     1      16.117   9.616  34.041  1.00  0.00     0.053 C 
HETATM   15  C10 UNK     1      14.516   7.718  33.612  1.00  0.00     0.053 C 
BRANCH  13  16
HETATM   16  O1  UNK     1      14.613   9.652  32.207  1.00  0.00    -0.383 OA
HETATM   17  H19 UNK     1      15.162  10.014  31.490  1.00  0.00     0.211 HD
ENDBRANCH  13  16
ENDBRANCH  11  13
ENDBRANCH  10  11
ENDBRANCH   9  10
ENDBRANCH   7   9
ENDBRANCH   5   6
ENDBRANCH   4   5
ENDBRANCH   1   4
BRANCH   2  18
HETATM   18  C15 UNK     1      19.133  -0.806  35.979  1.00  0.00     0.203 C 
BRANCH  18  19
HETATM   19  O3  UNK     1      18.609  -1.646  34.960  1.00  0.00    -0.347 OA
BRANCH  19  20
HETATM   20  C16 UNK     1      19.176  -1.538  33.716  1.00  0.00     0.071 A 
HETATM   21  C19 UNK     1      18.676  -0.616  32.801  1.00  0.00     0.075 A 
HETATM   22  C18 UNK     1      19.268  -0.525  31.542  1.00  0.00     0.092 A 
HETATM   23  C17 UNK     1      20.345  -1.330  31.179  1.00  0.00    -0.002 A 
HETATM   24  O4  UNK     1      18.741   0.419  30.637  1.00  0.00    -0.275 OA
HETATM   25  C21 UNK     1      20.839  -2.252  32.104  1.00  0.00     0.017 A 
HETATM   26  C22 UNK     1      20.913  -1.182  29.850  1.00  0.00     0.020 A 
HETATM   27  C20 UNK     1      20.255  -2.355  33.369  1.00  0.00     0.038 A 
HETATM   28  C23 UNK     1      20.409  -0.286  29.000  1.00  0.00     0.083 A 
HETATM   29  C24 UNK     1      19.270   0.578  29.361  1.00  0.00     0.288 A 
HETATM   30  O5  UNK     1      18.818   1.397  28.567  1.00  0.00    -0.260 OA
ENDBRANCH  19  20
ENDBRANCH  18  19
ENDBRANCH   2  18
TORSDOF 11
ENDMDL
MODEL 5
REMARK VINA RESULT:      -8.6      2.310      9.739
REMARK  11 active torsions:
REMARK  status: ('A' for Active; 'I' for Inactive)
REMARK    1  A    between atoms: C1_6  and  O1_1 
REMARK    2  A    between atoms: C15_20  and  O3_3 
REMARK    3  A    between atoms: C16_21  and  O3_3 
REMARK    4  A    between atoms: C1_6  and  C4_9 
REMARK    5  A    between atoms: C2_7  and  C3_8 
REMARK    6  A    between atoms: C2_7  and  C4_9 
REMARK    7  A    between atoms: C3_8  and  C5_10 
REMARK    8  A    between atoms: C6_11  and  C7_12 
REMARK    9  A    between atoms: C6_11  and  C8_13 
REMARK   10  A    between atoms: C11_16  and  C8_13 
REMARK   11  A    between atoms: C13_18  and  C15_20 
ROOT
HETATM    1  C11 UNK     1      18.512   3.424  30.627  1.00  0.00    -0.085 C 
HETATM    2  C13 UNK     1      18.040   3.224  31.872  1.00  0.00     0.002 C 
HETATM    3  C14 UNK     1      19.313   4.660  30.310  1.00  0.00     0.043 C 
ENDROOT
BRANCH   1   4
HETATM    4  C8  UNK     1      18.329   2.450  29.482  1.00  0.00     0.037 C 
BRANCH   4   5
HETATM    5  C6  UNK     1      19.357   1.310  29.461  1.00  0.00     0.031 C 
BRANCH   5   6
HETATM    6  C7  UNK     1      19.326   0.466  30.705  1.00  0.00    -0.024 C 
HETATM    7  C5  UNK     1      19.789  -0.789  30.871  1.00  0.00    -0.087 C 
HETATM    8  C12 UNK     1      20.435  -1.513  29.717  1.00  0.00     0.043 C 
BRANCH   7   9
HETATM    9  C3  UNK     1      19.738  -1.566  32.168  1.00  0.00     0.041 C 
BRANCH   9  10
HETATM   10  C2  UNK     1      18.602  -1.096  33.078  1.00  0.00     0.086 C 
BRANCH  10  11
HETATM   11  C4  UNK     1      19.037  -0.973  34.534  1.00  0.00     0.160 C 
HETATM   12  O2  UNK     1      19.891  -1.722  35.014  1.00  0.00    -0.295 OA
BRANCH  11  13
HETATM   13  C1  UNK     1      18.366   0.112  35.391  1.00  0.00     0.111 C 
HETATM   14  C9  UNK     1      18.068  -0.400  36.796  1.00  0.00     0.053 C 
HETATM   15  C10 UNK     1      17.110   0.657  34.718  1.00  0.00     0.053 C 
BRANCH  13  16
HETATM   16  O1  UNK     1      19.300   1.182  35.526  1.00  0.00    -0.383 OA
HETATM   17  H19 UNK     1      20.057   0.996  34.945  1.00  0.00     0.211 HD
ENDBRANCH  13  16
ENDBRANCH  11  13
ENDBRANCH  10  11
ENDBRANCH   9  10
ENDBRANCH   7   9
ENDBRANCH   5   6
ENDBRANCH   4   5
ENDBRANCH   1   4
BRANCH   2  18
HETATM   18  C15 UNK     1      18.208   4.115  33.061  1.00  0.00     0.203 C 
BRANCH  18  19
HETATM   19  O3  UNK     1      17.345   5.234  32.915  1.00  0.00    -0.347 OA
BRANCH  19  20
HETATM   20  C16 UNK     1      17.860   6.461  33.246  1.00  0.00     0.071 A 
HETATM   21  C19 UNK     1      17.033   7.581  33.264  1.00  0.00     0.075 A 
HETATM   22  C18 UNK     1      17.579   8.818  33.603  1.00  0.00     0.092 A 
HETATM   23  C17 UNK     1      18.927   8.960  33.925  1.00  0.00    -0.002 A 
HETATM   24  O4  UNK     1      16.718   9.934  33.614  1.00  0.00    -0.275 OA
HETATM   25  C21 UNK     1      19.748   7.831  33.903  1.00  0.00     0.017 A 
HETATM   26  C22 UNK     1      19.430  10.279  34.268  1.00  0.00     0.020 A 
HETATM   27  C20 UNK     1      19.215   6.584  33.565  1.00  0.00     0.038 A 
HETATM   28  C23 UNK     1      18.607  11.331  34.276  1.00  0.00     0.083 A 
HETATM   29  C24 UNK     1      17.177  11.205  33.941  1.00  0.00     0.288 A 
HETATM   30  O5  UNK     1      16.435  12.182  33.952  1.00  0.00    -0.260 OA
ENDBRANCH  19  20
ENDBRANCH  18  19
ENDBRANCH   2  18
TORSDOF 11
ENDMDL
MODEL 6
REMARK VINA RESULT:      -8.5      2.117      9.858
REMARK  11 active torsions:
REMARK  status: ('A' for Active; 'I' for Inactive)
REMARK    1  A    between atoms: C1_6  and  O1_1 
REMARK    2  A    between atoms: C15_20  and  O3_3 
REMARK    3  A    between atoms: C16_21  and  O3_3 
REMARK    4  A    between atoms: C1_6  and  C4_9 
REMARK    5  A    between atoms: C2_7  and  C3_8 
REMARK    6  A    between atoms: C2_7  and  C4_9 
REMARK    7  A    between atoms: C3_8  and  C5_10 
REMARK    8  A    between atoms: C6_11  and  C7_12 
REMARK    9  A    between atoms: C6_11  and  C8_13 
REMARK   10  A    between atoms: C11_16  and  C8_13 
REMARK   11  A    between atoms: C13_18  and  C15_20 
ROOT
HETATM    1  C11 UNK     1      18.563   4.210  31.150  1.00  0.00    -0.085 C 
HETATM    2  C13 UNK     1      18.273   4.455  32.442  1.00  0.00     0.002 C 
HETATM    3  C14 UNK     1      19.575   5.059  30.425  1.00  0.00     0.043 C 
ENDROOT
BRANCH   1   4
HETATM    4  C8  UNK     1      17.958   3.079  30.344  1.00  0.00     0.037 C 
BRANCH   4   5
HETATM    5  C6  UNK     1      18.989   2.083  29.793  1.00  0.00     0.031 C 
BRANCH   5   6
HETATM    6  C7  UNK     1      19.253   0.933  30.725  1.00  0.00    -0.024 C 
HETATM    7  C5  UNK     1      19.929  -0.205  30.471  1.00  0.00    -0.087 C 
HETATM    8  C12 UNK     1      20.529  -0.437  29.109  1.00  0.00     0.043 C 
BRANCH   7   9
HETATM    9  C3  UNK     1      20.169  -1.310  31.476  1.00  0.00     0.041 C 
BRANCH   9  10
HETATM   10  C2  UNK     1      18.921  -1.620  32.304  1.00  0.00     0.086 C 
BRANCH  10  11
HETATM   11  C4  UNK     1      19.101  -1.274  33.778  1.00  0.00     0.160 C 
HETATM   12  O2  UNK     1      20.136  -1.563  34.383  1.00  0.00    -0.295 OA
BRANCH  11  13
HETATM   13  C1  UNK     1      17.942  -0.561  34.491  1.00  0.00     0.111 C 
HETATM   14  C9  UNK     1      17.971   0.940  34.226  1.00  0.00     0.053 C 
HETATM   15  C10 UNK     1      17.934  -0.864  35.986  1.00  0.00     0.053 C 
BRANCH  13  16
HETATM   16  O1  UNK     1      16.728  -1.059  33.929  1.00  0.00    -0.383 OA
HETATM   17  H19 UNK     1      16.884  -1.236  32.985  1.00  0.00     0.211 HD
ENDBRANCH  13  16
ENDBRANCH  11  13
ENDBRANCH  10  11
ENDBRANCH   9  10
ENDBRANCH   7   9
ENDBRANCH   5   6
ENDBRANCH   4   5
ENDBRANCH   1   4
BRANCH   2  18
HETATM   18  C15 UNK     1      18.851   5.523  33.315  1.00  0.00     0.203 C 
BRANCH  18  19
HETATM   19  O3  UNK     1      18.827   6.753  32.603  1.00  0.00    -0.347 OA
BRANCH  19  20
HETATM   20  C16 UNK     1      17.691   7.512  32.716  1.00  0.00     0.071 A 
HETATM   21  C19 UNK     1      17.386   8.133  33.924  1.00  0.00     0.075 A 
HETATM   22  C18 UNK     1      16.225   8.899  34.016  1.00  0.00     0.092 A 
HETATM   23  C17 UNK     1      15.366   9.059  32.932  1.00  0.00    -0.002 A 
HETATM   24  O4  UNK     1      15.944   9.517  35.251  1.00  0.00    -0.275 OA
HETATM   25  C21 UNK     1      15.680   8.431  31.724  1.00  0.00     0.017 A 
HETATM   26  C22 UNK     1      14.172   9.870  33.097  1.00  0.00     0.020 A 
HETATM   27  C20 UNK     1      16.840   7.660  31.618  1.00  0.00     0.038 A 
HETATM   28  C23 UNK     1      13.913  10.452  34.270  1.00  0.00     0.083 A 
HETATM   29  C24 UNK     1      14.808  10.299  35.432  1.00  0.00     0.288 A 
HETATM   30  O5  UNK     1      14.555  10.840  36.504  1.00  0.00    -0.260 OA
ENDBRANCH  19  20
ENDBRANCH  18  19
ENDBRANCH   2  18
TORSDOF 11
ENDMDL
MODEL 7
REMARK VINA RESULT:      -8.4      4.905     10.348
REMARK  11 active torsions:
REMARK  status: ('A' for Active; 'I' for Inactive)
REMARK    1  A    between atoms: C1_6  and  O1_1 
REMARK    2  A    between atoms: C15_20  and  O3_3 
REMARK    3  A    between atoms: C16_21  and  O3_3 
REMARK    4  A    between atoms: C1_6  and  C4_9 
REMARK    5  A    between atoms: C2_7  and  C3_8 
REMARK    6  A    between atoms: C2_7  and  C4_9 
REMARK    7  A    between atoms: C3_8  and  C5_10 
REMARK    8  A    between atoms: C6_11  and  C7_12 
REMARK    9  A    between atoms: C6_11  and  C8_13 
REMARK   10  A    between atoms: C11_16  and  C8_13 
REMARK   11  A    between atoms: C13_18  and  C15_20 
ROOT
HETATM    1  C11 UNK     1      17.694   0.764  36.868  1.00  0.00    -0.085 C 
HETATM    2  C13 UNK     1      18.525   1.057  35.851  1.00  0.00     0.002 C 
HETATM    3  C14 UNK     1      16.632   1.747  37.288  1.00  0.00     0.043 C 
ENDROOT
BRANCH   1   4
HETATM    4  C8  UNK     1      17.714  -0.543  37.632  1.00  0.00     0.037 C 
BRANCH   4   5
HETATM    5  C6  UNK     1      18.094  -1.761  36.777  1.00  0.00     0.031 C 
BRANCH   5   6
HETATM    6  C7  UNK     1      19.083  -2.670  37.452  1.00  0.00    -0.024 C 
HETATM    7  C5  UNK     1      20.061  -3.404  36.884  1.00  0.00    -0.087 C 
HETATM    8  C12 UNK     1      20.258  -3.370  35.391  1.00  0.00     0.043 C 
BRANCH   7   9
HETATM    9  C3  UNK     1      21.033  -4.282  37.641  1.00  0.00     0.041 C 
BRANCH   9  10
HETATM   10  C2  UNK     1      20.946  -5.747  37.210  1.00  0.00     0.086 C 
BRANCH  10  11
HETATM   11  C4  UNK     1      19.863  -6.511  37.964  1.00  0.00     0.160 C 
HETATM   12  O2  UNK     1      19.852  -6.562  39.195  1.00  0.00    -0.295 OA
BRANCH  11  13
HETATM   13  C1  UNK     1      18.786  -7.226  37.133  1.00  0.00     0.111 C 
HETATM   14  C9  UNK     1      18.767  -8.722  37.425  1.00  0.00     0.053 C 
HETATM   15  C10 UNK     1      18.955  -6.951  35.643  1.00  0.00     0.053 C 
BRANCH  13  16
HETATM   16  O1  UNK     1      17.521  -6.707  37.542  1.00  0.00    -0.383 OA
HETATM   17  H19 UNK     1      16.987  -6.551  36.744  1.00  0.00     0.211 HD
ENDBRANCH  13  16
ENDBRANCH  11  13
ENDBRANCH  10  11
ENDBRANCH   9  10
ENDBRANCH   7   9
ENDBRANCH   5   6
ENDBRANCH   4   5
ENDBRANCH   1   4
BRANCH   2  18
HETATM   18  C15 UNK     1      18.545   2.304  35.025  1.00  0.00     0.203 C 
BRANCH  18  19
HETATM   19  O3  UNK     1      17.666   2.132  33.922  1.00  0.00    -0.347 OA
BRANCH  19  20
HETATM   20  C16 UNK     1      18.225   1.707  32.745  1.00  0.00     0.071 A 
HETATM   21  C19 UNK     1      18.743   0.418  32.646  1.00  0.00     0.075 A 
HETATM   22  C18 UNK     1      19.308   0.008  31.439  1.00  0.00     0.092 A 
HETATM   23  C17 UNK     1      19.366   0.852  30.334  1.00  0.00    -0.002 A 
HETATM   24  O4  UNK     1      19.823  -1.303  31.369  1.00  0.00    -0.275 OA
HETATM   25  C21 UNK     1      18.845   2.143  30.443  1.00  0.00     0.017 A 
HETATM   26  C22 UNK     1      19.969   0.360  29.107  1.00  0.00     0.020 A 
HETATM   27  C20 UNK     1      18.276   2.568  31.646  1.00  0.00     0.038 A 
HETATM   28  C23 UNK     1      20.454  -0.882  29.049  1.00  0.00     0.083 A 
HETATM   29  C24 UNK     1      20.403  -1.795  30.205  1.00  0.00     0.288 A 
HETATM   30  O5  UNK     1      20.854  -2.934  30.135  1.00  0.00    -0.260 OA
ENDBRANCH  19  20
ENDBRANCH  18  19
ENDBRANCH   2  18
TORSDOF 11
ENDMDL
MODEL 8
REMARK VINA RESULT:      -8.4     15.525     17.331
REMARK  11 active torsions:
REMARK  status: ('A' for Active; 'I' for Inactive)
REMARK    1  A    between atoms: C1_6  and  O1_1 
REMARK    2  A    between atoms: C15_20  and  O3_3 
REMARK    3  A    between atoms: C16_21  and  O3_3 
REMARK    4  A    between atoms: C1_6  and  C4_9 
REMARK    5  A    between atoms: C2_7  and  C3_8 
REMARK    6  A    between atoms: C2_7  and  C4_9 
REMARK    7  A    between atoms: C3_8  and  C5_10 
REMARK    8  A    between atoms: C6_11  and  C7_12 
REMARK    9  A    between atoms: C6_11  and  C8_13 
REMARK   10  A    between atoms: C11_16  and  C8_13 
REMARK   11  A    between atoms: C13_18  and  C15_20 
ROOT
HETATM    1  C11 UNK     1      32.784  -6.063  34.005  1.00  0.00    -0.085 C 
HETATM    2  C13 UNK     1      31.649  -5.337  34.009  1.00  0.00     0.002 C 
HETATM    3  C14 UNK     1      32.742  -7.533  33.683  1.00  0.00     0.043 C 
ENDROOT
BRANCH   1   4
HETATM    4  C8  UNK     1      34.160  -5.489  34.271  1.00  0.00     0.037 C 
BRANCH   4   5
HETATM    5  C6  UNK     1      34.664  -5.709  35.704  1.00  0.00     0.031 C 
BRANCH   5   6
HETATM    6  C7  UNK     1      33.706  -5.207  36.749  1.00  0.00    -0.024 C 
HETATM    7  C5  UNK     1      32.979  -5.927  37.626  1.00  0.00    -0.087 C 
HETATM    8  C12 UNK     1      33.076  -7.431  37.631  1.00  0.00     0.043 C 
BRANCH   7   9
HETATM    9  C3  UNK     1      32.049  -5.341  38.665  1.00  0.00     0.041 C 
BRANCH   9  10
HETATM   10  C2  UNK     1      30.901  -4.550  38.034  1.00  0.00     0.086 C 
BRANCH  10  11
HETATM   11  C4  UNK     1      29.632  -4.593  38.878  1.00  0.00     0.160 C 
HETATM   12  O2  UNK     1      29.505  -3.889  39.882  1.00  0.00    -0.295 OA
BRANCH  11  13
HETATM   13  C1  UNK     1      28.517  -5.555  38.441  1.00  0.00     0.111 C 
HETATM   14  C9  UNK     1      28.250  -6.612  39.507  1.00  0.00     0.053 C 
HETATM   15  C10 UNK     1      28.826  -6.191  37.089  1.00  0.00     0.053 C 
BRANCH  13  16
HETATM   16  O1  UNK     1      27.322  -4.786  38.309  1.00  0.00    -0.383 OA
HETATM   17  H19 UNK     1      27.387  -4.023  38.909  1.00  0.00     0.211 HD
ENDBRANCH  13  16
ENDBRANCH  11  13
ENDBRANCH  10  11
ENDBRANCH   9  10
ENDBRANCH   7   9
ENDBRANCH   5   6
ENDBRANCH   4   5
ENDBRANCH   1   4
BRANCH   2  18
HETATM   18  C15 UNK     1      30.263  -5.819  33.722  1.00  0.00     0.203 C 
BRANCH  18  19
HETATM   19  O3  UNK     1      29.916  -5.438  32.397  1.00  0.00    -0.347 OA
BRANCH  19  20
HETATM   20  C16 UNK     1      29.390  -6.414  31.591  1.00  0.00     0.071 A 
HETATM   21  C19 UNK     1      30.190  -7.035  30.636  1.00  0.00     0.075 A 
HETATM   22  C18 UNK     1      29.632  -8.024  29.827  1.00  0.00     0.092 A 
HETATM   23  C17 UNK     1      28.298  -8.405  29.951  1.00  0.00    -0.002 A 
HETATM   24  O4  UNK     1      30.467  -8.635  28.870  1.00  0.00    -0.275 OA
HETATM   25  C21 UNK     1      27.503  -7.776  30.912  1.00  0.00     0.017 A 
HETATM   26  C22 UNK     1      27.781  -9.442  29.074  1.00  0.00     0.020 A 
HETATM   27  C20 UNK     1      28.049  -6.783  31.729  1.00  0.00     0.038 A 
HETATM   28  C23 UNK     1      28.579 -10.016  28.171  1.00  0.00     0.083 A 
HETATM   29  C24 UNK     1      29.994  -9.631  28.021  1.00  0.00     0.288 A 
HETATM   30  O5  UNK     1      30.714 -10.168  27.185  1.00  0.00    -0.260 OA
ENDBRANCH  19  20
ENDBRANCH  18  19
ENDBRANCH   2  18
TORSDOF 11
ENDMDL
MODEL 9
REMARK VINA RESULT:      -8.3      1.161      2.309
REMARK  11 active torsions:
REMARK  status: ('A' for Active; 'I' for Inactive)
REMARK    1  A    between atoms: C1_6  and  O1_1 
REMARK    2  A    between atoms: C15_20  and  O3_3 
REMARK    3  A    between atoms: C16_21  and  O3_3 
REMARK    4  A    between atoms: C1_6  and  C4_9 
REMARK    5  A    between atoms: C2_7  and  C3_8 
REMARK    6  A    between atoms: C2_7  and  C4_9 
REMARK    7  A    between atoms: C3_8  and  C5_10 
REMARK    8  A    between atoms: C6_11  and  C7_12 
REMARK    9  A    between atoms: C6_11  and  C8_13 
REMARK   10  A    between atoms: C11_16  and  C8_13 
REMARK   11  A    between atoms: C13_18  and  C15_20 
ROOT
HETATM    1  C11 UNK     1      19.784   5.500  31.779  1.00  0.00    -0.085 C 
HETATM    2  C13 UNK     1      18.878   4.629  31.294  1.00  0.00     0.002 C 
HETATM    3  C14 UNK     1      20.949   5.935  30.928  1.00  0.00     0.043 C 
ENDROOT
BRANCH   1   4
HETATM    4  C8  UNK     1      19.703   6.134  33.151  1.00  0.00     0.037 C 
BRANCH   4   5
HETATM    5  C6  UNK     1      19.032   7.515  33.165  1.00  0.00     0.031 C 
BRANCH   5   6
HETATM    6  C7  UNK     1      17.579   7.459  33.545  1.00  0.00    -0.024 C 
HETATM    7  C5  UNK     1      16.503   7.578  32.741  1.00  0.00    -0.087 C 
HETATM    8  C12 UNK     1      16.688   7.795  31.262  1.00  0.00     0.043 C 
BRANCH   7   9
HETATM    9  C3  UNK     1      15.065   7.490  33.202  1.00  0.00     0.041 C 
BRANCH   9  10
HETATM   10  C2  UNK     1      14.780   8.413  34.387  1.00  0.00     0.086 C 
BRANCH  10  11
HETATM   11  C4  UNK     1      14.409   9.825  33.947  1.00  0.00     0.160 C 
HETATM   12  O2  UNK     1      13.542  10.025  33.094  1.00  0.00    -0.295 OA
BRANCH  11  13
HETATM   13  C1  UNK     1      15.162  10.997  34.597  1.00  0.00     0.111 C 
HETATM   14  C9  UNK     1      14.563  12.336  34.183  1.00  0.00     0.053 C 
HETATM   15  C10 UNK     1      16.656  10.936  34.296  1.00  0.00     0.053 C 
BRANCH  13  16
HETATM   16  O1  UNK     1      14.987  10.881  36.009  1.00  0.00    -0.383 OA
HETATM   17  H19 UNK     1      14.954   9.934  36.232  1.00  0.00     0.211 HD
ENDBRANCH  13  16
ENDBRANCH  11  13
ENDBRANCH  10  11
ENDBRANCH   9  10
ENDBRANCH   7   9
ENDBRANCH   5   6
ENDBRANCH   4   5
ENDBRANCH   1   4
BRANCH   2  18
HETATM   18  C15 UNK     1      18.866   3.990  29.942  1.00  0.00     0.203 C 
BRANCH  18  19
HETATM   19  O3  UNK     1      18.027   2.844  29.990  1.00  0.00    -0.347 OA
BRANCH  19  20
HETATM   20  C16 UNK     1      18.647   1.621  29.953  1.00  0.00     0.071 A 
HETATM   21  C19 UNK     1      19.031   0.999  31.138  1.00  0.00     0.075 A 
HETATM   22  C18 UNK     1      19.661  -0.243  31.074  1.00  0.00     0.092 A 
HETATM   23  C17 UNK     1      19.913  -0.876  29.859  1.00  0.00    -0.002 A 
HETATM   24  O4  UNK     1      20.037  -0.850  32.290  1.00  0.00    -0.275 OA
HETATM   25  C21 UNK     1      19.524  -0.243  28.676  1.00  0.00     0.017 A 
HETATM   26  C22 UNK     1      20.574  -2.169  29.866  1.00  0.00     0.020 A 
HETATM   27  C20 UNK     1      18.893   1.003  28.724  1.00  0.00     0.038 A 
HETATM   28  C23 UNK     1      20.926  -2.737  31.022  1.00  0.00     0.083 A 
HETATM   29  C24 UNK     1      20.669  -2.088  32.321  1.00  0.00     0.288 A 
HETATM   30  O5  UNK     1      21.000  -2.623  33.374  1.00  0.00    -0.260 OA
ENDBRANCH  19  20
ENDBRANCH  18  19
ENDBRANCH   2  18
TORSDOF 11
ENDMDL
MODEL 10
REMARK VINA RESULT:      -8.3      4.958      8.119
REMARK  11 active torsions:
REMARK  status: ('A' for Active; 'I' for Inactive)
REMARK    1  A    between atoms: C1_6  and  O1_1 
REMARK    2  A    between atoms: C15_20  and  O3_3 
REMARK    3  A    between atoms: C16_21  and  O3_3 
REMARK    4  A    between atoms: C1_6  and  C4_9 
REMARK    5  A    between atoms: C2_7  and  C3_8 
REMARK    6  A    between atoms: C2_7  and  C4_9 
REMARK    7  A    between atoms: C3_8  and  C5_10 
REMARK    8  A    between atoms: C6_11  and  C7_12 
REMARK    9  A    between atoms: C6_11  and  C8_13 
REMARK   10  A    between atoms: C11_16  and  C8_13 
REMARK   11  A    between atoms: C13_18  and  C15_20 
ROOT
HETATM    1  C11 UNK     1      19.571  -1.855  34.337  1.00  0.00    -0.085 C 
HETATM    2  C13 UNK     1      19.412  -2.015  35.665  1.00  0.00     0.002 C 
HETATM    3  C14 UNK     1      20.602  -2.663  33.594  1.00  0.00     0.043 C 
ENDROOT
BRANCH   1   4
HETATM    4  C8  UNK     1      18.737  -0.918  33.490  1.00  0.00     0.037 C 
BRANCH   4   5
HETATM    5  C6  UNK     1      17.799  -0.010  34.298  1.00  0.00     0.031 C 
BRANCH   5   6
HETATM    6  C7  UNK     1      17.910   1.440  33.919  1.00  0.00    -0.024 C 
HETATM    7  C5  UNK     1      18.463   2.445  34.627  1.00  0.00    -0.087 C 
HETATM    8  C12 UNK     1      19.069   2.171  35.979  1.00  0.00     0.043 C 
BRANCH   7   9
HETATM    9  C3  UNK     1      18.554   3.882  34.162  1.00  0.00     0.041 C 
BRANCH   9  10
HETATM   10  C2  UNK     1      18.052   4.059  32.728  1.00  0.00     0.086 C 
BRANCH  10  11
HETATM   11  C4  UNK     1      18.408   5.426  32.152  1.00  0.00     0.160 C 
HETATM   12  O2  UNK     1      18.134   6.466  32.754  1.00  0.00    -0.295 OA
BRANCH  11  13
HETATM   13  C1  UNK     1      19.112   5.464  30.787  1.00  0.00     0.111 C 
HETATM   14  C9  UNK     1      18.919   4.154  30.030  1.00  0.00     0.053 C 
HETATM   15  C10 UNK     1      20.589   5.813  30.930  1.00  0.00     0.053 C 
BRANCH  13  16
HETATM   16  O1  UNK     1      18.484   6.487  30.016  1.00  0.00    -0.383 OA
HETATM   17  H19 UNK     1      18.374   6.156  29.108  1.00  0.00     0.211 HD
ENDBRANCH  13  16
ENDBRANCH  11  13
ENDBRANCH  10  11
ENDBRANCH   9  10
ENDBRANCH   7   9
ENDBRANCH   5   6
ENDBRANCH   4   5
ENDBRANCH   1   4
BRANCH   2  18
HETATM   18  C15 UNK     1      20.166  -2.942  36.564  1.00  0.00     0.203 C 
BRANCH  18  19
HETATM   19  O3  UNK     1      19.460  -4.173  36.641  1.00  0.00    -0.347 OA
BRANCH  19  20
HETATM   20  C16 UNK     1      20.211  -5.308  36.804  1.00  0.00     0.071 A 
HETATM   21  C19 UNK     1      20.207  -6.295  35.821  1.00  0.00     0.075 A 
HETATM   22  C18 UNK     1      20.978  -7.440  36.011  1.00  0.00     0.092 A 
HETATM   23  C17 UNK     1      21.751  -7.622  37.154  1.00  0.00    -0.002 A 
HETATM   24  O4  UNK     1      20.954  -8.420  34.997  1.00  0.00    -0.275 OA
HETATM   25  C21 UNK     1      21.749  -6.628  38.135  1.00  0.00     0.017 A 
HETATM   26  C22 UNK     1      22.530  -8.841  37.287  1.00  0.00     0.020 A 
HETATM   27  C20 UNK     1      20.980  -5.474  37.959  1.00  0.00     0.038 A 
HETATM   28  C23 UNK     1      22.502  -9.764  36.323  1.00  0.00     0.083 A 
HETATM   29  C24 UNK     1      21.692  -9.594  35.102  1.00  0.00     0.288 A 
HETATM   30  O5  UNK     1      21.677 -10.452  34.226  1.00  0.00    -0.260 OA
ENDBRANCH  19  20
ENDBRANCH  18  19
ENDBRANCH   2  18
TORSDOF 11
ENDMDL
