MODEL 1
REMARK VINA RESULT:      -9.1      0.000      0.000
REMARK  3 active torsions:
REMARK  status: ('A' for Active; 'I' for Inactive)
REMARK       I    between atoms: C15_21  and  N1_5 
REMARK    1  A    between atoms: N1_5  and  N2_6 
REMARK    2  A    between atoms: C13_19  and  C4_10 
REMARK    3  A    between atoms: C15_21  and  C7_13 
ROOT
HETATM    1  N2  UNK     1      18.730   4.728  30.755  1.00  0.00    -0.183 NA
HETATM    2  C13 UNK     1      18.522   5.020  31.999  1.00  0.00     0.156 C 
ENDROOT
BRANCH   2   3
HETATM    3  C4  UNK     1      17.919   6.284  32.418  1.00  0.00     0.056 A 
HETATM    4  C3  UNK     1      18.691   7.413  32.982  1.00  0.00     0.198 A 
HETATM    5  C1  UNK     1      17.911   8.609  33.349  1.00  0.00     0.049 A 
HETATM    6  O2  UNK     1      19.904   7.360  33.136  1.00  0.00    -0.286 OA
HETATM    7  C2  UNK     1      16.529   8.606  33.150  1.00  0.00     0.089 A 
HETATM    8  C5  UNK     1      18.542   9.733  33.889  1.00  0.00     0.018 A 
HETATM    9  O1  UNK     1      15.856   7.531  32.622  1.00  0.00    -0.321 OA
HETATM   10  C6  UNK     1      15.772   9.727  33.491  1.00  0.00     0.038 A 
HETATM   11  C8  UNK     1      16.595   6.422  32.284  1.00  0.00     0.159 A 
HETATM   12  C12 UNK     1      16.400  10.850  34.031  1.00  0.00     0.003 A 
HETATM   13  C10 UNK     1      17.781  10.852  34.229  1.00  0.00     0.001 A 
ENDBRANCH   2   3
BRANCH   1  14
HETATM   14  N1  UNK     1      19.297   3.514  30.561  1.00  0.00    -0.243 N 
HETATM   15  C15 UNK     1      18.471   2.411  30.441  1.00  0.00     0.272 C 
HETATM   16  O3  UNK     1      17.244   2.444  30.496  1.00  0.00    -0.266 OA
HETATM   17  H12 UNK     1      20.310   3.458  30.541  1.00  0.00     0.192 HD
BRANCH  15  18
HETATM   18  C7  UNK     1      19.157   1.107  30.252  1.00  0.00     0.041 A 
HETATM   19  C11 UNK     1      19.487   0.241  31.299  1.00  0.00     0.031 A 
HETATM   20  C9  UNK     1      20.113  -0.886  30.814  1.00  0.00    -0.021 A 
HETATM   21  C16 UNK     1      20.627  -2.049  31.568  1.00  0.00     0.056 C 
HETATM   22  S1  UNK     1      20.275  -0.849  29.110  1.00  0.00    -0.106 SA
HETATM   23  C14 UNK     1      19.505   0.679  29.017  1.00  0.00     0.067 A 
ENDBRANCH  15  18
ENDBRANCH   1  14
TORSDOF 3
ENDMDL
MODEL 2
REMARK VINA RESULT:      -8.8      3.052      9.007
REMARK  3 active torsions:
REMARK  status: ('A' for Active; 'I' for Inactive)
REMARK       I    between atoms: C15_21  and  N1_5 
REMARK    1  A    between atoms: N1_5  and  N2_6 
REMARK    2  A    between atoms: C13_19  and  C4_10 
REMARK    3  A    between atoms: C15_21  and  C7_13 
ROOT
HETATM    1  N2  UNK     1      18.577   4.578  31.823  1.00  0.00    -0.183 NA
HETATM    2  C13 UNK     1      17.889   3.661  31.223  1.00  0.00     0.156 C 
ENDROOT
BRANCH   2   3
HETATM    3  C4  UNK     1      18.496   2.428  30.721  1.00  0.00     0.056 A 
HETATM    4  C3  UNK     1      18.840   1.275  31.582  1.00  0.00     0.198 A 
HETATM    5  C1  UNK     1      19.445   0.117  30.899  1.00  0.00     0.049 A 
HETATM    6  O2  UNK     1      18.637   1.280  32.789  1.00  0.00    -0.286 OA
HETATM    7  C2  UNK     1      19.652   0.175  29.519  1.00  0.00     0.089 A 
HETATM    8  C5  UNK     1      19.807  -1.025  31.618  1.00  0.00     0.018 A 
HETATM    9  O1  UNK     1      19.315   1.270  28.762  1.00  0.00    -0.321 OA
HETATM   10  C6  UNK     1      20.224  -0.909  28.852  1.00  0.00     0.038 A 
HETATM   11  C8  UNK     1      18.751   2.343  29.411  1.00  0.00     0.159 A 
HETATM   12  C12 UNK     1      20.587  -2.050  29.569  1.00  0.00     0.003 A 
HETATM   13  C10 UNK     1      20.379  -2.107  30.948  1.00  0.00     0.001 A 
ENDBRANCH   2   3
BRANCH   1  14
HETATM   14  N1  UNK     1      17.844   5.647  32.217  1.00  0.00    -0.243 N 
HETATM   15  C15 UNK     1      18.505   6.817  32.543  1.00  0.00     0.272 C 
HETATM   16  O3  UNK     1      19.724   6.968  32.504  1.00  0.00    -0.266 OA
HETATM   17  H12 UNK     1      16.837   5.535  32.285  1.00  0.00     0.192 HD
BRANCH  15  18
HETATM   18  C7  UNK     1      17.644   7.943  32.988  1.00  0.00     0.041 A 
HETATM   19  C11 UNK     1      16.280   8.042  32.701  1.00  0.00     0.031 A 
HETATM   20  C9  UNK     1      15.755   9.194  33.246  1.00  0.00    -0.021 A 
HETATM   21  C16 UNK     1      14.362   9.689  33.185  1.00  0.00     0.056 C 
HETATM   22  S1  UNK     1      16.937  10.107  34.083  1.00  0.00    -0.106 SA
HETATM   23  C14 UNK     1      18.157   8.961  33.717  1.00  0.00     0.067 A 
ENDBRANCH  15  18
ENDBRANCH   1  14
TORSDOF 3
ENDMDL
MODEL 3
REMARK VINA RESULT:      -8.6      3.116      8.936
REMARK  3 active torsions:
REMARK  status: ('A' for Active; 'I' for Inactive)
REMARK       I    between atoms: C15_21  and  N1_5 
REMARK    1  A    between atoms: N1_5  and  N2_6 
REMARK    2  A    between atoms: C13_19  and  C4_10 
REMARK    3  A    between atoms: C15_21  and  C7_13 
ROOT
HETATM    1  N2  UNK     1      18.567   5.053  32.075  1.00  0.00    -0.183 NA
HETATM    2  C13 UNK     1      17.829   3.990  32.074  1.00  0.00     0.156 C 
ENDROOT
BRANCH   2   3
HETATM    3  C4  UNK     1      18.363   2.664  31.764  1.00  0.00     0.056 A 
HETATM    4  C3  UNK     1      18.807   2.254  30.414  1.00  0.00     0.198 A 
HETATM    5  C1  UNK     1      19.317   0.876  30.292  1.00  0.00     0.049 A 
HETATM    6  O2  UNK     1      18.755   3.012  29.454  1.00  0.00    -0.286 OA
HETATM    7  C2  UNK     1      19.349   0.062  31.426  1.00  0.00     0.089 A 
HETATM    8  C5  UNK     1      19.764   0.388  29.062  1.00  0.00     0.018 A 
HETATM    9  O1  UNK     1      18.924   0.488  32.660  1.00  0.00    -0.321 OA
HETATM   10  C6  UNK     1      19.827  -1.246  31.333  1.00  0.00     0.038 A 
HETATM   11  C8  UNK     1      18.451   1.775  32.760  1.00  0.00     0.159 A 
HETATM   12  C12 UNK     1      20.273  -1.735  30.105  1.00  0.00     0.003 A 
HETATM   13  C10 UNK     1      20.241  -0.920  28.972  1.00  0.00     0.001 A 
ENDBRANCH   2   3
BRANCH   1  14
HETATM   14  N1  UNK     1      17.897   6.188  32.385  1.00  0.00    -0.243 N 
HETATM   15  C15 UNK     1      18.305   6.914  33.489  1.00  0.00     0.272 C 
HETATM   16  O3  UNK     1      19.241   6.608  34.223  1.00  0.00    -0.266 OA
HETATM   17  H12 UNK     1      17.101   6.445  31.810  1.00  0.00     0.192 HD
BRANCH  15  18
HETATM   18  C7  UNK     1      17.514   8.137  33.787  1.00  0.00     0.041 A 
HETATM   19  C11 UNK     1      16.156   8.125  34.117  1.00  0.00     0.031 A 
HETATM   20  C9  UNK     1      15.703   9.407  34.339  1.00  0.00    -0.021 A 
HETATM   21  C16 UNK     1      14.341   9.850  34.709  1.00  0.00     0.056 C 
HETATM   22  S1  UNK     1      16.942  10.571  34.138  1.00  0.00    -0.106 SA
HETATM   23  C14 UNK     1      18.090   9.360  33.754  1.00  0.00     0.067 A 
ENDBRANCH  15  18
ENDBRANCH   1  14
TORSDOF 3
ENDMDL
MODEL 4
REMARK VINA RESULT:      -8.4      8.094     14.033
REMARK  3 active torsions:
REMARK  status: ('A' for Active; 'I' for Inactive)
REMARK       I    between atoms: C15_21  and  N1_5 
REMARK    1  A    between atoms: N1_5  and  N2_6 
REMARK    2  A    between atoms: C13_19  and  C4_10 
REMARK    3  A    between atoms: C15_21  and  C7_13 
ROOT
HETATM    1  N2  UNK     1      20.238  -4.150  35.933  1.00  0.00    -0.183 NA
HETATM    2  C13 UNK     1      19.419  -5.148  36.015  1.00  0.00     0.156 C 
ENDROOT
BRANCH   2   3
HETATM    3  C4  UNK     1      19.872  -6.515  36.273  1.00  0.00     0.056 A 
HETATM    4  C3  UNK     1      20.574  -7.349  35.272  1.00  0.00     0.198 A 
HETATM    5  C1  UNK     1      20.954  -8.703  35.713  1.00  0.00     0.049 A 
HETATM    6  O2  UNK     1      20.824  -6.941  34.146  1.00  0.00    -0.286 OA
HETATM    7  C2  UNK     1      20.638  -9.108  37.011  1.00  0.00     0.089 A 
HETATM    8  C5  UNK     1      21.622  -9.572  34.847  1.00  0.00     0.018 A 
HETATM    9  O1  UNK     1      19.984  -8.297  37.906  1.00  0.00    -0.321 OA
HETATM   10  C6  UNK     1      20.989 -10.387  37.449  1.00  0.00     0.038 A 
HETATM   11  C8  UNK     1      19.636  -7.036  37.482  1.00  0.00     0.159 A 
HETATM   12  C12 UNK     1      21.654 -11.256  36.585  1.00  0.00     0.003 A 
HETATM   13  C10 UNK     1      21.970 -10.850  35.287  1.00  0.00     0.001 A 
ENDBRANCH   2   3
BRANCH   1  14
HETATM   14  N1  UNK     1      19.635  -2.962  35.690  1.00  0.00    -0.243 N 
HETATM   15  C15 UNK     1      19.310  -2.154  36.763  1.00  0.00     0.272 C 
HETATM   16  O3  UNK     1      19.527  -2.430  37.941  1.00  0.00    -0.266 OA
HETATM   17  H12 UNK     1      19.419  -2.726  34.726  1.00  0.00     0.192 HD
BRANCH  15  18
HETATM   18  C7  UNK     1      18.630  -0.875  36.429  1.00  0.00     0.041 A 
HETATM   19  C11 UNK     1      18.768  -0.217  35.203  1.00  0.00     0.031 A 
HETATM   20  C9  UNK     1      18.019   0.939  35.191  1.00  0.00    -0.021 A 
HETATM   21  C16 UNK     1      17.876   1.931  34.102  1.00  0.00     0.056 C 
HETATM   22  S1  UNK     1      17.181   1.179  36.664  1.00  0.00    -0.106 SA
HETATM   23  C14 UNK     1      17.819  -0.266  37.324  1.00  0.00     0.067 A 
ENDBRANCH  15  18
ENDBRANCH   1  14
TORSDOF 3
ENDMDL
MODEL 5
REMARK VINA RESULT:      -8.3      7.902     13.956
REMARK  3 active torsions:
REMARK  status: ('A' for Active; 'I' for Inactive)
REMARK       I    between atoms: C15_21  and  N1_5 
REMARK    1  A    between atoms: N1_5  and  N2_6 
REMARK    2  A    between atoms: C13_19  and  C4_10 
REMARK    3  A    between atoms: C15_21  and  C7_13 
ROOT
HETATM    1  N2  UNK     1      20.069  -4.219  36.088  1.00  0.00    -0.183 NA
HETATM    2  C13 UNK     1      19.395  -5.264  35.729  1.00  0.00     0.156 C 
ENDROOT
BRANCH   2   3
HETATM    3  C4  UNK     1      20.007  -6.587  35.604  1.00  0.00     0.056 A 
HETATM    4  C3  UNK     1      20.095  -7.557  36.717  1.00  0.00     0.198 A 
HETATM    5  C1  UNK     1      20.747  -8.842  36.402  1.00  0.00     0.049 A 
HETATM    6  O2  UNK     1      19.655  -7.311  37.831  1.00  0.00    -0.286 OA
HETATM    7  C2  UNK     1      21.230  -9.060  35.111  1.00  0.00     0.089 A 
HETATM    8  C5  UNK     1      20.881  -9.830  37.381  1.00  0.00     0.018 A 
HETATM    9  O1  UNK     1      21.125  -8.126  34.110  1.00  0.00    -0.321 OA
HETATM   10  C6  UNK     1      21.852 -10.269  34.792  1.00  0.00     0.038 A 
HETATM   11  C8  UNK     1      20.515  -6.932  34.415  1.00  0.00     0.159 A 
HETATM   12  C12 UNK     1      21.987 -11.256  35.768  1.00  0.00     0.003 A 
HETATM   13  C10 UNK     1      21.504 -11.037  37.059  1.00  0.00     0.001 A 
ENDBRANCH   2   3
BRANCH   1  14
HETATM   14  N1  UNK     1      19.332  -3.083  36.148  1.00  0.00    -0.243 N 
HETATM   15  C15 UNK     1      19.593  -2.078  35.236  1.00  0.00     0.272 C 
HETATM   16  O3  UNK     1      20.454  -2.131  34.360  1.00  0.00    -0.266 OA
HETATM   17  H12 UNK     1      18.636  -3.005  36.882  1.00  0.00     0.192 HD
BRANCH  15  18
HETATM   18  C7  UNK     1      18.766  -0.851  35.370  1.00  0.00     0.041 A 
HETATM   19  C11 UNK     1      18.270  -0.375  36.587  1.00  0.00     0.031 A 
HETATM   20  C9  UNK     1      17.541   0.778  36.393  1.00  0.00    -0.021 A 
HETATM   21  C16 UNK     1      16.844   1.606  37.401  1.00  0.00     0.056 C 
HETATM   22  S1  UNK     1      17.488   1.235  34.744  1.00  0.00    -0.106 SA
HETATM   23  C14 UNK     1      18.442  -0.111  34.285  1.00  0.00     0.067 A 
ENDBRANCH  15  18
ENDBRANCH   1  14
TORSDOF 3
ENDMDL
MODEL 6
REMARK VINA RESULT:      -8.3      6.999     12.301
REMARK  3 active torsions:
REMARK  status: ('A' for Active; 'I' for Inactive)
REMARK       I    between atoms: C15_21  and  N1_5 
REMARK    1  A    between atoms: N1_5  and  N2_6 
REMARK    2  A    between atoms: C13_19  and  C4_10 
REMARK    3  A    between atoms: C15_21  and  C7_13 
ROOT
HETATM    1  N2  UNK     1      20.663  -2.948  34.857  1.00  0.00    -0.183 NA
HETATM    2  C13 UNK     1      19.803  -3.891  35.072  1.00  0.00     0.156 C 
ENDROOT
BRANCH   2   3
HETATM    3  C4  UNK     1      19.948  -4.850  36.168  1.00  0.00     0.056 A 
HETATM    4  C3  UNK     1      19.373  -6.213  36.145  1.00  0.00     0.198 A 
HETATM    5  C1  UNK     1      19.622  -7.038  37.341  1.00  0.00     0.049 A 
HETATM    6  O2  UNK     1      18.729  -6.632  35.192  1.00  0.00    -0.286 OA
HETATM    7  C2  UNK     1      20.363  -6.500  38.395  1.00  0.00     0.089 A 
HETATM    8  C5  UNK     1      19.126  -8.342  37.422  1.00  0.00     0.018 A 
HETATM    9  O1  UNK     1      20.877  -5.227  38.369  1.00  0.00    -0.321 OA
HETATM   10  C6  UNK     1      20.610  -7.264  39.536  1.00  0.00     0.038 A 
HETATM   11  C8  UNK     1      20.638  -4.468  37.248  1.00  0.00     0.159 A 
HETATM   12  C12 UNK     1      20.114  -8.565  39.620  1.00  0.00     0.003 A 
HETATM   13  C10 UNK     1      19.374  -9.102  38.565  1.00  0.00     0.001 A 
ENDBRANCH   2   3
BRANCH   1  14
HETATM   14  N1  UNK     1      20.361  -2.159  33.798  1.00  0.00    -0.243 N 
HETATM   15  C15 UNK     1      20.758  -2.566  32.537  1.00  0.00     0.272 C 
HETATM   16  O3  UNK     1      21.373  -3.602  32.295  1.00  0.00    -0.266 OA
HETATM   17  H12 UNK     1      19.880  -1.284  33.978  1.00  0.00     0.192 HD
BRANCH  15  18
HETATM   18  C7  UNK     1      20.415  -1.645  31.423  1.00  0.00     0.041 A 
HETATM   19  C11 UNK     1      19.779  -0.413  31.598  1.00  0.00     0.031 A 
HETATM   20  C9  UNK     1      19.596   0.212  30.383  1.00  0.00    -0.021 A 
HETATM   21  C16 UNK     1      18.968   1.523  30.108  1.00  0.00     0.056 C 
HETATM   22  S1  UNK     1      20.203  -0.721  29.082  1.00  0.00    -0.106 SA
HETATM   23  C14 UNK     1      20.713  -1.965  30.142  1.00  0.00     0.067 A 
ENDBRANCH  15  18
ENDBRANCH   1  14
TORSDOF 3
ENDMDL
MODEL 7
REMARK VINA RESULT:      -8.2      0.973      1.934
REMARK  3 active torsions:
REMARK  status: ('A' for Active; 'I' for Inactive)
REMARK       I    between atoms: C15_21  and  N1_5 
REMARK    1  A    between atoms: N1_5  and  N2_6 
REMARK    2  A    between atoms: C13_19  and  C4_10 
REMARK    3  A    between atoms: C15_21  and  C7_13 
ROOT
HETATM    1  N2  UNK     1      17.552   3.957  32.029  1.00  0.00    -0.183 NA
HETATM    2  C13 UNK     1      18.398   4.825  32.480  1.00  0.00     0.156 C 
ENDROOT
BRANCH   2   3
HETATM    3  C4  UNK     1      18.006   6.186  32.847  1.00  0.00     0.056 A 
HETATM    4  C3  UNK     1      16.652   6.737  32.622  1.00  0.00     0.198 A 
HETATM    5  C1  UNK     1      16.442   8.130  33.057  1.00  0.00     0.049 A 
HETATM    6  O2  UNK     1      15.759   6.079  32.105  1.00  0.00    -0.286 OA
HETATM    7  C2  UNK     1      17.503   8.827  33.639  1.00  0.00     0.089 A 
HETATM    8  C5  UNK     1      15.200   8.748  32.893  1.00  0.00     0.018 A 
HETATM    9  O1  UNK     1      18.744   8.271  33.827  1.00  0.00    -0.321 OA
HETATM   10  C6  UNK     1      17.326  10.147  34.058  1.00  0.00     0.038 A 
HETATM   11  C8  UNK     1      18.927   6.971  33.417  1.00  0.00     0.159 A 
HETATM   12  C12 UNK     1      16.086  10.765  33.893  1.00  0.00     0.003 A 
HETATM   13  C10 UNK     1      15.026  10.068  33.312  1.00  0.00     0.001 A 
ENDBRANCH   2   3
BRANCH   1  14
HETATM   14  N1  UNK     1      18.099   2.751  31.743  1.00  0.00    -0.243 N 
HETATM   15  C15 UNK     1      18.622   2.546  30.480  1.00  0.00     0.272 C 
HETATM   16  O3  UNK     1      18.631   3.383  29.580  1.00  0.00    -0.266 OA
HETATM   17  H12 UNK     1      18.076   2.035  32.462  1.00  0.00     0.192 HD
BRANCH  15  18
HETATM   18  C7  UNK     1      19.187   1.196  30.225  1.00  0.00     0.041 A 
HETATM   19  C11 UNK     1      19.538   0.294  31.234  1.00  0.00     0.031 A 
HETATM   20  C9  UNK     1      20.032  -0.871  30.689  1.00  0.00    -0.021 A 
HETATM   21  C16 UNK     1      20.518  -2.080  31.389  1.00  0.00     0.056 C 
HETATM   22  S1  UNK     1      20.050  -0.824  28.978  1.00  0.00    -0.106 SA
HETATM   23  C14 UNK     1      19.396   0.759  28.961  1.00  0.00     0.067 A 
ENDBRANCH  15  18
ENDBRANCH   1  14
TORSDOF 3
ENDMDL
MODEL 8
REMARK VINA RESULT:      -8.2      7.773     10.451
REMARK  3 active torsions:
REMARK  status: ('A' for Active; 'I' for Inactive)
REMARK       I    between atoms: C15_21  and  N1_5 
REMARK    1  A    between atoms: N1_5  and  N2_6 
REMARK    2  A    between atoms: C13_19  and  C4_10 
REMARK    3  A    between atoms: C15_21  and  C7_13 
ROOT
HETATM    1  N2  UNK     1      20.031  -4.930  35.434  1.00  0.00    -0.183 NA
HETATM    2  C13 UNK     1      20.002  -4.041  36.374  1.00  0.00     0.156 C 
ENDROOT
BRANCH   2   3
HETATM    3  C4  UNK     1      19.539  -2.672  36.144  1.00  0.00     0.056 A 
HETATM    4  C3  UNK     1      18.839  -1.862  37.166  1.00  0.00     0.198 A 
HETATM    5  C1  UNK     1      18.447  -0.502  36.753  1.00  0.00     0.049 A 
HETATM    6  O2  UNK     1      18.599  -2.293  38.286  1.00  0.00    -0.286 OA
HETATM    7  C2  UNK     1      18.749  -0.072  35.460  1.00  0.00     0.089 A 
HETATM    8  C5  UNK     1      17.782   0.348  37.641  1.00  0.00     0.018 A 
HETATM    9  O1  UNK     1      19.401  -0.862  34.546  1.00  0.00    -0.321 OA
HETATM   10  C6  UNK     1      18.386   1.212  35.048  1.00  0.00     0.038 A 
HETATM   11  C8  UNK     1      19.762  -2.128  34.943  1.00  0.00     0.159 A 
HETATM   12  C12 UNK     1      17.721   2.061  35.933  1.00  0.00     0.003 A 
HETATM   13  C10 UNK     1      17.420   1.630  37.226  1.00  0.00     0.001 A 
ENDBRANCH   2   3
BRANCH   1  14
HETATM   14  N1  UNK     1      20.490  -6.140  35.836  1.00  0.00    -0.243 N 
HETATM   15  C15 UNK     1      19.879  -7.276  35.338  1.00  0.00     0.272 C 
HETATM   16  O3  UNK     1      18.938  -7.278  34.548  1.00  0.00    -0.266 OA
HETATM   17  H12 UNK     1      21.248  -6.162  36.511  1.00  0.00     0.192 HD
BRANCH  15  18
HETATM   18  C7  UNK     1      20.415  -8.570  35.835  1.00  0.00     0.041 A 
HETATM   19  C11 UNK     1      21.559  -9.188  35.322  1.00  0.00     0.031 A 
HETATM   20  C9  UNK     1      21.805 -10.371  35.984  1.00  0.00    -0.021 A 
HETATM   21  C16 UNK     1      22.903 -11.337  35.763  1.00  0.00     0.056 C 
HETATM   22  S1  UNK     1      20.640 -10.683  37.199  1.00  0.00    -0.106 SA
HETATM   23  C14 UNK     1      19.802  -9.233  36.843  1.00  0.00     0.067 A 
ENDBRANCH  15  18
ENDBRANCH   1  14
TORSDOF 3
ENDMDL
MODEL 9
REMARK VINA RESULT:      -8.0     14.922     19.920
REMARK  3 active torsions:
REMARK  status: ('A' for Active; 'I' for Inactive)
REMARK       I    between atoms: C15_21  and  N1_5 
REMARK    1  A    between atoms: N1_5  and  N2_6 
REMARK    2  A    between atoms: C13_19  and  C4_10 
REMARK    3  A    between atoms: C15_21  and  C7_13 
ROOT
HETATM    1  N2  UNK     1      19.072  -1.809  15.438  1.00  0.00    -0.183 NA
HETATM    2  C13 UNK     1      19.696  -2.919  15.670  1.00  0.00     0.156 C 
ENDROOT
BRANCH   2   3
HETATM    3  C4  UNK     1      19.493  -4.118  14.856  1.00  0.00     0.056 A 
HETATM    4  C3  UNK     1      20.543  -5.133  14.617  1.00  0.00     0.198 A 
HETATM    5  C1  UNK     1      20.154  -6.276  13.770  1.00  0.00     0.049 A 
HETATM    6  O2  UNK     1      21.666  -5.032  15.092  1.00  0.00    -0.286 OA
HETATM    7  C2  UNK     1      18.857  -6.330  13.257  1.00  0.00     0.089 A 
HETATM    8  C5  UNK     1      21.068  -7.292  13.482  1.00  0.00     0.018 A 
HETATM    9  O1  UNK     1      17.916  -5.361  13.508  1.00  0.00    -0.321 OA
HETATM   10  C6  UNK     1      18.468  -7.402  12.452  1.00  0.00     0.038 A 
HETATM   11  C8  UNK     1      18.291  -4.301  14.299  1.00  0.00     0.159 A 
HETATM   12  C12 UNK     1      19.380  -8.417  12.163  1.00  0.00     0.003 A 
HETATM   13  C10 UNK     1      20.677  -8.362  12.676  1.00  0.00     0.001 A 
ENDBRANCH   2   3
BRANCH   1  14
HETATM   14  N1  UNK     1      19.390  -0.810  16.296  1.00  0.00    -0.243 N 
HETATM   15  C15 UNK     1      18.499  -0.500  17.307  1.00  0.00     0.272 C 
HETATM   16  O3  UNK     1      17.425  -1.066  17.494  1.00  0.00    -0.266 OA
HETATM   17  H12 UNK     1      20.259  -0.309  16.142  1.00  0.00     0.192 HD
BRANCH  15  18
HETATM   18  C7  UNK     1      18.897   0.620  18.199  1.00  0.00     0.041 A 
HETATM   19  C11 UNK     1      19.094   0.486  19.576  1.00  0.00     0.031 A 
HETATM   20  C9  UNK     1      19.457   1.695  20.131  1.00  0.00    -0.021 A 
HETATM   21  C16 UNK     1      19.759   2.004  21.545  1.00  0.00     0.056 C 
HETATM   22  S1  UNK     1      19.543   2.940  18.959  1.00  0.00    -0.106 SA
HETATM   23  C14 UNK     1      19.095   1.864  17.704  1.00  0.00     0.067 A 
ENDBRANCH  15  18
ENDBRANCH   1  14
TORSDOF 3
ENDMDL
MODEL 10
REMARK VINA RESULT:      -8.0      7.773     12.725
REMARK  3 active torsions:
REMARK  status: ('A' for Active; 'I' for Inactive)
REMARK       I    between atoms: C15_21  and  N1_5 
REMARK    1  A    between atoms: N1_5  and  N2_6 
REMARK    2  A    between atoms: C13_19  and  C4_10 
REMARK    3  A    between atoms: C15_21  and  C7_13 
ROOT
HETATM    1  N2  UNK     1      20.382  -3.953  35.040  1.00  0.00    -0.183 NA
HETATM    2  C13 UNK     1      19.577  -4.292  35.994  1.00  0.00     0.156 C 
ENDROOT
BRANCH   2   3
HETATM    3  C4  UNK     1      19.851  -5.414  36.892  1.00  0.00     0.056 A 
HETATM    4  C3  UNK     1      21.123  -5.583  37.627  1.00  0.00     0.198 A 
HETATM    5  C1  UNK     1      21.218  -6.777  38.487  1.00  0.00     0.049 A 
HETATM    6  O2  UNK     1      22.043  -4.781  37.530  1.00  0.00    -0.286 OA
HETATM    7  C2  UNK     1      20.134  -7.654  38.553  1.00  0.00     0.089 A 
HETATM    8  C5  UNK     1      22.376  -7.032  39.227  1.00  0.00     0.018 A 
HETATM    9  O1  UNK     1      18.971  -7.454  37.849  1.00  0.00    -0.321 OA
HETATM   10  C6  UNK     1      20.203  -8.791  39.359  1.00  0.00     0.038 A 
HETATM   11  C8  UNK     1      18.895  -6.336  37.052  1.00  0.00     0.159 A 
HETATM   12  C12 UNK     1      21.358  -9.047  40.098  1.00  0.00     0.003 A 
HETATM   13  C10 UNK     1      22.442  -8.170  40.031  1.00  0.00     0.001 A 
ENDBRANCH   2   3
BRANCH   1  14
HETATM   14  N1  UNK     1      19.961  -2.890  34.314  1.00  0.00    -0.243 N 
HETATM   15  C15 UNK     1      20.460  -2.724  33.036  1.00  0.00     0.272 C 
HETATM   16  O3  UNK     1      21.269  -3.474  32.495  1.00  0.00    -0.266 OA
HETATM   17  H12 UNK     1      19.315  -2.240  34.752  1.00  0.00     0.192 HD
BRANCH  15  18
HETATM   18  C7  UNK     1      19.974  -1.526  32.302  1.00  0.00     0.041 A 
HETATM   19  C11 UNK     1      20.344  -1.212  30.991  1.00  0.00     0.031 A 
HETATM   20  C9  UNK     1      19.734  -0.046  30.585  1.00  0.00    -0.021 A 
HETATM   21  C16 UNK     1      19.846   0.645  29.281  1.00  0.00     0.056 C 
HETATM   22  S1  UNK     1      18.739   0.621  31.808  1.00  0.00    -0.106 SA
HETATM   23  C14 UNK     1      19.122  -0.653  32.888  1.00  0.00     0.067 A 
ENDBRANCH  15  18
ENDBRANCH   1  14
TORSDOF 3
ENDMDL
