MODEL 1
REMARK VINA RESULT:      -8.1      0.000      0.000
REMARK  12 active torsions:
REMARK  status: ('A' for Active; 'I' for Inactive)
REMARK    1  A    between atoms: C10_15  and  O1_1 
REMARK    2  A    between atoms: C11_16  and  O1_1 
REMARK    3  A    between atoms: C25_30  and  O5_5 
REMARK    4  A    between atoms: C1_6  and  C2_7 
REMARK    5  A    between atoms: C1_6  and  C3_8 
REMARK    6  A    between atoms: C2_7  and  C4_9 
REMARK    7  A    between atoms: C3_8  and  C5_10 
REMARK    8  A    between atoms: C4_9  and  C6_11 
REMARK    9  A    between atoms: C5_10  and  C7_12 
REMARK   10  A    between atoms: C6_11  and  C8_13 
REMARK   11  A    between atoms: C10_15  and  C8_13 
REMARK   12  A    between atoms: C12_17  and  C16_21 
ROOT
HETATM    1  O2  UNK     1      19.138  -0.083  32.536  1.00  0.00    -0.306 OA
HETATM    2  O4  UNK     1      18.561   2.663  29.581  1.00  0.00    -0.284 OA
HETATM    3  C11 UNK     1      18.255   2.061  31.851  1.00  0.00     0.164 A 
HETATM    4  C12 UNK     1      18.475   1.109  32.776  1.00  0.00     0.124 A 
HETATM    5  C13 UNK     1      19.423   0.560  30.213  1.00  0.00     0.051 A 
HETATM    6  C14 UNK     1      18.732   1.834  30.466  1.00  0.00     0.221 A 
HETATM    7  C15 UNK     1      19.592  -0.334  31.266  1.00  0.00     0.090 A 
HETATM    8  C17 UNK     1      19.906   0.251  28.939  1.00  0.00     0.018 A 
HETATM    9  C18 UNK     1      20.245  -1.549  31.053  1.00  0.00     0.038 A 
HETATM   10  C21 UNK     1      20.558  -0.965  28.728  1.00  0.00     0.001 A 
HETATM   11  C22 UNK     1      20.729  -1.862  29.783  1.00  0.00     0.003 A 
ENDROOT
BRANCH   3  12
HETATM   12  O1  UNK     1      17.620   3.251  32.131  1.00  0.00    -0.272 OA
BRANCH  12  13
HETATM   13  C10 UNK     1      18.460   4.336  32.187  1.00  0.00     0.264 C 
HETATM   14  O3  UNK     1      19.263   4.689  31.331  1.00  0.00    -0.265 OA
BRANCH  13  15
HETATM   15  C8  UNK     1      18.267   5.023  33.522  1.00  0.00     0.111 C 
BRANCH  15  16
HETATM   16  C6  UNK     1      19.510   5.774  34.000  1.00  0.00     0.010 C 
BRANCH  16  17
HETATM   17  C4  UNK     1      19.564   7.212  33.474  1.00  0.00     0.000 C 
BRANCH  17  18
HETATM   18  C2  UNK     1      19.318   8.220  34.600  1.00  0.00     0.000 C 
BRANCH  18  19
HETATM   19  C1  UNK     1      17.961   8.927  34.503  1.00  0.00     0.000 C 
BRANCH  19  20
HETATM   20  C3  UNK     1      16.787   8.050  34.944  1.00  0.00     0.000 C 
BRANCH  20  21
HETATM   21  C5  UNK     1      15.632   8.032  33.938  1.00  0.00    -0.000 C 
BRANCH  21  22
HETATM   22  C7  UNK     1      16.002   8.618  32.574  1.00  0.00    -0.005 C 
HETATM   23  C9  UNK     1      16.376   7.525  31.584  1.00  0.00     0.005 C 
ENDBRANCH  21  22
ENDBRANCH  20  21
ENDBRANCH  19  20
ENDBRANCH  18  19
ENDBRANCH  17  18
ENDBRANCH  16  17
ENDBRANCH  15  16
ENDBRANCH  13  15
ENDBRANCH  12  13
ENDBRANCH   3  12
BRANCH   4  24
HETATM   24  C16 UNK     1      18.041   1.254  34.177  1.00  0.00     0.001 A 
HETATM   25  C19 UNK     1      18.822   1.978  35.078  1.00  0.00     0.017 A 
HETATM   26  C23 UNK     1      18.412   2.116  36.404  1.00  0.00     0.037 A 
HETATM   27  C25 UNK     1      17.219   1.529  36.829  1.00  0.00     0.068 A 
HETATM   28  C24 UNK     1      16.437   0.806  35.927  1.00  0.00     0.037 A 
HETATM   29  C20 UNK     1      16.849   0.668  34.602  1.00  0.00     0.017 A 
BRANCH  27  30
HETATM   30  O5  UNK     1      16.817   1.664  38.122  1.00  0.00    -0.356 OA
HETATM   31  C26 UNK     1      17.791   1.416  39.134  1.00  0.00     0.210 C 
ENDBRANCH  27  30
ENDBRANCH   4  24
TORSDOF 12
ENDMDL
MODEL 2
REMARK VINA RESULT:      -7.6     14.801     17.580
REMARK  12 active torsions:
REMARK  status: ('A' for Active; 'I' for Inactive)
REMARK    1  A    between atoms: C10_15  and  O1_1 
REMARK    2  A    between atoms: C11_16  and  O1_1 
REMARK    3  A    between atoms: C25_30  and  O5_5 
REMARK    4  A    between atoms: C1_6  and  C2_7 
REMARK    5  A    between atoms: C1_6  and  C3_8 
REMARK    6  A    between atoms: C2_7  and  C4_9 
REMARK    7  A    between atoms: C3_8  and  C5_10 
REMARK    8  A    between atoms: C4_9  and  C6_11 
REMARK    9  A    between atoms: C5_10  and  C7_12 
REMARK   10  A    between atoms: C6_11  and  C8_13 
REMARK   11  A    between atoms: C10_15  and  C8_13 
REMARK   12  A    between atoms: C12_17  and  C16_21 
ROOT
HETATM    1  O2  UNK     1      29.465  -6.505  35.096  1.00  0.00    -0.306 OA
HETATM    2  O4  UNK     1      32.052  -4.148  37.183  1.00  0.00    -0.284 OA
HETATM    3  C11 UNK     1      31.418  -5.081  35.100  1.00  0.00     0.164 A 
HETATM    4  C12 UNK     1      30.531  -5.876  34.475  1.00  0.00     0.124 A 
HETATM    5  C13 UNK     1      30.149  -5.543  37.216  1.00  0.00     0.051 A 
HETATM    6  C14 UNK     1      31.275  -4.860  36.559  1.00  0.00     0.221 A 
HETATM    7  C15 UNK     1      29.299  -6.331  36.446  1.00  0.00     0.090 A 
HETATM    8  C17 UNK     1      29.932  -5.402  38.589  1.00  0.00     0.018 A 
HETATM    9  C18 UNK     1      28.223  -6.987  37.045  1.00  0.00     0.038 A 
HETATM   10  C21 UNK     1      28.856  -6.060  39.186  1.00  0.00     0.001 A 
HETATM   11  C22 UNK     1      28.002  -6.850  38.415  1.00  0.00     0.003 A 
ENDROOT
BRANCH   3  12
HETATM   12  O1  UNK     1      32.450  -4.443  34.446  1.00  0.00    -0.272 OA
BRANCH  12  13
HETATM   13  C10 UNK     1      33.699  -4.783  34.905  1.00  0.00     0.264 C 
HETATM   14  O3  UNK     1      34.601  -4.017  35.219  1.00  0.00    -0.265 OA
BRANCH  13  15
HETATM   15  C8  UNK     1      33.808  -6.294  34.921  1.00  0.00     0.111 C 
BRANCH  15  16
HETATM   16  C6  UNK     1      34.669  -6.824  36.068  1.00  0.00     0.010 C 
BRANCH  16  17
HETATM   17  C4  UNK     1      33.836  -7.505  37.160  1.00  0.00     0.000 C 
BRANCH  17  18
HETATM   18  C2  UNK     1      32.673  -8.294  36.554  1.00  0.00     0.000 C 
BRANCH  18  19
HETATM   19  C1  UNK     1      31.723  -8.886  37.601  1.00  0.00     0.000 C 
BRANCH  19  20
HETATM   20  C3  UNK     1      30.661  -9.811  37.002  1.00  0.00     0.000 C 
BRANCH  20  21
HETATM   21  C5  UNK     1      30.581  -9.733  35.474  1.00  0.00    -0.000 C 
BRANCH  21  22
HETATM   22  C7  UNK     1      29.162  -9.902  34.927  1.00  0.00    -0.005 C 
HETATM   23  C9  UNK     1      29.173 -10.172  33.431  1.00  0.00     0.005 C 
ENDBRANCH  21  22
ENDBRANCH  20  21
ENDBRANCH  19  20
ENDBRANCH  18  19
ENDBRANCH  17  18
ENDBRANCH  16  17
ENDBRANCH  15  16
ENDBRANCH  13  15
ENDBRANCH  12  13
ENDBRANCH   3  12
BRANCH   4  24
HETATM   24  C16 UNK     1      30.594  -6.144  33.027  1.00  0.00     0.001 A 
HETATM   25  C19 UNK     1      29.961  -5.285  32.130  1.00  0.00     0.017 A 
HETATM   26  C23 UNK     1      30.021  -5.538  30.760  1.00  0.00     0.037 A 
HETATM   27  C25 UNK     1      30.715  -6.653  30.287  1.00  0.00     0.068 A 
HETATM   28  C24 UNK     1      31.349  -7.512  31.185  1.00  0.00     0.037 A 
HETATM   29  C20 UNK     1      31.288  -7.258  32.555  1.00  0.00     0.017 A 
BRANCH  27  30
HETATM   30  O5  UNK     1      30.775  -6.901  28.950  1.00  0.00    -0.356 OA
HETATM   31  C26 UNK     1      30.992  -8.252  28.549  1.00  0.00     0.210 C 
ENDBRANCH  27  30
ENDBRANCH   4  24
TORSDOF 12
ENDMDL
MODEL 3
REMARK VINA RESULT:      -7.6     14.937     17.455
REMARK  12 active torsions:
REMARK  status: ('A' for Active; 'I' for Inactive)
REMARK    1  A    between atoms: C10_15  and  O1_1 
REMARK    2  A    between atoms: C11_16  and  O1_1 
REMARK    3  A    between atoms: C25_30  and  O5_5 
REMARK    4  A    between atoms: C1_6  and  C2_7 
REMARK    5  A    between atoms: C1_6  and  C3_8 
REMARK    6  A    between atoms: C2_7  and  C4_9 
REMARK    7  A    between atoms: C3_8  and  C5_10 
REMARK    8  A    between atoms: C4_9  and  C6_11 
REMARK    9  A    between atoms: C5_10  and  C7_12 
REMARK   10  A    between atoms: C6_11  and  C8_13 
REMARK   11  A    between atoms: C10_15  and  C8_13 
REMARK   12  A    between atoms: C12_17  and  C16_21 
ROOT
HETATM    1  O2  UNK     1      28.355  -8.200  36.566  1.00  0.00    -0.306 OA
HETATM    2  O4  UNK     1      30.880 -10.497  38.791  1.00  0.00    -0.284 OA
HETATM    3  C11 UNK     1      30.536  -9.209  36.834  1.00  0.00     0.164 A 
HETATM    4  C12 UNK     1      29.649  -8.465  36.148  1.00  0.00     0.124 A 
HETATM    5  C13 UNK     1      28.738  -9.538  38.554  1.00  0.00     0.051 A 
HETATM    6  C14 UNK     1      30.118  -9.811  38.123  1.00  0.00     0.221 A 
HETATM    7  C15 UNK     1      27.926  -8.743  37.750  1.00  0.00     0.090 A 
HETATM    8  C17 UNK     1      28.247 -10.065  39.752  1.00  0.00     0.018 A 
HETATM    9  C18 UNK     1      26.614  -8.468  38.138  1.00  0.00     0.038 A 
HETATM   10  C21 UNK     1      26.935  -9.789  40.137  1.00  0.00     0.001 A 
HETATM   11  C22 UNK     1      26.120  -8.991  39.332  1.00  0.00     0.003 A 
ENDROOT
BRANCH   3  12
HETATM   12  O1  UNK     1      31.827  -9.426  36.406  1.00  0.00    -0.272 OA
BRANCH  12  13
HETATM   13  C10 UNK     1      32.717  -8.452  36.789  1.00  0.00     0.264 C 
HETATM   14  O3  UNK     1      32.840  -7.967  37.906  1.00  0.00    -0.265 OA
BRANCH  13  15
HETATM   15  C8  UNK     1      33.515  -8.029  35.573  1.00  0.00     0.111 C 
BRANCH  15  16
HETATM   16  C6  UNK     1      34.324  -6.752  35.799  1.00  0.00     0.010 C 
BRANCH  16  17
HETATM   17  C4  UNK     1      33.980  -5.653  34.787  1.00  0.00     0.000 C 
BRANCH  17  18
HETATM   18  C2  UNK     1      33.619  -4.345  35.495  1.00  0.00     0.000 C 
BRANCH  18  19
HETATM   19  C1  UNK     1      32.683  -4.536  36.694  1.00  0.00     0.000 C 
BRANCH  19  20
HETATM   20  C3  UNK     1      31.587  -3.472  36.785  1.00  0.00     0.000 C 
BRANCH  20  21
HETATM   21  C5  UNK     1      30.363  -3.929  37.585  1.00  0.00    -0.000 C 
BRANCH  21  22
HETATM   22  C7  UNK     1      30.577  -5.249  38.328  1.00  0.00    -0.005 C 
HETATM   23  C9  UNK     1      29.288  -5.741  38.967  1.00  0.00     0.005 C 
ENDBRANCH  21  22
ENDBRANCH  20  21
ENDBRANCH  19  20
ENDBRANCH  18  19
ENDBRANCH  17  18
ENDBRANCH  16  17
ENDBRANCH  15  16
ENDBRANCH  13  15
ENDBRANCH  12  13
ENDBRANCH   3  12
BRANCH   4  24
HETATM   24  C16 UNK     1      29.981  -7.824  34.863  1.00  0.00     0.001 A 
HETATM   25  C19 UNK     1      30.075  -8.594  33.704  1.00  0.00     0.017 A 
HETATM   26  C23 UNK     1      30.389  -7.987  32.487  1.00  0.00     0.037 A 
HETATM   27  C25 UNK     1      30.610  -6.611  32.431  1.00  0.00     0.068 A 
HETATM   28  C24 UNK     1      30.516  -5.841  33.591  1.00  0.00     0.037 A 
HETATM   29  C20 UNK     1      30.202  -6.448  34.807  1.00  0.00     0.017 A 
BRANCH  27  30
HETATM   30  O5  UNK     1      30.916  -6.018  31.245  1.00  0.00    -0.356 OA
HETATM   31  C26 UNK     1      30.278  -6.533  30.078  1.00  0.00     0.210 C 
ENDBRANCH  27  30
ENDBRANCH   4  24
TORSDOF 12
ENDMDL
MODEL 4
REMARK VINA RESULT:      -7.5     14.820     17.218
REMARK  12 active torsions:
REMARK  status: ('A' for Active; 'I' for Inactive)
REMARK    1  A    between atoms: C10_15  and  O1_1 
REMARK    2  A    between atoms: C11_16  and  O1_1 
REMARK    3  A    between atoms: C25_30  and  O5_5 
REMARK    4  A    between atoms: C1_6  and  C2_7 
REMARK    5  A    between atoms: C1_6  and  C3_8 
REMARK    6  A    between atoms: C2_7  and  C4_9 
REMARK    7  A    between atoms: C3_8  and  C5_10 
REMARK    8  A    between atoms: C4_9  and  C6_11 
REMARK    9  A    between atoms: C5_10  and  C7_12 
REMARK   10  A    between atoms: C6_11  and  C8_13 
REMARK   11  A    between atoms: C10_15  and  C8_13 
REMARK   12  A    between atoms: C12_17  and  C16_21 
ROOT
HETATM    1  O2  UNK     1      27.983  -8.662  35.288  1.00  0.00    -0.306 OA
HETATM    2  O4  UNK     1      29.847  -5.521  37.094  1.00  0.00    -0.284 OA
HETATM    3  C11 UNK     1      29.367  -6.690  35.091  1.00  0.00     0.164 A 
HETATM    4  C12 UNK     1      28.731  -7.751  34.561  1.00  0.00     0.124 A 
HETATM    5  C13 UNK     1      28.505  -7.448  37.323  1.00  0.00     0.051 A 
HETATM    6  C14 UNK     1      29.289  -6.468  36.555  1.00  0.00     0.221 A 
HETATM    7  C15 UNK     1      27.889  -8.497  36.645  1.00  0.00     0.090 A 
HETATM    8  C17 UNK     1      28.375  -7.329  38.709  1.00  0.00     0.018 A 
HETATM    9  C18 UNK     1      27.138  -9.437  37.351  1.00  0.00     0.038 A 
HETATM   10  C21 UNK     1      27.624  -8.271  39.412  1.00  0.00     0.001 A 
HETATM   11  C22 UNK     1      27.005  -9.323  38.735  1.00  0.00     0.003 A 
ENDROOT
BRANCH   3  12
HETATM   12  O1  UNK     1      30.078  -5.783  34.335  1.00  0.00    -0.272 OA
BRANCH  12  13
HETATM   13  C10 UNK     1      31.430  -6.020  34.300  1.00  0.00     0.264 C 
HETATM   14  O3  UNK     1      31.984  -7.109  34.210  1.00  0.00    -0.265 OA
BRANCH  13  15
HETATM   15  C8  UNK     1      32.151  -4.695  34.434  1.00  0.00     0.111 C 
BRANCH  15  16
HETATM   16  C6  UNK     1      32.823  -4.510  35.795  1.00  0.00     0.010 C 
BRANCH  16  17
HETATM   17  C4  UNK     1      34.315  -4.862  35.764  1.00  0.00     0.000 C 
BRANCH  17  18
HETATM   18  C2  UNK     1      34.619  -6.055  36.673  1.00  0.00     0.000 C 
BRANCH  18  19
HETATM   19  C1  UNK     1      33.448  -6.449  37.580  1.00  0.00     0.000 C 
BRANCH  19  20
HETATM   20  C3  UNK     1      32.959  -7.881  37.351  1.00  0.00     0.000 C 
BRANCH  20  21
HETATM   21  C5  UNK     1      31.951  -8.352  38.404  1.00  0.00    -0.000 C 
BRANCH  21  22
HETATM   22  C7  UNK     1      31.241  -9.655  38.030  1.00  0.00    -0.005 C 
HETATM   23  C9  UNK     1      31.324  -9.922  36.535  1.00  0.00     0.005 C 
ENDBRANCH  21  22
ENDBRANCH  20  21
ENDBRANCH  19  20
ENDBRANCH  18  19
ENDBRANCH  17  18
ENDBRANCH  16  17
ENDBRANCH  15  16
ENDBRANCH  13  15
ENDBRANCH  12  13
ENDBRANCH   3  12
BRANCH   4  24
HETATM   24  C16 UNK     1      28.751  -8.043  33.117  1.00  0.00     0.001 A 
HETATM   25  C19 UNK     1      27.941  -7.314  32.247  1.00  0.00     0.017 A 
HETATM   26  C23 UNK     1      27.959  -7.589  30.880  1.00  0.00     0.037 A 
HETATM   27  C25 UNK     1      28.789  -8.596  30.382  1.00  0.00     0.068 A 
HETATM   28  C24 UNK     1      29.600  -9.324  31.253  1.00  0.00     0.037 A 
HETATM   29  C20 UNK     1      29.580  -9.049  32.620  1.00  0.00     0.017 A 
BRANCH  27  30
HETATM   30  O5  UNK     1      28.808  -8.865  29.049  1.00  0.00    -0.356 OA
HETATM   31  C26 UNK     1      27.957  -9.911  28.585  1.00  0.00     0.210 C 
ENDBRANCH  27  30
ENDBRANCH   4  24
TORSDOF 12
ENDMDL
MODEL 5
REMARK VINA RESULT:      -7.4     13.930     16.440
REMARK  12 active torsions:
REMARK  status: ('A' for Active; 'I' for Inactive)
REMARK    1  A    between atoms: C10_15  and  O1_1 
REMARK    2  A    between atoms: C11_16  and  O1_1 
REMARK    3  A    between atoms: C25_30  and  O5_5 
REMARK    4  A    between atoms: C1_6  and  C2_7 
REMARK    5  A    between atoms: C1_6  and  C3_8 
REMARK    6  A    between atoms: C2_7  and  C4_9 
REMARK    7  A    between atoms: C3_8  and  C5_10 
REMARK    8  A    between atoms: C4_9  and  C6_11 
REMARK    9  A    between atoms: C5_10  and  C7_12 
REMARK   10  A    between atoms: C6_11  and  C8_13 
REMARK   11  A    between atoms: C10_15  and  C8_13 
REMARK   12  A    between atoms: C12_17  and  C16_21 
ROOT
HETATM    1  O2  UNK     1      28.053  -6.918  33.538  1.00  0.00    -0.306 OA
HETATM    2  O4  UNK     1      29.396 -10.688  32.774  1.00  0.00    -0.284 OA
HETATM    3  C11 UNK     1      29.107  -8.939  34.344  1.00  0.00     0.164 A 
HETATM    4  C12 UNK     1      28.647  -7.687  34.524  1.00  0.00     0.124 A 
HETATM    5  C13 UNK     1      28.376  -8.726  31.952  1.00  0.00     0.051 A 
HETATM    6  C14 UNK     1      28.995  -9.554  32.999  1.00  0.00     0.221 A 
HETATM    7  C15 UNK     1      27.934  -7.447  32.279  1.00  0.00     0.090 A 
HETATM    8  C17 UNK     1      28.229  -9.214  30.651  1.00  0.00     0.018 A 
HETATM    9  C18 UNK     1      27.342  -6.643  31.304  1.00  0.00     0.038 A 
HETATM   10  C21 UNK     1      27.637  -8.408  29.678  1.00  0.00     0.001 A 
HETATM   11  C22 UNK     1      27.193  -7.125  30.003  1.00  0.00     0.003 A 
ENDROOT
BRANCH   3  12
HETATM   12  O1  UNK     1      29.665  -9.690  35.356  1.00  0.00    -0.272 OA
BRANCH  12  13
HETATM   13  C10 UNK     1      31.030  -9.574  35.453  1.00  0.00     0.264 C 
HETATM   14  O3  UNK     1      31.809  -9.282  34.555  1.00  0.00    -0.265 OA
BRANCH  13  15
HETATM   15  C8  UNK     1      31.438  -9.914  36.871  1.00  0.00     0.111 C 
BRANCH  15  16
HETATM   16  C6  UNK     1      31.020  -8.852  37.889  1.00  0.00     0.010 C 
BRANCH  16  17
HETATM   17  C4  UNK     1      32.214  -8.056  38.429  1.00  0.00     0.000 C 
BRANCH  17  18
HETATM   18  C2  UNK     1      33.186  -7.691  37.305  1.00  0.00     0.000 C 
BRANCH  18  19
HETATM   19  C1  UNK     1      34.117  -6.525  37.656  1.00  0.00     0.000 C 
BRANCH  19  20
HETATM   20  C3  UNK     1      34.382  -5.585  36.477  1.00  0.00     0.000 C 
BRANCH  20  21
HETATM   21  C5  UNK     1      33.234  -4.606  36.212  1.00  0.00    -0.000 C 
BRANCH  21  22
HETATM   22  C7  UNK     1      32.816  -4.540  34.742  1.00  0.00    -0.005 C 
HETATM   23  C9  UNK     1      32.830  -5.918  34.098  1.00  0.00     0.005 C 
ENDBRANCH  21  22
ENDBRANCH  20  21
ENDBRANCH  19  20
ENDBRANCH  18  19
ENDBRANCH  17  18
ENDBRANCH  16  17
ENDBRANCH  15  16
ENDBRANCH  13  15
ENDBRANCH  12  13
ENDBRANCH   3  12
BRANCH   4  24
HETATM   24  C16 UNK     1      28.713  -7.002  35.828  1.00  0.00     0.001 A 
HETATM   25  C19 UNK     1      29.699  -6.045  36.064  1.00  0.00     0.017 A 
HETATM   26  C23 UNK     1      29.760  -5.396  37.297  1.00  0.00     0.037 A 
HETATM   27  C25 UNK     1      28.834  -5.705  38.295  1.00  0.00     0.068 A 
HETATM   28  C24 UNK     1      27.847  -6.662  38.057  1.00  0.00     0.037 A 
HETATM   29  C20 UNK     1      27.787  -7.311  36.824  1.00  0.00     0.017 A 
BRANCH  27  30
HETATM   30  O5  UNK     1      28.893  -5.073  39.498  1.00  0.00    -0.356 OA
HETATM   31  C26 UNK     1      29.555  -3.810  39.536  1.00  0.00     0.210 C 
ENDBRANCH  27  30
ENDBRANCH   4  24
TORSDOF 12
ENDMDL
MODEL 6
REMARK VINA RESULT:      -7.4     14.941     16.873
REMARK  12 active torsions:
REMARK  status: ('A' for Active; 'I' for Inactive)
REMARK    1  A    between atoms: C10_15  and  O1_1 
REMARK    2  A    between atoms: C11_16  and  O1_1 
REMARK    3  A    between atoms: C25_30  and  O5_5 
REMARK    4  A    between atoms: C1_6  and  C2_7 
REMARK    5  A    between atoms: C1_6  and  C3_8 
REMARK    6  A    between atoms: C2_7  and  C4_9 
REMARK    7  A    between atoms: C3_8  and  C5_10 
REMARK    8  A    between atoms: C4_9  and  C6_11 
REMARK    9  A    between atoms: C5_10  and  C7_12 
REMARK   10  A    between atoms: C6_11  and  C8_13 
REMARK   11  A    between atoms: C10_15  and  C8_13 
REMARK   12  A    between atoms: C12_17  and  C16_21 
ROOT
HETATM    1  O2  UNK     1      28.350  -8.715  32.313  1.00  0.00    -0.306 OA
HETATM    2  O4  UNK     1      31.799 -10.773  31.624  1.00  0.00    -0.284 OA
HETATM    3  C11 UNK     1      30.429  -9.606  33.164  1.00  0.00     0.164 A 
HETATM    4  C12 UNK     1      29.275  -8.931  33.320  1.00  0.00     0.124 A 
HETATM    5  C13 UNK     1      29.783  -9.906  30.758  1.00  0.00     0.051 A 
HETATM    6  C14 UNK     1      30.763 -10.151  31.827  1.00  0.00     0.221 A 
HETATM    7  C15 UNK     1      28.622  -9.198  31.059  1.00  0.00     0.090 A 
HETATM    8  C17 UNK     1      30.008 -10.375  29.461  1.00  0.00     0.018 A 
HETATM    9  C18 UNK     1      27.676  -8.954  30.063  1.00  0.00     0.038 A 
HETATM   10  C21 UNK     1      29.060 -10.128  28.467  1.00  0.00     0.001 A 
HETATM   11  C22 UNK     1      27.896  -9.420  28.767  1.00  0.00     0.003 A 
ENDROOT
BRANCH   3  12
HETATM   12  O1  UNK     1      31.315  -9.831  34.196  1.00  0.00    -0.272 OA
BRANCH  12  13
HETATM   13  C10 UNK     1      32.214  -8.813  34.397  1.00  0.00     0.264 C 
HETATM   14  O3  UNK     1      32.690  -8.074  33.544  1.00  0.00    -0.265 OA
BRANCH  13  15
HETATM   15  C8  UNK     1      32.566  -8.770  35.869  1.00  0.00     0.111 C 
BRANCH  15  16
HETATM   16  C6  UNK     1      31.638  -9.622  36.736  1.00  0.00     0.010 C 
BRANCH  16  17
HETATM   17  C4  UNK     1      31.309  -8.953  38.075  1.00  0.00     0.000 C 
BRANCH  17  18
HETATM   18  C2  UNK     1      32.228  -7.756  38.333  1.00  0.00     0.000 C 
BRANCH  18  19
HETATM   19  C1  UNK     1      31.475  -6.433  38.513  1.00  0.00     0.000 C 
BRANCH  19  20
HETATM   20  C3  UNK     1      32.337  -5.201  38.225  1.00  0.00     0.000 C 
BRANCH  20  21
HETATM   21  C5  UNK     1      31.846  -4.385  37.025  1.00  0.00    -0.000 C 
BRANCH  21  22
HETATM   22  C7  UNK     1      32.218  -5.002  35.675  1.00  0.00    -0.005 C 
HETATM   23  C9  UNK     1      33.721  -5.194  35.548  1.00  0.00     0.005 C 
ENDBRANCH  21  22
ENDBRANCH  20  21
ENDBRANCH  19  20
ENDBRANCH  18  19
ENDBRANCH  17  18
ENDBRANCH  16  17
ENDBRANCH  15  16
ENDBRANCH  13  15
ENDBRANCH  12  13
ENDBRANCH   3  12
BRANCH   4  24
HETATM   24  C16 UNK     1      28.862  -8.361  34.614  1.00  0.00     0.001 A 
HETATM   25  C19 UNK     1      29.180  -7.040  34.929  1.00  0.00     0.017 A 
HETATM   26  C23 UNK     1      28.788  -6.501  36.154  1.00  0.00     0.037 A 
HETATM   27  C25 UNK     1      28.078  -7.283  37.065  1.00  0.00     0.068 A 
HETATM   28  C24 UNK     1      27.759  -8.604  36.750  1.00  0.00     0.037 A 
HETATM   29  C20 UNK     1      28.151  -9.143  35.525  1.00  0.00     0.017 A 
BRANCH  27  30
HETATM   30  O5  UNK     1      27.695  -6.757  38.260  1.00  0.00    -0.356 OA
HETATM   31  C26 UNK     1      27.920  -7.553  39.422  1.00  0.00     0.210 C 
ENDBRANCH  27  30
ENDBRANCH   4  24
TORSDOF 12
ENDMDL
MODEL 7
REMARK VINA RESULT:      -7.4     14.216     17.345
REMARK  12 active torsions:
REMARK  status: ('A' for Active; 'I' for Inactive)
REMARK    1  A    between atoms: C10_15  and  O1_1 
REMARK    2  A    between atoms: C11_16  and  O1_1 
REMARK    3  A    between atoms: C25_30  and  O5_5 
REMARK    4  A    between atoms: C1_6  and  C2_7 
REMARK    5  A    between atoms: C1_6  and  C3_8 
REMARK    6  A    between atoms: C2_7  and  C4_9 
REMARK    7  A    between atoms: C3_8  and  C5_10 
REMARK    8  A    between atoms: C4_9  and  C6_11 
REMARK    9  A    between atoms: C5_10  and  C7_12 
REMARK   10  A    between atoms: C6_11  and  C8_13 
REMARK   11  A    between atoms: C10_15  and  C8_13 
REMARK   12  A    between atoms: C12_17  and  C16_21 
ROOT
HETATM    1  O2  UNK     1      29.829  -7.663  36.253  1.00  0.00    -0.306 OA
HETATM    2  O4  UNK     1      32.002  -4.396  35.155  1.00  0.00    -0.284 OA
HETATM    3  C11 UNK     1      31.303  -6.603  34.657  1.00  0.00     0.164 A 
HETATM    4  C12 UNK     1      30.569  -7.648  35.082  1.00  0.00     0.124 A 
HETATM    5  C13 UNK     1      30.575  -5.405  36.739  1.00  0.00     0.051 A 
HETATM    6  C14 UNK     1      31.351  -5.378  35.490  1.00  0.00     0.221 A 
HETATM    7  C15 UNK     1      29.850  -6.551  37.055  1.00  0.00     0.090 A 
HETATM    8  C17 UNK     1      30.560  -4.301  37.595  1.00  0.00     0.018 A 
HETATM    9  C18 UNK     1      29.104  -6.602  38.233  1.00  0.00     0.038 A 
HETATM   10  C21 UNK     1      29.814  -4.355  38.773  1.00  0.00     0.001 A 
HETATM   11  C22 UNK     1      29.086  -5.503  39.092  1.00  0.00     0.003 A 
ENDROOT
BRANCH   3  12
HETATM   12  O1  UNK     1      32.002  -6.608  33.470  1.00  0.00    -0.272 OA
BRANCH  12  13
HETATM   13  C10 UNK     1      31.245  -6.282  32.371  1.00  0.00     0.264 C 
HETATM   14  O3  UNK     1      30.482  -5.330  32.260  1.00  0.00    -0.265 OA
BRANCH  13  15
HETATM   15  C8  UNK     1      31.474  -7.332  31.304  1.00  0.00     0.111 C 
BRANCH  15  16
HETATM   16  C6  UNK     1      31.318  -6.790  29.883  1.00  0.00     0.010 C 
BRANCH  16  17
HETATM   17  C4  UNK     1      30.877  -7.871  28.889  1.00  0.00     0.000 C 
BRANCH  17  18
HETATM   18  C2  UNK     1      30.260  -9.069  29.615  1.00  0.00     0.000 C 
BRANCH  18  19
HETATM   19  C1  UNK     1      29.244  -9.842  28.766  1.00  0.00     0.000 C 
BRANCH  19  20
HETATM   20  C3  UNK     1      27.797  -9.407  29.006  1.00  0.00     0.000 C 
BRANCH  20  21
HETATM   21  C5  UNK     1      27.594  -8.686  30.343  1.00  0.00    -0.000 C 
BRANCH  21  22
HETATM   22  C7  UNK     1      26.822  -7.371  30.215  1.00  0.00    -0.005 C 
HETATM   23  C9  UNK     1      27.739  -6.170  30.387  1.00  0.00     0.005 C 
ENDBRANCH  21  22
ENDBRANCH  20  21
ENDBRANCH  19  20
ENDBRANCH  18  19
ENDBRANCH  17  18
ENDBRANCH  16  17
ENDBRANCH  15  16
ENDBRANCH  13  15
ENDBRANCH  12  13
ENDBRANCH   3  12
BRANCH   4  24
HETATM   24  C16 UNK     1      30.459  -8.901  34.315  1.00  0.00     0.001 A 
HETATM   25  C19 UNK     1      29.260  -9.229  33.683  1.00  0.00     0.017 A 
HETATM   26  C23 UNK     1      29.156 -10.415  32.956  1.00  0.00     0.037 A 
HETATM   27  C25 UNK     1      30.253 -11.273  32.861  1.00  0.00     0.068 A 
HETATM   28  C24 UNK     1      31.452 -10.943  33.492  1.00  0.00     0.037 A 
HETATM   29  C20 UNK     1      31.555  -9.758  34.219  1.00  0.00     0.017 A 
BRANCH  27  30
HETATM   30  O5  UNK     1      30.152 -12.430  32.152  1.00  0.00    -0.356 OA
HETATM   31  C26 UNK     1      30.907 -12.520  30.946  1.00  0.00     0.210 C 
ENDBRANCH  27  30
ENDBRANCH   4  24
TORSDOF 12
ENDMDL
MODEL 8
REMARK VINA RESULT:      -7.4     14.453     17.630
REMARK  12 active torsions:
REMARK  status: ('A' for Active; 'I' for Inactive)
REMARK    1  A    between atoms: C10_15  and  O1_1 
REMARK    2  A    between atoms: C11_16  and  O1_1 
REMARK    3  A    between atoms: C25_30  and  O5_5 
REMARK    4  A    between atoms: C1_6  and  C2_7 
REMARK    5  A    between atoms: C1_6  and  C3_8 
REMARK    6  A    between atoms: C2_7  and  C4_9 
REMARK    7  A    between atoms: C3_8  and  C5_10 
REMARK    8  A    between atoms: C4_9  and  C6_11 
REMARK    9  A    between atoms: C5_10  and  C7_12 
REMARK   10  A    between atoms: C6_11  and  C8_13 
REMARK   11  A    between atoms: C10_15  and  C8_13 
REMARK   12  A    between atoms: C12_17  and  C16_21 
ROOT
HETATM    1  O2  UNK     1      30.655  -5.719  35.261  1.00  0.00    -0.306 OA
HETATM    2  O4  UNK     1      27.610  -8.040  36.656  1.00  0.00    -0.284 OA
HETATM    3  C11 UNK     1      29.099  -7.531  34.886  1.00  0.00     0.164 A 
HETATM    4  C12 UNK     1      30.100  -6.725  34.488  1.00  0.00     0.124 A 
HETATM    5  C13 UNK     1      29.106  -6.259  37.050  1.00  0.00     0.051 A 
HETATM    6  C14 UNK     1      28.522  -7.338  36.238  1.00  0.00     0.221 A 
HETATM    7  C15 UNK     1      30.147  -5.504  36.517  1.00  0.00     0.090 A 
HETATM    8  C17 UNK     1      28.628  -5.995  38.336  1.00  0.00     0.018 A 
HETATM    9  C18 UNK     1      30.719  -4.476  37.267  1.00  0.00     0.038 A 
HETATM   10  C21 UNK     1      29.201  -4.966  39.084  1.00  0.00     0.001 A 
HETATM   11  C22 UNK     1      30.246  -4.208  38.552  1.00  0.00     0.003 A 
ENDROOT
BRANCH   3  12
HETATM   12  O1  UNK     1      28.591  -8.544  34.103  1.00  0.00    -0.272 OA
BRANCH  12  13
HETATM   13  C10 UNK     1      29.310  -9.713  34.164  1.00  0.00     0.264 C 
HETATM   14  O3  UNK     1      29.980 -10.117  35.106  1.00  0.00    -0.265 OA
BRANCH  13  15
HETATM   15  C8  UNK     1      29.176 -10.426  32.834  1.00  0.00     0.111 C 
BRANCH  15  16
HETATM   16  C6  UNK     1      30.522 -10.809  32.217  1.00  0.00     0.010 C 
BRANCH  16  17
HETATM   17  C4  UNK     1      30.377 -11.382  30.803  1.00  0.00     0.000 C 
BRANCH  17  18
HETATM   18  C2  UNK     1      31.176 -10.560  29.790  1.00  0.00     0.000 C 
BRANCH  18  19
HETATM   19  C1  UNK     1      30.303  -9.862  28.742  1.00  0.00     0.000 C 
BRANCH  19  20
HETATM   20  C3  UNK     1      28.898 -10.460  28.628  1.00  0.00     0.000 C 
BRANCH  20  21
HETATM   21  C5  UNK     1      27.783  -9.438  28.874  1.00  0.00    -0.000 C 
BRANCH  21  22
HETATM   22  C7  UNK     1      27.907  -8.710  30.214  1.00  0.00    -0.005 C 
HETATM   23  C9  UNK     1      26.946  -7.535  30.297  1.00  0.00     0.005 C 
ENDBRANCH  21  22
ENDBRANCH  20  21
ENDBRANCH  19  20
ENDBRANCH  18  19
ENDBRANCH  17  18
ENDBRANCH  16  17
ENDBRANCH  15  16
ENDBRANCH  13  15
ENDBRANCH  12  13
ENDBRANCH   3  12
BRANCH   4  24
HETATM   24  C16 UNK     1      30.736  -6.850  33.164  1.00  0.00     0.001 A 
HETATM   25  C19 UNK     1      30.114  -6.312  32.038  1.00  0.00     0.017 A 
HETATM   26  C23 UNK     1      30.716  -6.430  30.785  1.00  0.00     0.037 A 
HETATM   27  C25 UNK     1      31.941  -7.087  30.659  1.00  0.00     0.068 A 
HETATM   28  C24 UNK     1      32.563  -7.624  31.786  1.00  0.00     0.037 A 
HETATM   29  C20 UNK     1      31.960  -7.506  33.038  1.00  0.00     0.017 A 
BRANCH  27  30
HETATM   30  O5  UNK     1      32.529  -7.202  29.437  1.00  0.00    -0.356 OA
HETATM   31  C26 UNK     1      33.945  -7.047  29.381  1.00  0.00     0.210 C 
ENDBRANCH  27  30
ENDBRANCH   4  24
TORSDOF 12
ENDMDL
MODEL 9
REMARK VINA RESULT:      -7.3     14.741     17.615
REMARK  12 active torsions:
REMARK  status: ('A' for Active; 'I' for Inactive)
REMARK    1  A    between atoms: C10_15  and  O1_1 
REMARK    2  A    between atoms: C11_16  and  O1_1 
REMARK    3  A    between atoms: C25_30  and  O5_5 
REMARK    4  A    between atoms: C1_6  and  C2_7 
REMARK    5  A    between atoms: C1_6  and  C3_8 
REMARK    6  A    between atoms: C2_7  and  C4_9 
REMARK    7  A    between atoms: C3_8  and  C5_10 
REMARK    8  A    between atoms: C4_9  and  C6_11 
REMARK    9  A    between atoms: C5_10  and  C7_12 
REMARK   10  A    between atoms: C6_11  and  C8_13 
REMARK   11  A    between atoms: C10_15  and  C8_13 
REMARK   12  A    between atoms: C12_17  and  C16_21 
ROOT
HETATM    1  O2  UNK     1      29.541  -6.262  35.114  1.00  0.00    -0.306 OA
HETATM    2  O4  UNK     1      32.478  -4.119  36.956  1.00  0.00    -0.284 OA
HETATM    3  C11 UNK     1      31.662  -5.111  34.966  1.00  0.00     0.164 A 
HETATM    4  C12 UNK     1      30.660  -5.826  34.423  1.00  0.00     0.124 A 
HETATM    5  C13 UNK     1      30.412  -5.244  37.138  1.00  0.00     0.051 A 
HETATM    6  C14 UNK     1      31.596  -4.766  36.406  1.00  0.00     0.221 A 
HETATM    7  C15 UNK     1      29.443  -5.969  36.450  1.00  0.00     0.090 A 
HETATM    8  C17 UNK     1      30.259  -4.975  38.501  1.00  0.00     0.018 A 
HETATM    9  C18 UNK     1      28.310  -6.432  37.121  1.00  0.00     0.038 A 
HETATM   10  C21 UNK     1      29.126  -5.440  39.170  1.00  0.00     0.001 A 
HETATM   11  C22 UNK     1      28.153  -6.166  38.482  1.00  0.00     0.003 A 
ENDROOT
BRANCH   3  12
HETATM   12  O1  UNK     1      32.746  -4.665  34.242  1.00  0.00    -0.272 OA
BRANCH  12  13
HETATM   13  C10 UNK     1      33.954  -5.139  34.691  1.00  0.00     0.264 C 
HETATM   14  O3  UNK     1      34.968  -4.486  34.903  1.00  0.00    -0.265 OA
BRANCH  13  15
HETATM   15  C8  UNK     1      33.848  -6.642  34.849  1.00  0.00     0.111 C 
BRANCH  15  16
HETATM   16  C6  UNK     1      34.687  -7.186  36.006  1.00  0.00     0.010 C 
BRANCH  16  17
HETATM   17  C4  UNK     1      33.847  -7.474  37.255  1.00  0.00     0.000 C 
BRANCH  17  18
HETATM   18  C2  UNK     1      32.551  -8.203  36.892  1.00  0.00     0.000 C 
BRANCH  18  19
HETATM   19  C1  UNK     1      31.741  -8.656  38.111  1.00  0.00     0.000 C 
BRANCH  19  20
HETATM   20  C3  UNK     1      30.474  -9.432  37.743  1.00  0.00     0.000 C 
BRANCH  20  21
HETATM   21  C5  UNK     1      29.524  -9.637  38.928  1.00  0.00    -0.000 C 
BRANCH  21  22
HETATM   22  C7  UNK     1      28.052  -9.728  38.521  1.00  0.00    -0.005 C 
HETATM   23  C9  UNK     1      27.182 -10.183  39.683  1.00  0.00     0.005 C 
ENDBRANCH  21  22
ENDBRANCH  20  21
ENDBRANCH  19  20
ENDBRANCH  18  19
ENDBRANCH  17  18
ENDBRANCH  16  17
ENDBRANCH  15  16
ENDBRANCH  13  15
ENDBRANCH  12  13
ENDBRANCH   3  12
BRANCH   4  24
HETATM   24  C16 UNK     1      30.641  -6.206  33.000  1.00  0.00     0.001 A 
HETATM   25  C19 UNK     1      30.051  -5.362  32.060  1.00  0.00     0.017 A 
HETATM   26  C23 UNK     1      30.034  -5.722  30.712  1.00  0.00     0.037 A 
HETATM   27  C25 UNK     1      30.608  -6.927  30.304  1.00  0.00     0.068 A 
HETATM   28  C24 UNK     1      31.200  -7.770  31.245  1.00  0.00     0.037 A 
HETATM   29  C20 UNK     1      31.216  -7.411  32.592  1.00  0.00     0.017 A 
BRANCH  27  30
HETATM   30  O5  UNK     1      30.593  -7.278  28.990  1.00  0.00    -0.356 OA
HETATM   31  C26 UNK     1      29.996  -8.530  28.660  1.00  0.00     0.210 C 
ENDBRANCH  27  30
ENDBRANCH   4  24
TORSDOF 12
ENDMDL
MODEL 10
REMARK VINA RESULT:      -7.3     14.381     17.382
REMARK  12 active torsions:
REMARK  status: ('A' for Active; 'I' for Inactive)
REMARK    1  A    between atoms: C10_15  and  O1_1 
REMARK    2  A    between atoms: C11_16  and  O1_1 
REMARK    3  A    between atoms: C25_30  and  O5_5 
REMARK    4  A    between atoms: C1_6  and  C2_7 
REMARK    5  A    between atoms: C1_6  and  C3_8 
REMARK    6  A    between atoms: C2_7  and  C4_9 
REMARK    7  A    between atoms: C3_8  and  C5_10 
REMARK    8  A    between atoms: C4_9  and  C6_11 
REMARK    9  A    between atoms: C5_10  and  C7_12 
REMARK   10  A    between atoms: C6_11  and  C8_13 
REMARK   11  A    between atoms: C10_15  and  C8_13 
REMARK   12  A    between atoms: C12_17  and  C16_21 
ROOT
HETATM    1  O2  UNK     1      29.719  -7.475  36.244  1.00  0.00    -0.306 OA
HETATM    2  O4  UNK     1      32.125  -4.325  35.297  1.00  0.00    -0.284 OA
HETATM    3  C11 UNK     1      31.336  -6.488  34.742  1.00  0.00     0.164 A 
HETATM    4  C12 UNK     1      30.524  -7.493  35.117  1.00  0.00     0.124 A 
HETATM    5  C13 UNK     1      30.558  -5.264  36.790  1.00  0.00     0.051 A 
HETATM    6  C14 UNK     1      31.404  -5.272  35.587  1.00  0.00     0.221 A 
HETATM    7  C15 UNK     1      29.756  -6.370  37.056  1.00  0.00     0.090 A 
HETATM    8  C17 UNK     1      30.554  -4.165  37.654  1.00  0.00     0.018 A 
HETATM    9  C18 UNK     1      28.942  -6.387  38.190  1.00  0.00     0.038 A 
HETATM   10  C21 UNK     1      29.741  -4.185  38.788  1.00  0.00     0.001 A 
HETATM   11  C22 UNK     1      28.936  -5.293  39.055  1.00  0.00     0.003 A 
ENDROOT
BRANCH   3  12
HETATM   12  O1  UNK     1      32.100  -6.525  33.596  1.00  0.00    -0.272 OA
BRANCH  12  13
HETATM   13  C10 UNK     1      33.343  -7.084  33.768  1.00  0.00     0.264 C 
HETATM   14  O3  UNK     1      34.091  -6.933  34.726  1.00  0.00    -0.265 OA
BRANCH  13  15
HETATM   15  C8  UNK     1      33.671  -7.906  32.539  1.00  0.00     0.111 C 
BRANCH  15  16
HETATM   16  C6  UNK     1      32.953  -7.419  31.279  1.00  0.00     0.010 C 
BRANCH  16  17
HETATM   17  C4  UNK     1      32.040  -8.490  30.674  1.00  0.00     0.000 C 
BRANCH  17  18
HETATM   18  C2  UNK     1      30.805  -7.860  30.027  1.00  0.00     0.000 C 
BRANCH  18  19
HETATM   19  C1  UNK     1      30.712  -6.344  30.232  1.00  0.00     0.000 C 
BRANCH  19  20
HETATM   20  C3  UNK     1      29.520  -5.919  31.093  1.00  0.00     0.000 C 
BRANCH  20  21
HETATM   21  C5  UNK     1      28.181  -5.994  30.353  1.00  0.00    -0.000 C 
BRANCH  21  22
HETATM   22  C7  UNK     1      27.187  -6.968  30.988  1.00  0.00    -0.005 C 
HETATM   23  C9  UNK     1      27.148  -8.290  30.237  1.00  0.00     0.005 C 
ENDBRANCH  21  22
ENDBRANCH  20  21
ENDBRANCH  19  20
ENDBRANCH  18  19
ENDBRANCH  17  18
ENDBRANCH  16  17
ENDBRANCH  15  16
ENDBRANCH  13  15
ENDBRANCH  12  13
ENDBRANCH   3  12
BRANCH   4  24
HETATM   24  C16 UNK     1      30.390  -8.735  34.334  1.00  0.00     0.001 A 
HETATM   25  C19 UNK     1      29.399  -8.841  33.359  1.00  0.00     0.017 A 
HETATM   26  C23 UNK     1      29.272 -10.015  32.617  1.00  0.00     0.037 A 
HETATM   27  C25 UNK     1      30.138 -11.084  32.851  1.00  0.00     0.068 A 
HETATM   28  C24 UNK     1      31.130 -10.977  33.826  1.00  0.00     0.037 A 
HETATM   29  C20 UNK     1      31.256  -9.803  34.568  1.00  0.00     0.017 A 
BRANCH  27  30
HETATM   30  O5  UNK     1      30.016 -12.230  32.128  1.00  0.00    -0.356 OA
HETATM   31  C26 UNK     1      30.523 -12.215  30.795  1.00  0.00     0.210 C 
ENDBRANCH  27  30
ENDBRANCH   4  24
TORSDOF 12
ENDMDL
