MODEL 1
REMARK VINA RESULT:      -9.8      0.000      0.000
REMARK  1 active torsions:
REMARK  status: ('A' for Active; 'I' for Inactive)
REMARK    1  A    between atoms: C11_16  and  C6_11 
ROOT
HETATM    1  O1  UNK     1      30.231  -5.398  30.396  1.00  0.00    -0.293 OA
HETATM    2  N1  UNK     1      28.975  -8.643  33.729  1.00  0.00    -0.357 N 
HETATM    3  N2  UNK     1      29.464  -5.740  34.345  1.00  0.00    -0.375 N 
HETATM    4  C1  UNK     1      27.984  -8.247  30.138  1.00  0.00    -0.036 C 
HETATM    5  C2  UNK     1      28.476  -8.980  31.396  1.00  0.00     0.067 C 
HETATM    6  C3  UNK     1      29.112  -7.348  29.636  1.00  0.00     0.092 C 
HETATM    7  C4  UNK     1      29.060  -8.076  32.473  1.00  0.00     0.022 C 
HETATM    8  C5  UNK     1      29.611  -6.884  32.159  1.00  0.00     0.037 C 
HETATM    9  C6  UNK     1      30.258  -5.949  33.149  1.00  0.00     0.160 C 
HETATM   10  C7  UNK     1      29.674  -6.450  30.715  1.00  0.00     0.160 C 
HETATM   11  C8  UNK     1      26.715  -7.422  30.437  1.00  0.00     0.015 C 
HETATM   12  C9  UNK     1      27.636  -9.280  29.051  1.00  0.00     0.015 C 
HETATM   13  C10 UNK     1      28.990  -8.072  35.017  1.00  0.00     0.059 A 
HETATM   14  C12 UNK     1      29.153  -6.704  35.292  1.00  0.00     0.056 A 
HETATM   15  C13 UNK     1      28.766  -8.956  36.098  1.00  0.00     0.039 A 
HETATM   16  C14 UNK     1      29.039  -6.270  36.632  1.00  0.00     0.038 A 
HETATM   17  C16 UNK     1      28.675  -8.507  37.414  1.00  0.00    -0.054 A 
HETATM   18  C18 UNK     1      28.803  -7.156  37.681  1.00  0.00    -0.054 A 
HETATM   19  C21 UNK     1      28.429  -9.495  38.507  1.00  0.00     0.049 C 
HETATM   20  C22 UNK     1      28.704  -6.629  39.074  1.00  0.00     0.049 C 
HETATM   21  H12 UNK     1      28.766  -9.638  33.722  1.00  0.00     0.166 HD
HETATM   22  H13 UNK     1      29.375  -4.775  34.649  1.00  0.00     0.160 HD
ENDROOT
BRANCH   9  23
HETATM   23  C11 UNK     1      31.659  -6.352  33.495  1.00  0.00     0.042 A 
HETATM   24  C15 UNK     1      32.407  -5.534  34.484  1.00  0.00     0.195 A 
HETATM   25  O3  UNK     1      31.916  -4.549  35.019  1.00  0.00    -0.287 OA
HETATM   26  C19 UNK     1      33.782  -5.974  34.788  1.00  0.00     0.048 A 
HETATM   27  C20 UNK     1      34.290  -7.104  34.147  1.00  0.00     0.089 A 
HETATM   28  C23 UNK     1      34.568  -5.270  35.704  1.00  0.00     0.018 A 
HETATM   29  O2  UNK     1      33.564  -7.832  33.240  1.00  0.00    -0.321 OA
HETATM   30  C24 UNK     1      35.589  -7.537  34.420  1.00  0.00     0.038 A 
HETATM   31  C17 UNK     1      32.285  -7.411  32.966  1.00  0.00     0.156 A 
HETATM   32  C26 UNK     1      36.375  -6.837  35.334  1.00  0.00     0.003 A 
HETATM   33  C25 UNK     1      35.866  -5.706  35.975  1.00  0.00     0.001 A 
ENDBRANCH   9  23
TORSDOF 1
ENDMDL
MODEL 2
REMARK VINA RESULT:      -9.6      2.116      6.504
REMARK  1 active torsions:
REMARK  status: ('A' for Active; 'I' for Inactive)
REMARK    1  A    between atoms: C11_16  and  C6_11 
ROOT
HETATM    1  O1  UNK     1      33.738  -5.223  37.107  1.00  0.00    -0.293 OA
HETATM    2  N1  UNK     1      32.169  -7.943  33.452  1.00  0.00    -0.357 N 
HETATM    3  N2  UNK     1      30.630  -5.608  34.558  1.00  0.00    -0.375 N 
HETATM    4  C1  UNK     1      35.605  -6.795  34.409  1.00  0.00    -0.036 C 
HETATM    5  C2  UNK     1      34.513  -7.793  33.991  1.00  0.00     0.067 C 
HETATM    6  C3  UNK     1      35.374  -6.418  35.871  1.00  0.00     0.092 C 
HETATM    7  C4  UNK     1      33.090  -7.340  34.287  1.00  0.00     0.022 C 
HETATM    8  C5  UNK     1      32.827  -6.474  35.288  1.00  0.00     0.037 C 
HETATM    9  C6  UNK     1      31.449  -6.012  35.686  1.00  0.00     0.160 C 
HETATM   10  C7  UNK     1      33.958  -5.962  36.146  1.00  0.00     0.160 C 
HETATM   11  C8  UNK     1      35.585  -5.542  33.509  1.00  0.00     0.015 C 
HETATM   12  C9  UNK     1      36.984  -7.463  34.268  1.00  0.00     0.015 C 
HETATM   13  C10 UNK     1      30.866  -7.568  33.071  1.00  0.00     0.059 A 
HETATM   14  C12 UNK     1      30.179  -6.438  33.544  1.00  0.00     0.056 A 
HETATM   15  C13 UNK     1      30.242  -8.378  32.093  1.00  0.00     0.039 A 
HETATM   16  C14 UNK     1      28.916  -6.137  32.986  1.00  0.00     0.038 A 
HETATM   17  C16 UNK     1      28.987  -8.071  31.570  1.00  0.00    -0.054 A 
HETATM   18  C18 UNK     1      28.325  -6.940  32.012  1.00  0.00    -0.054 A 
HETATM   19  C21 UNK     1      28.389  -8.965  30.534  1.00  0.00     0.049 C 
HETATM   20  C22 UNK     1      26.984  -6.567  31.473  1.00  0.00     0.049 C 
HETATM   21  H12 UNK     1      32.533  -8.746  32.945  1.00  0.00     0.166 HD
HETATM   22  H13 UNK     1      30.125  -4.734  34.673  1.00  0.00     0.160 HD
ENDROOT
BRANCH   9  23
HETATM   23  C11 UNK     1      30.730  -7.009  36.544  1.00  0.00     0.042 A 
HETATM   24  C15 UNK     1      29.561  -6.548  37.338  1.00  0.00     0.195 A 
HETATM   25  O3  UNK     1      29.173  -5.387  37.311  1.00  0.00    -0.287 OA
HETATM   26  C19 UNK     1      28.891  -7.568  38.166  1.00  0.00     0.048 A 
HETATM   27  C20 UNK     1      29.378  -8.876  38.157  1.00  0.00     0.089 A 
HETATM   28  C23 UNK     1      27.783  -7.234  38.949  1.00  0.00     0.018 A 
HETATM   29  O2  UNK     1      30.461  -9.259  37.408  1.00  0.00    -0.321 OA
HETATM   30  C24 UNK     1      28.759  -9.856  38.933  1.00  0.00     0.038 A 
HETATM   31  C17 UNK     1      31.076  -8.298  36.642  1.00  0.00     0.156 A 
HETATM   32  C26 UNK     1      27.653  -9.526  39.716  1.00  0.00     0.003 A 
HETATM   33  C25 UNK     1      27.167  -8.217  39.723  1.00  0.00     0.001 A 
ENDBRANCH   9  23
TORSDOF 1
ENDMDL
MODEL 3
REMARK VINA RESULT:      -9.1      2.132      5.944
REMARK  1 active torsions:
REMARK  status: ('A' for Active; 'I' for Inactive)
REMARK    1  A    between atoms: C11_16  and  C6_11 
ROOT
HETATM    1  O1  UNK     1      31.781  -8.249  38.523  1.00  0.00    -0.293 OA
HETATM    2  N1  UNK     1      29.825  -5.816  34.853  1.00  0.00    -0.357 N 
HETATM    3  N2  UNK     1      30.023  -8.816  34.933  1.00  0.00    -0.375 N 
HETATM    4  C1  UNK     1      29.791  -5.204  38.549  1.00  0.00    -0.036 C 
HETATM    5  C2  UNK     1      29.966  -4.861  37.060  1.00  0.00     0.067 C 
HETATM    6  C3  UNK     1      30.975  -6.064  38.983  1.00  0.00     0.092 C 
HETATM    7  C4  UNK     1      30.213  -6.060  36.156  1.00  0.00     0.022 C 
HETATM    8  C5  UNK     1      30.781  -7.188  36.632  1.00  0.00     0.037 C 
HETATM    9  C6  UNK     1      31.110  -8.402  35.801  1.00  0.00     0.160 C 
HETATM   10  C7  UNK     1      31.201  -7.256  38.080  1.00  0.00     0.160 C 
HETATM   11  C8  UNK     1      28.458  -5.939  38.796  1.00  0.00     0.015 C 
HETATM   12  C9  UNK     1      29.780  -3.903  39.371  1.00  0.00     0.015 C 
HETATM   13  C10 UNK     1      29.481  -6.687  33.800  1.00  0.00     0.059 A 
HETATM   14  C12 UNK     1      29.514  -8.089  33.868  1.00  0.00     0.056 A 
HETATM   15  C13 UNK     1      29.017  -6.078  32.610  1.00  0.00     0.039 A 
HETATM   16  C14 UNK     1      29.037  -8.827  32.760  1.00  0.00     0.038 A 
HETATM   17  C16 UNK     1      28.568  -6.827  31.523  1.00  0.00    -0.054 A 
HETATM   18  C18 UNK     1      28.569  -8.208  31.603  1.00  0.00    -0.054 A 
HETATM   19  C21 UNK     1      28.084  -6.121  30.300  1.00  0.00     0.049 C 
HETATM   20  C22 UNK     1      28.090  -9.050  30.468  1.00  0.00     0.049 C 
HETATM   21  H12 UNK     1      29.663  -4.834  34.645  1.00  0.00     0.166 HD
HETATM   22  H13 UNK     1      29.821  -9.812  34.928  1.00  0.00     0.160 HD
ENDROOT
BRANCH   9  23
HETATM   23  C11 UNK     1      32.386  -8.248  35.032  1.00  0.00     0.042 A 
HETATM   24  C15 UNK     1      32.974  -9.450  34.387  1.00  0.00     0.195 A 
HETATM   25  O3  UNK     1      32.450 -10.553  34.465  1.00  0.00    -0.287 OA
HETATM   26  C19 UNK     1      34.231  -9.243  33.643  1.00  0.00     0.048 A 
HETATM   27  C20 UNK     1      34.784  -7.963  33.588  1.00  0.00     0.089 A 
HETATM   28  C23 UNK     1      34.863 -10.312  33.001  1.00  0.00     0.018 A 
HETATM   29  O2  UNK     1      34.207  -6.879  34.198  1.00  0.00    -0.321 OA
HETATM   30  C24 UNK     1      35.972  -7.745  32.890  1.00  0.00     0.038 A 
HETATM   31  C17 UNK     1      33.037  -7.087  34.888  1.00  0.00     0.156 A 
HETATM   32  C26 UNK     1      36.605  -8.810  32.248  1.00  0.00     0.003 A 
HETATM   33  C25 UNK     1      36.051 -10.090  32.304  1.00  0.00     0.001 A 
ENDBRANCH   9  23
TORSDOF 1
ENDMDL
MODEL 4
REMARK VINA RESULT:      -9.1      2.098      6.247
REMARK  1 active torsions:
REMARK  status: ('A' for Active; 'I' for Inactive)
REMARK    1  A    between atoms: C11_16  and  C6_11 
ROOT
HETATM    1  O1  UNK     1      26.444  -7.915  36.080  1.00  0.00    -0.293 OA
HETATM    2  N1  UNK     1      31.166  -7.984  37.034  1.00  0.00    -0.357 N 
HETATM    3  N2  UNK     1      29.811  -5.755  35.537  1.00  0.00    -0.375 N 
HETATM    4  C1  UNK     1      28.207  -9.148  39.014  1.00  0.00    -0.036 C 
HETATM    5  C2  UNK     1      29.597  -9.237  38.365  1.00  0.00     0.067 C 
HETATM    6  C3  UNK     1      27.156  -9.248  37.910  1.00  0.00     0.092 C 
HETATM    7  C4  UNK     1      29.826  -8.267  37.215  1.00  0.00     0.022 C 
HETATM    8  C5  UNK     1      28.796  -7.803  36.477  1.00  0.00     0.037 C 
HETATM    9  C6  UNK     1      28.932  -6.884  35.291  1.00  0.00     0.160 C 
HETATM   10  C7  UNK     1      27.394  -8.272  36.780  1.00  0.00     0.160 C 
HETATM   11  C8  UNK     1      28.047  -7.833  39.806  1.00  0.00     0.015 C 
HETATM   12  C9  UNK     1      28.027 -10.321  39.995  1.00  0.00     0.015 C 
HETATM   13  C10 UNK     1      31.818  -6.897  36.419  1.00  0.00     0.059 A 
HETATM   14  C12 UNK     1      31.174  -5.826  35.779  1.00  0.00     0.056 A 
HETATM   15  C13 UNK     1      33.230  -6.877  36.515  1.00  0.00     0.039 A 
HETATM   16  C14 UNK     1      31.964  -4.755  35.302  1.00  0.00     0.038 A 
HETATM   17  C16 UNK     1      33.990  -5.818  36.021  1.00  0.00    -0.054 A 
HETATM   18  C18 UNK     1      33.352  -4.747  35.420  1.00  0.00    -0.054 A 
HETATM   19  C21 UNK     1      35.476  -5.857  36.163  1.00  0.00     0.049 C 
HETATM   20  C22 UNK     1      34.125  -3.588  34.885  1.00  0.00     0.049 C 
HETATM   21  H12 UNK     1      31.794  -8.622  37.516  1.00  0.00     0.166 HD
HETATM   22  H13 UNK     1      29.461  -4.852  35.231  1.00  0.00     0.160 HD
ENDROOT
BRANCH   9  23
HETATM   23  C11 UNK     1      29.323  -7.608  34.039  1.00  0.00     0.042 A 
HETATM   24  C15 UNK     1      29.336  -6.855  32.759  1.00  0.00     0.195 A 
HETATM   25  O3  UNK     1      29.039  -5.669  32.698  1.00  0.00    -0.287 OA
HETATM   26  C19 UNK     1      29.727  -7.616  31.557  1.00  0.00     0.048 A 
HETATM   27  C20 UNK     1      30.055  -8.966  31.686  1.00  0.00     0.089 A 
HETATM   28  C23 UNK     1      29.769  -6.997  30.305  1.00  0.00     0.018 A 
HETATM   29  O2  UNK     1      30.031  -9.623  32.890  1.00  0.00    -0.321 OA
HETATM   30  C24 UNK     1      30.427  -9.705  30.562  1.00  0.00     0.038 A 
HETATM   31  C17 UNK     1      29.664  -8.903  34.000  1.00  0.00     0.156 A 
HETATM   32  C26 UNK     1      30.471  -9.089  29.311  1.00  0.00     0.003 A 
HETATM   33  C25 UNK     1      30.142  -7.739  29.184  1.00  0.00     0.001 A 
ENDBRANCH   9  23
TORSDOF 1
ENDMDL
MODEL 5
REMARK VINA RESULT:      -8.9      1.963      5.814
REMARK  1 active torsions:
REMARK  status: ('A' for Active; 'I' for Inactive)
REMARK    1  A    between atoms: C11_16  and  C6_11 
ROOT
HETATM    1  O1  UNK     1      31.190 -10.358  37.615  1.00  0.00    -0.293 OA
HETATM    2  N1  UNK     1      28.469  -7.534  34.815  1.00  0.00    -0.357 N 
HETATM    3  N2  UNK     1      29.833 -10.026  33.827  1.00  0.00    -0.375 N 
HETATM    4  C1  UNK     1      28.160  -8.511  38.419  1.00  0.00    -0.036 C 
HETATM    5  C2  UNK     1      28.200  -7.563  37.209  1.00  0.00     0.067 C 
HETATM    6  C3  UNK     1      29.583  -8.988  38.700  1.00  0.00     0.092 C 
HETATM    7  C4  UNK     1      28.909  -8.124  35.984  1.00  0.00     0.022 C 
HETATM    8  C5  UNK     1      29.871  -9.063  36.103  1.00  0.00     0.037 C 
HETATM    9  C6  UNK     1      30.660  -9.636  34.954  1.00  0.00     0.160 C 
HETATM   10  C7  UNK     1      30.269  -9.550  37.475  1.00  0.00     0.160 C 
HETATM   11  C8  UNK     1      27.222  -9.707  38.156  1.00  0.00     0.015 C 
HETATM   12  C9  UNK     1      27.629  -7.748  39.645  1.00  0.00     0.015 C 
HETATM   13  C10 UNK     1      28.507  -7.969  33.476  1.00  0.00     0.059 A 
HETATM   14  C12 UNK     1      29.089  -9.168  33.032  1.00  0.00     0.056 A 
HETATM   15  C13 UNK     1      27.852  -7.145  32.530  1.00  0.00     0.039 A 
HETATM   16  C14 UNK     1      28.952  -9.516  31.669  1.00  0.00     0.038 A 
HETATM   17  C16 UNK     1      27.745  -7.501  31.187  1.00  0.00    -0.054 A 
HETATM   18  C18 UNK     1      28.290  -8.698  30.757  1.00  0.00    -0.054 A 
HETATM   19  C21 UNK     1      27.034  -6.588  30.244  1.00  0.00     0.049 C 
HETATM   20  C22 UNK     1      28.192  -9.124  29.329  1.00  0.00     0.049 C 
HETATM   21  H12 UNK     1      27.935  -6.680  34.957  1.00  0.00     0.166 HD
HETATM   22  H13 UNK     1      30.039 -10.936  33.425  1.00  0.00     0.160 HD
ENDROOT
BRANCH   9  23
HETATM   23  C11 UNK     1      31.780  -8.741  34.518  1.00  0.00     0.042 A 
HETATM   24  C15 UNK     1      32.666  -9.201  33.417  1.00  0.00     0.195 A 
HETATM   25  O3  UNK     1      32.508 -10.280  32.862  1.00  0.00    -0.287 OA
HETATM   26  C19 UNK     1      33.752  -8.282  33.028  1.00  0.00     0.048 A 
HETATM   27  C20 UNK     1      33.884  -7.065  33.697  1.00  0.00     0.089 A 
HETATM   28  C23 UNK     1      34.639  -8.623  32.003  1.00  0.00     0.018 A 
HETATM   29  O2  UNK     1      33.042  -6.680  34.708  1.00  0.00    -0.321 OA
HETATM   30  C24 UNK     1      34.906  -6.182  33.344  1.00  0.00     0.038 A 
HETATM   31  C17 UNK     1      32.035  -7.545  35.061  1.00  0.00     0.156 A 
HETATM   32  C26 UNK     1      35.792  -6.519  32.322  1.00  0.00     0.003 A 
HETATM   33  C25 UNK     1      35.659  -7.737  31.654  1.00  0.00     0.001 A 
ENDBRANCH   9  23
TORSDOF 1
ENDMDL
MODEL 6
REMARK VINA RESULT:      -8.8      3.192      6.558
REMARK  1 active torsions:
REMARK  status: ('A' for Active; 'I' for Inactive)
REMARK    1  A    between atoms: C11_16  and  C6_11 
ROOT
HETATM    1  O1  UNK     1      33.802 -11.825  30.539  1.00  0.00    -0.293 OA
HETATM    2  N1  UNK     1      34.187  -8.959  34.393  1.00  0.00    -0.357 N 
HETATM    3  N2  UNK     1      31.945 -10.926  34.009  1.00  0.00    -0.375 N 
HETATM    4  C1  UNK     1      36.771 -10.714  32.324  1.00  0.00    -0.036 C 
HETATM    5  C2  UNK     1      36.109  -9.538  33.061  1.00  0.00     0.067 C 
HETATM    6  C3  UNK     1      35.966 -10.999  31.058  1.00  0.00     0.092 C 
HETATM    7  C4  UNK     1      34.617  -9.703  33.311  1.00  0.00     0.022 C 
HETATM    8  C5  UNK     1      33.855 -10.474  32.507  1.00  0.00     0.037 C 
HETATM    9  C6  UNK     1      32.365 -10.653  32.647  1.00  0.00     0.160 C 
HETATM   10  C7  UNK     1      34.487 -11.169  31.325  1.00  0.00     0.160 C 
HETATM   11  C8  UNK     1      36.840 -11.965  33.224  1.00  0.00     0.015 C 
HETATM   12  C9  UNK     1      38.209 -10.326  31.935  1.00  0.00     0.015 C 
HETATM   13  C10 UNK     1      33.061  -9.089  35.229  1.00  0.00     0.059 A 
HETATM   14  C12 UNK     1      32.051 -10.054  35.081  1.00  0.00     0.056 A 
HETATM   15  C13 UNK     1      32.993  -8.202  36.330  1.00  0.00     0.039 A 
HETATM   16  C14 UNK     1      31.039 -10.123  36.065  1.00  0.00     0.038 A 
HETATM   17  C16 UNK     1      31.974  -8.279  37.279  1.00  0.00    -0.054 A 
HETATM   18  C18 UNK     1      30.998  -9.251  37.150  1.00  0.00    -0.054 A 
HETATM   19  C21 UNK     1      31.966  -7.316  38.420  1.00  0.00     0.049 C 
HETATM   20  C22 UNK     1      29.894  -9.375  38.147  1.00  0.00     0.049 C 
HETATM   21  H12 UNK     1      34.852  -8.254  34.702  1.00  0.00     0.166 HD
HETATM   22  H13 UNK     1      31.277 -11.684  34.118  1.00  0.00     0.160 HD
ENDROOT
BRANCH   9  23
HETATM   23  C11 UNK     1      31.588  -9.515  32.060  1.00  0.00     0.042 A 
HETATM   24  C15 UNK     1      30.111  -9.640  31.966  1.00  0.00     0.195 A 
HETATM   25  O3  UNK     1      29.516 -10.637  32.351  1.00  0.00    -0.287 OA
HETATM   26  C19 UNK     1      29.395  -8.491  31.380  1.00  0.00     0.048 A 
HETATM   27  C20 UNK     1      30.125  -7.380  30.958  1.00  0.00     0.089 A 
HETATM   28  C23 UNK     1      28.004  -8.512  31.247  1.00  0.00     0.018 A 
HETATM   29  O2  UNK     1      31.491  -7.306  31.064  1.00  0.00    -0.321 OA
HETATM   30  C24 UNK     1      29.468  -6.283  30.400  1.00  0.00     0.038 A 
HETATM   31  C17 UNK     1      32.145  -8.383  31.611  1.00  0.00     0.156 A 
HETATM   32  C26 UNK     1      28.080  -6.300  30.267  1.00  0.00     0.003 A 
HETATM   33  C25 UNK     1      27.350  -7.412  30.690  1.00  0.00     0.001 A 
ENDBRANCH   9  23
TORSDOF 1
ENDMDL
MODEL 7
REMARK VINA RESULT:      -8.7      1.923      5.643
REMARK  1 active torsions:
REMARK  status: ('A' for Active; 'I' for Inactive)
REMARK    1  A    between atoms: C11_16  and  C6_11 
ROOT
HETATM    1  O1  UNK     1      30.559  -9.762  38.151  1.00  0.00    -0.293 OA
HETATM    2  N1  UNK     1      27.827  -7.531  34.868  1.00  0.00    -0.357 N 
HETATM    3  N2  UNK     1      30.169  -9.281  34.162  1.00  0.00    -0.375 N 
HETATM    4  C1  UNK     1      26.980  -9.109  38.159  1.00  0.00    -0.036 C 
HETATM    5  C2  UNK     1      26.993  -8.019  37.075  1.00  0.00     0.067 C 
HETATM    6  C3  UNK     1      28.361  -9.153  38.809  1.00  0.00     0.092 C 
HETATM    7  C4  UNK     1      28.135  -8.129  36.075  1.00  0.00     0.022 C 
HETATM    8  C5  UNK     1      29.299  -8.725  36.407  1.00  0.00     0.037 C 
HETATM    9  C6  UNK     1      30.499  -8.834  35.503  1.00  0.00     0.160 C 
HETATM   10  C7  UNK     1      29.483  -9.272  37.802  1.00  0.00     0.160 C 
HETATM   11  C8  UNK     1      26.611 -10.482  37.561  1.00  0.00     0.015 C 
HETATM   12  C9  UNK     1      25.928  -8.754  39.225  1.00  0.00     0.015 C 
HETATM   13  C10 UNK     1      28.348  -7.716  33.573  1.00  0.00     0.059 A 
HETATM   14  C12 UNK     1      29.399  -8.586  33.242  1.00  0.00     0.056 A 
HETATM   15  C13 UNK     1      27.708  -7.002  32.532  1.00  0.00     0.039 A 
HETATM   16  C14 UNK     1      29.739  -8.741  31.878  1.00  0.00     0.038 A 
HETATM   17  C16 UNK     1      28.072  -7.158  31.196  1.00  0.00    -0.054 A 
HETATM   18  C18 UNK     1      29.086  -8.040  30.867  1.00  0.00    -0.054 A 
HETATM   19  C21 UNK     1      27.351  -6.378  30.146  1.00  0.00     0.049 C 
HETATM   20  C22 UNK     1      29.503  -8.245  29.448  1.00  0.00     0.049 C 
HETATM   21  H12 UNK     1      27.014  -6.921  34.903  1.00  0.00     0.166 HD
HETATM   22  H13 UNK     1      30.770 -10.005  33.781  1.00  0.00     0.160 HD
ENDROOT
BRANCH   9  23
HETATM   23  C11 UNK     1      31.312  -7.576  35.466  1.00  0.00     0.042 A 
HETATM   24  C15 UNK     1      32.536  -7.547  34.624  1.00  0.00     0.195 A 
HETATM   25  O3  UNK     1      32.895  -8.513  33.964  1.00  0.00    -0.287 OA
HETATM   26  C19 UNK     1      33.300  -6.285  34.625  1.00  0.00     0.048 A 
HETATM   27  C20 UNK     1      32.843  -5.216  35.397  1.00  0.00     0.089 A 
HETATM   28  C23 UNK     1      34.465  -6.158  33.866  1.00  0.00     0.018 A 
HETATM   29  O2  UNK     1      31.706  -5.286  36.161  1.00  0.00    -0.321 OA
HETATM   30  C24 UNK     1      33.551  -4.014  35.413  1.00  0.00     0.038 A 
HETATM   31  C17 UNK     1      31.005  -6.467  36.151  1.00  0.00     0.156 A 
HETATM   32  C26 UNK     1      34.714  -3.884  34.656  1.00  0.00     0.003 A 
HETATM   33  C25 UNK     1      35.170  -4.954  33.884  1.00  0.00     0.001 A 
ENDBRANCH   9  23
TORSDOF 1
ENDMDL
MODEL 8
REMARK VINA RESULT:      -8.6      2.653      5.705
REMARK  1 active torsions:
REMARK  status: ('A' for Active; 'I' for Inactive)
REMARK    1  A    between atoms: C11_16  and  C6_11 
ROOT
HETATM    1  O1  UNK     1      30.042 -11.745  32.410  1.00  0.00    -0.293 OA
HETATM    2  N1  UNK     1      31.397  -7.132  32.725  1.00  0.00    -0.357 N 
HETATM    3  N2  UNK     1      32.336  -9.267  34.623  1.00  0.00    -0.375 N 
HETATM    4  C1  UNK     1      30.714  -9.332  29.771  1.00  0.00    -0.036 C 
HETATM    5  C2  UNK     1      30.619  -8.074  30.649  1.00  0.00     0.067 C 
HETATM    6  C3  UNK     1      29.896 -10.439  30.433  1.00  0.00     0.092 C 
HETATM    7  C4  UNK     1      30.963  -8.293  32.115  1.00  0.00     0.022 C 
HETATM    8  C5  UNK     1      30.806  -9.501  32.696  1.00  0.00     0.037 C 
HETATM    9  C6  UNK     1      31.070  -9.797  34.150  1.00  0.00     0.160 C 
HETATM   10  C7  UNK     1      30.257 -10.650  31.886  1.00  0.00     0.160 C 
HETATM   11  C8  UNK     1      32.181  -9.770  29.585  1.00  0.00     0.015 C 
HETATM   12  C9  UNK     1      30.126  -9.028  28.381  1.00  0.00     0.015 C 
HETATM   13  C10 UNK     1      32.178  -6.916  33.878  1.00  0.00     0.059 A 
HETATM   14  C12 UNK     1      32.668  -7.925  34.722  1.00  0.00     0.056 A 
HETATM   15  C13 UNK     1      32.529  -5.573  34.154  1.00  0.00     0.039 A 
HETATM   16  C14 UNK     1      33.528  -7.556  35.781  1.00  0.00     0.038 A 
HETATM   17  C16 UNK     1      33.365  -5.231  35.215  1.00  0.00    -0.054 A 
HETATM   18  C18 UNK     1      33.875  -6.229  36.027  1.00  0.00    -0.054 A 
HETATM   19  C21 UNK     1      33.702  -3.795  35.446  1.00  0.00     0.049 C 
HETATM   20  C22 UNK     1      34.780  -5.910  37.170  1.00  0.00     0.049 C 
HETATM   21  H12 UNK     1      31.201  -6.286  32.195  1.00  0.00     0.166 HD
HETATM   22  H13 UNK     1      32.898  -9.906  35.178  1.00  0.00     0.160 HD
ENDROOT
BRANCH   9  23
HETATM   23  C11 UNK     1      29.942  -9.374  35.041  1.00  0.00     0.042 A 
HETATM   24  C15 UNK     1      30.070  -9.605  36.503  1.00  0.00     0.195 A 
HETATM   25  O3  UNK     1      31.062 -10.126  36.996  1.00  0.00    -0.287 OA
HETATM   26  C19 UNK     1      28.931  -9.172  37.335  1.00  0.00     0.048 A 
HETATM   27  C20 UNK     1      27.826  -8.584  36.718  1.00  0.00     0.089 A 
HETATM   28  C23 UNK     1      28.955  -9.346  38.721  1.00  0.00     0.018 A 
HETATM   29  O2  UNK     1      27.750  -8.389  35.363  1.00  0.00    -0.321 OA
HETATM   30  C24 UNK     1      26.738  -8.167  37.486  1.00  0.00     0.038 A 
HETATM   31  C17 UNK     1      28.817  -8.798  34.601  1.00  0.00     0.156 A 
HETATM   32  C26 UNK     1      26.759  -8.340  38.869  1.00  0.00     0.003 A 
HETATM   33  C25 UNK     1      27.865  -8.928  39.485  1.00  0.00     0.001 A 
ENDBRANCH   9  23
TORSDOF 1
ENDMDL
MODEL 9
REMARK VINA RESULT:      -8.5      3.334      6.518
REMARK  1 active torsions:
REMARK  status: ('A' for Active; 'I' for Inactive)
REMARK    1  A    between atoms: C11_16  and  C6_11 
ROOT
HETATM    1  O1  UNK     1      32.011 -12.110  35.522  1.00  0.00    -0.293 OA
HETATM    2  N1  UNK     1      29.433 -10.177  31.940  1.00  0.00    -0.357 N 
HETATM    3  N2  UNK     1      31.150  -8.559  33.805  1.00  0.00    -0.375 N 
HETATM    4  C1  UNK     1      31.298 -13.415  32.202  1.00  0.00    -0.036 C 
HETATM    5  C2  UNK     1      30.111 -12.488  31.895  1.00  0.00     0.067 C 
HETATM    6  C3  UNK     1      31.428 -13.539  33.719  1.00  0.00     0.092 C 
HETATM    7  C4  UNK     1      30.147 -11.148  32.615  1.00  0.00     0.022 C 
HETATM    8  C5  UNK     1      30.793 -11.004  33.791  1.00  0.00     0.037 C 
HETATM    9  C6  UNK     1      30.838  -9.733  34.599  1.00  0.00     0.160 C 
HETATM   10  C7  UNK     1      31.472 -12.198  34.418  1.00  0.00     0.160 C 
HETATM   11  C8  UNK     1      32.601 -12.873  31.582  1.00  0.00     0.015 C 
HETATM   12  C9  UNK     1      31.025 -14.806  31.601  1.00  0.00     0.015 C 
HETATM   13  C10 UNK     1      29.505  -8.770  31.972  1.00  0.00     0.059 A 
HETATM   14  C12 UNK     1      30.358  -8.024  32.801  1.00  0.00     0.056 A 
HETATM   15  C13 UNK     1      28.684  -8.079  31.050  1.00  0.00     0.039 A 
HETATM   16  C14 UNK     1      30.391  -6.619  32.641  1.00  0.00     0.038 A 
HETATM   17  C16 UNK     1      28.720  -6.692  30.923  1.00  0.00    -0.054 A 
HETATM   18  C18 UNK     1      29.585  -5.959  31.716  1.00  0.00    -0.054 A 
HETATM   19  C21 UNK     1      27.832  -6.027  29.923  1.00  0.00     0.049 C 
HETATM   20  C22 UNK     1      29.664  -4.473  31.608  1.00  0.00     0.049 C 
HETATM   21  H12 UNK     1      28.814 -10.542  31.220  1.00  0.00     0.166 HD
HETATM   22  H13 UNK     1      31.847  -7.934  34.201  1.00  0.00     0.160 HD
ENDROOT
BRANCH   9  23
HETATM   23  C11 UNK     1      29.597  -9.519  35.411  1.00  0.00     0.042 A 
HETATM   24  C15 UNK     1      29.676  -8.642  36.608  1.00  0.00     0.195 A 
HETATM   25  O3  UNK     1      30.716  -8.094  36.946  1.00  0.00    -0.287 OA
HETATM   26  C19 UNK     1      28.426  -8.467  37.372  1.00  0.00     0.048 A 
HETATM   27  C20 UNK     1      27.270  -9.117  36.940  1.00  0.00     0.089 A 
HETATM   28  C23 UNK     1      28.398  -7.662  38.514  1.00  0.00     0.018 A 
HETATM   29  O2  UNK     1      27.241  -9.918  35.827  1.00  0.00    -0.321 OA
HETATM   30  C24 UNK     1      26.077  -8.965  37.649  1.00  0.00     0.038 A 
HETATM   31  C17 UNK     1      28.412 -10.073  35.125  1.00  0.00     0.156 A 
HETATM   32  C26 UNK     1      26.046  -8.162  38.789  1.00  0.00     0.003 A 
HETATM   33  C25 UNK     1      27.203  -7.513  39.220  1.00  0.00     0.001 A 
ENDBRANCH   9  23
TORSDOF 1
ENDMDL
MODEL 10
REMARK VINA RESULT:      -8.4      2.285      5.918
REMARK  1 active torsions:
REMARK  status: ('A' for Active; 'I' for Inactive)
REMARK    1  A    between atoms: C11_16  and  C6_11 
ROOT
HETATM    1  O1  UNK     1      35.835  -7.004  34.387  1.00  0.00    -0.293 OA
HETATM    2  N1  UNK     1      32.103  -9.326  32.411  1.00  0.00    -0.357 N 
HETATM    3  N2  UNK     1      32.375  -6.331  32.417  1.00  0.00    -0.375 N 
HETATM    4  C1  UNK     1      35.747 -10.174  32.604  1.00  0.00    -0.036 C 
HETATM    5  C2  UNK     1      34.233 -10.408  32.725  1.00  0.00     0.067 C 
HETATM    6  C3  UNK     1      36.184  -9.263  33.749  1.00  0.00     0.092 C 
HETATM    7  C4  UNK     1      33.400  -9.139  32.847  1.00  0.00     0.022 C 
HETATM    8  C5  UNK     1      33.924  -8.008  33.363  1.00  0.00     0.037 C 
HETATM    9  C6  UNK     1      33.163  -6.724  33.571  1.00  0.00     0.160 C 
HETATM   10  C7  UNK     1      35.353  -8.004  33.851  1.00  0.00     0.160 C 
HETATM   11  C8  UNK     1      36.105  -9.549  31.239  1.00  0.00     0.015 C 
HETATM   12  C9  UNK     1      36.481 -11.522  32.719  1.00  0.00     0.015 C 
HETATM   13  C10 UNK     1      31.128  -8.415  31.959  1.00  0.00     0.059 A 
HETATM   14  C12 UNK     1      31.288  -7.021  31.903  1.00  0.00     0.056 A 
HETATM   15  C13 UNK     1      29.922  -8.977  31.476  1.00  0.00     0.039 A 
HETATM   16  C14 UNK     1      30.256  -6.249  31.324  1.00  0.00     0.038 A 
HETATM   17  C16 UNK     1      28.910  -8.193  30.925  1.00  0.00    -0.054 A 
HETATM   18  C18 UNK     1      29.082  -6.823  30.840  1.00  0.00    -0.054 A 
HETATM   19  C21 UNK     1      27.666  -8.851  30.427  1.00  0.00     0.049 C 
HETATM   20  C22 UNK     1      28.029  -5.945  30.250  1.00  0.00     0.049 C 
HETATM   21  H12 UNK     1      31.838 -10.302  32.304  1.00  0.00     0.166 HD
HETATM   22  H13 UNK     1      32.446  -5.353  32.150  1.00  0.00     0.160 HD
ENDROOT
BRANCH   9  23
HETATM   23  C11 UNK     1      32.327  -6.741  34.814  1.00  0.00     0.042 A 
HETATM   24  C15 UNK     1      31.852  -5.446  35.366  1.00  0.00     0.195 A 
HETATM   25  O3  UNK     1      32.121  -4.375  34.838  1.00  0.00    -0.287 OA
HETATM   26  C19 UNK     1      31.034  -5.519  36.591  1.00  0.00     0.048 A 
HETATM   27  C20 UNK     1      30.759  -6.768  37.149  1.00  0.00     0.089 A 
HETATM   28  C23 UNK     1      30.539  -4.356  37.188  1.00  0.00     0.018 A 
HETATM   29  O2  UNK     1      31.218  -7.941  36.606  1.00  0.00    -0.321 OA
HETATM   30  C24 UNK     1      29.988  -6.860  38.309  1.00  0.00     0.038 A 
HETATM   31  C17 UNK     1      31.979  -7.857  35.466  1.00  0.00     0.156 A 
HETATM   32  C26 UNK     1      29.493  -5.701  38.906  1.00  0.00     0.003 A 
HETATM   33  C25 UNK     1      29.768  -4.453  38.347  1.00  0.00     0.001 A 
ENDBRANCH   9  23
TORSDOF 1
ENDMDL
