MODEL 1
REMARK VINA RESULT:      -6.1      0.000      0.000
REMARK  0 active torsions:
REMARK  status: ('A' for Active; 'I' for Inactive)
ROOT
HETATM    1 Br1  UNK     1      18.165   1.276  34.070  1.00  0.00    -0.048 Br
HETATM    2 Cl1  UNK     1      18.447   4.166  29.373  1.00  0.00    -0.084 Cl
HETATM    3  O1  UNK     1      19.430  -0.850  32.286  1.00  0.00    -0.320 OA
HETATM    4  O2  UNK     1      20.485  -0.701  28.347  1.00  0.00    -0.287 OA
HETATM    5  C1  UNK     1      19.556   0.419  30.215  1.00  0.00     0.051 A 
HETATM    6  C2  UNK     1      19.219   0.300  31.565  1.00  0.00     0.106 A 
HETATM    7  C3  UNK     1      19.319   1.612  29.530  1.00  0.00     0.042 A 
HETATM    8  C4  UNK     1      18.643   1.379  32.237  1.00  0.00     0.047 A 
HETATM    9  C5  UNK     1      20.163  -0.735  29.526  1.00  0.00     0.186 A 
HETATM   10  C6  UNK     1      18.742   2.689  30.206  1.00  0.00     0.036 A 
HETATM   11  C7  UNK     1      18.405   2.572  31.555  1.00  0.00     0.046 A 
HETATM   12  C8  UNK     1      20.368  -1.946  30.346  1.00  0.00     0.080 A 
HETATM   13  C9  UNK     1      19.997  -1.915  31.628  1.00  0.00     0.146 A 
ENDROOT
TORSDOF 0
ENDMDL
MODEL 2
REMARK VINA RESULT:      -6.0      9.503     11.363
REMARK  0 active torsions:
REMARK  status: ('A' for Active; 'I' for Inactive)
ROOT
HETATM    1 Br1  UNK     1      20.076  -9.164  39.417  1.00  0.00    -0.048 Br
HETATM    2 Cl1  UNK     1      23.072 -11.783  35.588  1.00  0.00    -0.084 Cl
HETATM    3  O1  UNK     1      19.610  -7.264  37.077  1.00  0.00    -0.320 OA
HETATM    4  O2  UNK     1      20.990  -7.418  33.239  1.00  0.00    -0.287 OA
HETATM    5  C1  UNK     1      20.929  -8.413  35.387  1.00  0.00     0.051 A 
HETATM    6  C2  UNK     1      20.422  -8.300  36.684  1.00  0.00     0.106 A 
HETATM    7  C3  UNK     1      21.751  -9.488  35.041  1.00  0.00     0.042 A 
HETATM    8  C4  UNK     1      20.736  -9.265  37.641  1.00  0.00     0.047 A 
HETATM    9  C5  UNK     1      20.584  -7.381  34.392  1.00  0.00     0.186 A 
HETATM   10  C6  UNK     1      22.062 -10.452  36.003  1.00  0.00     0.036 A 
HETATM   11  C7  UNK     1      21.556 -10.340  37.299  1.00  0.00     0.046 A 
HETATM   12  C8  UNK     1      19.710  -6.290  34.867  1.00  0.00     0.080 A 
HETATM   13  C9  UNK     1      19.300  -6.311  36.137  1.00  0.00     0.146 A 
ENDROOT
TORSDOF 0
ENDMDL
MODEL 3
REMARK VINA RESULT:      -6.0      4.061      4.993
REMARK  0 active torsions:
REMARK  status: ('A' for Active; 'I' for Inactive)
ROOT
HETATM    1 Br1  UNK     1      20.303  -3.368  37.123  1.00  0.00    -0.048 Br
HETATM    2 Cl1  UNK     1      16.336   0.451  36.694  1.00  0.00    -0.084 Cl
HETATM    3  O1  UNK     1      20.557  -2.759  34.145  1.00  0.00    -0.320 OA
HETATM    4  O2  UNK     1      18.475  -0.149  31.799  1.00  0.00    -0.287 OA
HETATM    5  C1  UNK     1      18.811  -1.077  33.951  1.00  0.00     0.051 A 
HETATM    6  C2  UNK     1      19.562  -1.989  34.697  1.00  0.00     0.106 A 
HETATM    7  C3  UNK     1      17.810  -0.320  34.563  1.00  0.00     0.042 A 
HETATM    8  C4  UNK     1      19.315  -2.146  36.061  1.00  0.00     0.047 A 
HETATM    9  C5  UNK     1      19.091  -0.929  32.511  1.00  0.00     0.186 A 
HETATM   10  C6  UNK     1      17.566  -0.479  35.929  1.00  0.00     0.036 A 
HETATM   11  C7  UNK     1      18.315  -1.390  36.674  1.00  0.00     0.046 A 
HETATM   12  C8  UNK     1      20.169  -1.780  31.969  1.00  0.00     0.080 A 
HETATM   13  C9  UNK     1      20.804  -2.608  32.802  1.00  0.00     0.146 A 
ENDROOT
TORSDOF 0
ENDMDL
MODEL 4
REMARK VINA RESULT:      -5.9      6.682      8.344
REMARK  0 active torsions:
REMARK  status: ('A' for Active; 'I' for Inactive)
ROOT
HETATM    1 Br1  UNK     1      19.725   8.778  34.498  1.00  0.00    -0.048 Br
HETATM    2 Cl1  UNK     1      19.078   4.844  30.676  1.00  0.00    -0.084 Cl
HETATM    3  O1  UNK     1      16.684   8.839  34.273  1.00  0.00    -0.320 OA
HETATM    4  O2  UNK     1      14.168   6.636  31.934  1.00  0.00    -0.287 OA
HETATM    5  C1  UNK     1      16.394   7.107  32.589  1.00  0.00     0.051 A 
HETATM    6  C2  UNK     1      17.198   7.894  33.417  1.00  0.00     0.106 A 
HETATM    7  C3  UNK     1      16.969   6.162  31.738  1.00  0.00     0.042 A 
HETATM    8  C4  UNK     1      18.584   7.738  33.396  1.00  0.00     0.047 A 
HETATM    9  C5  UNK     1      14.931   7.292  32.629  1.00  0.00     0.186 A 
HETATM   10  C6  UNK     1      18.357   6.008  31.720  1.00  0.00     0.036 A 
HETATM   11  C7  UNK     1      19.161   6.794  32.547  1.00  0.00     0.046 A 
HETATM   12  C8  UNK     1      14.432   8.319  33.565  1.00  0.00     0.080 A 
HETATM   13  C9  UNK     1      15.320   8.997  34.296  1.00  0.00     0.146 A 
ENDROOT
TORSDOF 0
ENDMDL
MODEL 5
REMARK VINA RESULT:      -5.9      4.448      5.894
REMARK  0 active torsions:
REMARK  status: ('A' for Active; 'I' for Inactive)
ROOT
HETATM    1 Br1  UNK     1      20.524  -3.222  36.984  1.00  0.00    -0.048 Br
HETATM    2 Cl1  UNK     1      20.242  -2.048  31.595  1.00  0.00    -0.084 Cl
HETATM    3  O1  UNK     1      18.253  -1.188  37.066  1.00  0.00    -0.320 OA
HETATM    4  O2  UNK     1      16.488   0.917  34.048  1.00  0.00    -0.287 OA
HETATM    5  C1  UNK     1      18.125  -0.667  34.693  1.00  0.00     0.051 A 
HETATM    6  C2  UNK     1      18.685  -1.356  35.772  1.00  0.00     0.106 A 
HETATM    7  C3  UNK     1      18.603  -0.876  33.398  1.00  0.00     0.042 A 
HETATM    8  C4  UNK     1      19.727  -2.259  35.558  1.00  0.00     0.047 A 
HETATM    9  C5  UNK     1      17.025   0.283  34.945  1.00  0.00     0.186 A 
HETATM   10  C6  UNK     1      19.646  -1.781  33.188  1.00  0.00     0.036 A 
HETATM   11  C7  UNK     1      20.206  -2.469  34.265  1.00  0.00     0.046 A 
HETATM   12  C8  UNK     1      16.601   0.425  36.351  1.00  0.00     0.080 A 
HETATM   13  C9  UNK     1      17.228  -0.300  37.281  1.00  0.00     0.146 A 
ENDROOT
TORSDOF 0
ENDMDL
MODEL 6
REMARK VINA RESULT:      -5.9      4.328      5.860
REMARK  0 active torsions:
REMARK  status: ('A' for Active; 'I' for Inactive)
ROOT
HETATM    1 Br1  UNK     1      18.709  -1.241  32.569  1.00  0.00    -0.048 Br
HETATM    2 Cl1  UNK     1      18.258   4.073  34.003  1.00  0.00    -0.084 Cl
HETATM    3  O1  UNK     1      18.308  -1.598  35.572  1.00  0.00    -0.320 OA
HETATM    4  O2  UNK     1      17.765   1.183  38.509  1.00  0.00    -0.287 OA
HETATM    5  C1  UNK     1      18.109   0.741  36.208  1.00  0.00     0.051 A 
HETATM    6  C2  UNK     1      18.290  -0.261  35.252  1.00  0.00     0.106 A 
HETATM    7  C3  UNK     1      18.100   2.085  35.828  1.00  0.00     0.042 A 
HETATM    8  C4  UNK     1      18.461   0.077  33.910  1.00  0.00     0.047 A 
HETATM    9  C5  UNK     1      17.931   0.358  37.621  1.00  0.00     0.186 A 
HETATM   10  C6  UNK     1      18.270   2.420  34.483  1.00  0.00     0.036 A 
HETATM   11  C7  UNK     1      18.451   1.419  33.528  1.00  0.00     0.046 A 
HETATM   12  C8  UNK     1      17.959  -1.089  37.909  1.00  0.00     0.080 A 
HETATM   13  C9  UNK     1      18.140  -1.936  36.893  1.00  0.00     0.146 A 
ENDROOT
TORSDOF 0
ENDMDL
MODEL 7
REMARK VINA RESULT:      -5.7     14.234     15.285
REMARK  0 active torsions:
REMARK  status: ('A' for Active; 'I' for Inactive)
ROOT
HETATM    1 Br1  UNK     1      31.732  -9.089  37.185  1.00  0.00    -0.048 Br
HETATM    2 Cl1  UNK     1      26.816  -9.400  39.683  1.00  0.00    -0.084 Cl
HETATM    3  O1  UNK     1      31.162  -6.106  37.474  1.00  0.00    -0.320 OA
HETATM    4  O2  UNK     1      27.956  -4.179  39.105  1.00  0.00    -0.287 OA
HETATM    5  C1  UNK     1      28.997  -6.238  38.574  1.00  0.00     0.051 A 
HETATM    6  C2  UNK     1      30.123  -6.834  38.001  1.00  0.00     0.106 A 
HETATM    7  C3  UNK     1      27.969  -7.027  39.095  1.00  0.00     0.042 A 
HETATM    8  C4  UNK     1      30.226  -8.224  37.950  1.00  0.00     0.047 A 
HETATM    9  C5  UNK     1      28.911  -4.767  38.617  1.00  0.00     0.186 A 
HETATM   10  C6  UNK     1      28.076  -8.418  39.042  1.00  0.00     0.036 A 
HETATM   11  C7  UNK     1      29.201  -9.014  38.470  1.00  0.00     0.046 A 
HETATM   12  C8  UNK     1      30.053  -4.033  38.036  1.00  0.00     0.080 A 
HETATM   13  C9  UNK     1      31.065  -4.737  37.523  1.00  0.00     0.146 A 
ENDROOT
TORSDOF 0
ENDMDL
MODEL 8
REMARK VINA RESULT:      -5.7     10.243     11.555
REMARK  0 active torsions:
REMARK  status: ('A' for Active; 'I' for Inactive)
ROOT
HETATM    1 Br1  UNK     1      19.467 -11.000  38.982  1.00  0.00    -0.048 Br
HETATM    2 Cl1  UNK     1      17.812  -7.331  35.201  1.00  0.00    -0.084 Cl
HETATM    3  O1  UNK     1      21.538  -8.823  39.504  1.00  0.00    -0.320 OA
HETATM    4  O2  UNK     1      22.054  -5.191  37.715  1.00  0.00    -0.287 OA
HETATM    5  C1  UNK     1      20.813  -7.204  37.839  1.00  0.00     0.051 A 
HETATM    6  C2  UNK     1      20.692  -8.432  38.494  1.00  0.00     0.106 A 
HETATM    7  C3  UNK     1      19.926  -6.857  36.819  1.00  0.00     0.042 A 
HETATM    8  C4  UNK     1      19.680  -9.319  38.129  1.00  0.00     0.047 A 
HETATM    9  C5  UNK     1      21.892  -6.282  38.243  1.00  0.00     0.186 A 
HETATM   10  C6  UNK     1      18.913  -7.748  36.457  1.00  0.00     0.036 A 
HETATM   11  C7  UNK     1      18.792  -8.976  37.109  1.00  0.00     0.046 A 
HETATM   12  C8  UNK     1      22.772  -6.751  39.331  1.00  0.00     0.080 A 
HETATM   13  C9  UNK     1      22.537  -7.951  39.866  1.00  0.00     0.146 A 
ENDROOT
TORSDOF 0
ENDMDL
MODEL 9
REMARK VINA RESULT:      -5.7      2.672      3.412
REMARK  0 active torsions:
REMARK  status: ('A' for Active; 'I' for Inactive)
ROOT
HETATM    1 Br1  UNK     1      18.294   3.215  31.210  1.00  0.00    -0.048 Br
HETATM    2 Cl1  UNK     1      18.013  -0.563  35.229  1.00  0.00    -0.084 Cl
HETATM    3  O1  UNK     1      19.676   0.904  29.778  1.00  0.00    -0.320 OA
HETATM    4  O2  UNK     1      20.490  -2.884  31.060  1.00  0.00    -0.287 OA
HETATM    5  C1  UNK     1      19.555  -0.763  31.545  1.00  0.00     0.051 A 
HETATM    6  C2  UNK     1      19.307   0.517  31.044  1.00  0.00     0.106 A 
HETATM    7  C3  UNK     1      19.158  -1.104  32.840  1.00  0.00     0.042 A 
HETATM    8  C4  UNK     1      18.658   1.462  31.838  1.00  0.00     0.047 A 
HETATM    9  C5  UNK     1      20.243  -1.746  30.687  1.00  0.00     0.186 A 
HETATM   10  C6  UNK     1      18.509  -0.154  33.631  1.00  0.00     0.036 A 
HETATM   11  C7  UNK     1      18.261   1.125  33.132  1.00  0.00     0.046 A 
HETATM   12  C8  UNK     1      20.618  -1.279  29.338  1.00  0.00     0.080 A 
HETATM   13  C9  UNK     1      20.315  -0.025  28.993  1.00  0.00     0.146 A 
ENDROOT
TORSDOF 0
ENDMDL
MODEL 10
REMARK VINA RESULT:      -5.6      3.125      4.576
REMARK  0 active torsions:
REMARK  status: ('A' for Active; 'I' for Inactive)
ROOT
HETATM    1 Br1  UNK     1      18.736   2.436  29.902  1.00  0.00    -0.048 Br
HETATM    2 Cl1  UNK     1      20.765  -2.695  30.150  1.00  0.00    -0.084 Cl
HETATM    3  O1  UNK     1      18.088   1.815  32.817  1.00  0.00    -0.320 OA
HETATM    4  O2  UNK     1      18.790  -1.551  35.017  1.00  0.00    -0.287 OA
HETATM    5  C1  UNK     1      18.979  -0.445  32.931  1.00  0.00     0.051 A 
HETATM    6  C2  UNK     1      18.710   0.736  32.236  1.00  0.00     0.106 A 
HETATM    7  C3  UNK     1      19.614  -1.512  32.291  1.00  0.00     0.042 A 
HETATM    8  C4  UNK     1      19.076   0.856  30.896  1.00  0.00     0.047 A 
HETATM    9  C5  UNK     1      18.582  -0.548  34.348  1.00  0.00     0.186 A 
HETATM   10  C6  UNK     1      19.980  -1.388  30.949  1.00  0.00     0.036 A 
HETATM   11  C7  UNK     1      19.711  -0.208  30.254  1.00  0.00     0.046 A 
HETATM   12  C8  UNK     1      17.917   0.638  34.922  1.00  0.00     0.080 A 
HETATM   13  C9  UNK     1      17.725   1.701  34.138  1.00  0.00     0.146 A 
ENDROOT
TORSDOF 0
ENDMDL
