MODEL 1
REMARK VINA RESULT:      -8.5      0.000      0.000
REMARK  3 active torsions:
REMARK  status: ('A' for Active; 'I' for Inactive)
REMARK    1  A    between atoms: C5_9  and  O2_2 
REMARK    2  A    between atoms: C14_18  and  O3_3 
REMARK    3  A    between atoms: C1_5  and  C4_8 
ROOT
HETATM    1  O1  UNK     1      19.566   1.364  31.230  1.00  0.00    -0.306 OA
HETATM    2  O4  UNK     1      18.779  -0.068  27.497  1.00  0.00    -0.284 OA
HETATM    3  C1  UNK     1      18.955   2.151  30.267  1.00  0.00     0.123 A 
HETATM    4  C2  UNK     1      19.647  -0.478  29.652  1.00  0.00     0.051 A 
HETATM    5  C3  UNK     1      19.892   0.072  30.908  1.00  0.00     0.090 A 
HETATM    6  C5  UNK     1      18.673   1.746  29.016  1.00  0.00     0.152 A 
HETATM    7  C6  UNK     1      19.013   0.358  28.621  1.00  0.00     0.220 A 
HETATM    8  C7  UNK     1      20.001  -1.802  29.380  1.00  0.00     0.018 A 
HETATM    9  C10 UNK     1      20.495  -0.699  31.901  1.00  0.00     0.038 A 
HETATM   10  C13 UNK     1      20.604  -2.572  30.376  1.00  0.00     0.001 A 
HETATM   11  C15 UNK     1      20.850  -2.021  31.634  1.00  0.00     0.003 A 
ENDROOT
BRANCH   3  12
HETATM   12  C4  UNK     1      18.659   3.514  30.742  1.00  0.00     0.001 A 
HETATM   13  C8  UNK     1      19.123   4.619  30.029  1.00  0.00     0.017 A 
HETATM   14  C11 UNK     1      18.843   5.909  30.479  1.00  0.00     0.037 A 
HETATM   15  C14 UNK     1      18.099   6.095  31.645  1.00  0.00     0.068 A 
HETATM   16  C12 UNK     1      17.635   4.990  32.359  1.00  0.00     0.037 A 
HETATM   17  C9  UNK     1      17.914   3.700  31.908  1.00  0.00     0.017 A 
BRANCH  15  18
HETATM   18  O3  UNK     1      17.826   7.353  32.084  1.00  0.00    -0.356 OA
HETATM   19  C16 UNK     1      16.545   7.891  31.760  1.00  0.00     0.210 C 
ENDBRANCH  15  18
ENDBRANCH   3  12
BRANCH   6  20
HETATM   20  O2  UNK     1      18.094   2.566  28.072  1.00  0.00    -0.355 OA
HETATM   21  H9  UNK     1      18.478   3.455  28.127  1.00  0.00     0.218 HD
ENDBRANCH   6  20
TORSDOF 3
ENDMDL
MODEL 2
REMARK VINA RESULT:      -8.0      3.725      4.860
REMARK  3 active torsions:
REMARK  status: ('A' for Active; 'I' for Inactive)
REMARK    1  A    between atoms: C5_9  and  O2_2 
REMARK    2  A    between atoms: C14_18  and  O3_3 
REMARK    3  A    between atoms: C1_5  and  C4_8 
ROOT
HETATM    1  O1  UNK     1      19.018  -0.106  32.577  1.00  0.00    -0.306 OA
HETATM    2  O4  UNK     1      18.702   2.858  29.800  1.00  0.00    -0.284 OA
HETATM    3  C1  UNK     1      18.453   1.121  32.889  1.00  0.00     0.123 A 
HETATM    4  C2  UNK     1      19.379   0.655  30.301  1.00  0.00     0.051 A 
HETATM    5  C3  UNK     1      19.461  -0.315  31.297  1.00  0.00     0.090 A 
HETATM    6  C5  UNK     1      18.324   2.143  32.025  1.00  0.00     0.152 A 
HETATM    7  C6  UNK     1      18.794   1.965  30.631  1.00  0.00     0.220 A 
HETATM    8  C7  UNK     1      19.846   0.386  29.013  1.00  0.00     0.018 A 
HETATM    9  C10 UNK     1      20.013  -1.563  31.011  1.00  0.00     0.038 A 
HETATM   10  C13 UNK     1      20.399  -0.864  28.728  1.00  0.00     0.001 A 
HETATM   11  C15 UNK     1      20.482  -1.837  29.725  1.00  0.00     0.003 A 
ENDROOT
BRANCH   3  12
HETATM   12  C4  UNK     1      18.019   1.213  34.294  1.00  0.00     0.001 A 
HETATM   13  C8  UNK     1      16.860   0.558  34.712  1.00  0.00     0.017 A 
HETATM   14  C11 UNK     1      16.448   0.646  36.041  1.00  0.00     0.037 A 
HETATM   15  C14 UNK     1      17.197   1.389  36.955  1.00  0.00     0.068 A 
HETATM   16  C12 UNK     1      18.355   2.044  36.539  1.00  0.00     0.037 A 
HETATM   17  C9  UNK     1      18.767   1.956  35.209  1.00  0.00     0.017 A 
BRANCH  15  18
HETATM   18  O3  UNK     1      16.795   1.475  38.252  1.00  0.00    -0.356 OA
HETATM   19  C16 UNK     1      17.810   1.396  39.253  1.00  0.00     0.210 C 
ENDBRANCH  15  18
ENDBRANCH   3  12
BRANCH   6  20
HETATM   20  O2  UNK     1      17.787   3.362  32.377  1.00  0.00    -0.355 OA
HETATM   21  H9  UNK     1      16.958   3.509  31.895  1.00  0.00     0.218 HD
ENDBRANCH   6  20
TORSDOF 3
ENDMDL
MODEL 3
REMARK VINA RESULT:      -8.0      2.687      8.530
REMARK  3 active torsions:
REMARK  status: ('A' for Active; 'I' for Inactive)
REMARK    1  A    between atoms: C5_9  and  O2_2 
REMARK    2  A    between atoms: C14_18  and  O3_3 
REMARK    3  A    between atoms: C1_5  and  C4_8 
ROOT
HETATM    1  O1  UNK     1      16.860   7.473  32.261  1.00  0.00    -0.306 OA
HETATM    2  O4  UNK     1      19.643   9.415  34.518  1.00  0.00    -0.284 OA
HETATM    3  C1  UNK     1      18.135   6.959  32.437  1.00  0.00     0.123 A 
HETATM    4  C2  UNK     1      17.443   9.364  33.666  1.00  0.00     0.051 A 
HETATM    5  C3  UNK     1      16.539   8.653  32.880  1.00  0.00     0.090 A 
HETATM    6  C5  UNK     1      19.102   7.550  33.161  1.00  0.00     0.152 A 
HETATM    7  C6  UNK     1      18.804   8.831  33.844  1.00  0.00     0.220 A 
HETATM    8  C7  UNK     1      17.061  10.563  34.273  1.00  0.00     0.018 A 
HETATM    9  C10 UNK     1      15.246   9.139  32.694  1.00  0.00     0.038 A 
HETATM   10  C13 UNK     1      15.765  11.046  34.086  1.00  0.00     0.001 A 
HETATM   11  C15 UNK     1      14.859  10.336  33.298  1.00  0.00     0.003 A 
ENDROOT
BRANCH   3  12
HETATM   12  C4  UNK     1      18.347   5.689  31.721  1.00  0.00     0.001 A 
HETATM   13  C8  UNK     1      18.878   5.695  30.431  1.00  0.00     0.017 A 
HETATM   14  C11 UNK     1      19.078   4.494  29.752  1.00  0.00     0.037 A 
HETATM   15  C14 UNK     1      18.745   3.284  30.364  1.00  0.00     0.068 A 
HETATM   16  C12 UNK     1      18.213   3.277  31.653  1.00  0.00     0.037 A 
HETATM   17  C9  UNK     1      18.015   4.479  32.332  1.00  0.00     0.017 A 
BRANCH  15  18
HETATM   18  O3  UNK     1      18.940   2.111  29.701  1.00  0.00    -0.356 OA
HETATM   19  C16 UNK     1      18.013   1.790  28.665  1.00  0.00     0.210 C 
ENDBRANCH  15  18
ENDBRANCH   3  12
BRANCH   6  20
HETATM   20  O2  UNK     1      20.371   7.028  33.289  1.00  0.00    -0.355 OA
HETATM   21  H9  UNK     1      20.550   6.817  34.219  1.00  0.00     0.218 HD
ENDBRANCH   6  20
TORSDOF 3
ENDMDL
MODEL 4
REMARK VINA RESULT:      -7.9      2.126      3.049
REMARK  3 active torsions:
REMARK  status: ('A' for Active; 'I' for Inactive)
REMARK    1  A    between atoms: C5_9  and  O2_2 
REMARK    2  A    between atoms: C14_18  and  O3_3 
REMARK    3  A    between atoms: C1_5  and  C4_8 
ROOT
HETATM    1  O1  UNK     1      18.109   3.191  33.270  1.00  0.00    -0.306 OA
HETATM    2  O4  UNK     1      19.222   1.589  29.693  1.00  0.00    -0.284 OA
HETATM    3  C1  UNK     1      18.291   3.983  32.148  1.00  0.00     0.123 A 
HETATM    4  C2  UNK     1      18.675   1.229  31.959  1.00  0.00     0.051 A 
HETATM    5  C3  UNK     1      18.298   1.839  33.153  1.00  0.00     0.090 A 
HETATM    6  C5  UNK     1      18.663   3.523  30.940  1.00  0.00     0.152 A 
HETATM    7  C6  UNK     1      18.884   2.067  30.767  1.00  0.00     0.220 A 
HETATM    8  C7  UNK     1      18.852  -0.156  31.898  1.00  0.00     0.018 A 
HETATM    9  C10 UNK     1      18.097   1.066  34.296  1.00  0.00     0.038 A 
HETATM   10  C13 UNK     1      18.650  -0.926  33.044  1.00  0.00     0.001 A 
HETATM   11  C15 UNK     1      18.273  -0.317  34.240  1.00  0.00     0.003 A 
ENDROOT
BRANCH   3  12
HETATM   12  C4  UNK     1      18.056   5.414  32.411  1.00  0.00     0.001 A 
HETATM   13  C8  UNK     1      19.094   6.216  32.885  1.00  0.00     0.017 A 
HETATM   14  C11 UNK     1      18.873   7.570  33.135  1.00  0.00     0.037 A 
HETATM   15  C14 UNK     1      17.612   8.124  32.911  1.00  0.00     0.068 A 
HETATM   16  C12 UNK     1      16.573   7.322  32.438  1.00  0.00     0.037 A 
HETATM   17  C9  UNK     1      16.795   5.968  32.187  1.00  0.00     0.017 A 
BRANCH  15  18
HETATM   18  O3  UNK     1      17.396   9.445  33.155  1.00  0.00    -0.356 OA
HETATM   19  C16 UNK     1      18.380  10.131  33.926  1.00  0.00     0.210 C 
ENDBRANCH  15  18
ENDBRANCH   3  12
BRANCH   6  20
HETATM   20  O2  UNK     1      18.866   4.343  29.852  1.00  0.00    -0.355 OA
HETATM   21  H9  UNK     1      19.678   4.083  29.389  1.00  0.00     0.218 HD
ENDBRANCH   6  20
TORSDOF 3
ENDMDL
MODEL 5
REMARK VINA RESULT:      -7.7      6.568     10.501
REMARK  3 active torsions:
REMARK  status: ('A' for Active; 'I' for Inactive)
REMARK    1  A    between atoms: C5_9  and  O2_2 
REMARK    2  A    between atoms: C14_18  and  O3_3 
REMARK    3  A    between atoms: C1_5  and  C4_8 
ROOT
HETATM    1  O1  UNK     1      18.910  -2.286  37.394  1.00  0.00    -0.306 OA
HETATM    2  O4  UNK     1      19.456  -0.922  33.593  1.00  0.00    -0.284 OA
HETATM    3  C1  UNK     1      19.550  -3.054  36.435  1.00  0.00     0.123 A 
HETATM    4  C2  UNK     1      18.628  -0.510  35.763  1.00  0.00     0.051 A 
HETATM    5  C3  UNK     1      18.470  -1.036  37.043  1.00  0.00     0.090 A 
HETATM    6  C5  UNK     1      19.758  -2.669  35.163  1.00  0.00     0.152 A 
HETATM    7  C6  UNK     1      19.294  -1.328  34.736  1.00  0.00     0.220 A 
HETATM    8  C7  UNK     1      18.160   0.771  35.462  1.00  0.00     0.018 A 
HETATM    9  C10 UNK     1      17.839  -0.282  38.032  1.00  0.00     0.038 A 
HETATM   10  C13 UNK     1      17.529   1.524  36.454  1.00  0.00     0.001 A 
HETATM   11  C15 UNK     1      17.369   0.998  37.737  1.00  0.00     0.003 A 
ENDROOT
BRANCH   3  12
HETATM   12  C4  UNK     1      19.972  -4.371  36.942  1.00  0.00     0.001 A 
HETATM   13  C8  UNK     1      19.176  -5.494  36.714  1.00  0.00     0.017 A 
HETATM   14  C11 UNK     1      19.574  -6.741  37.195  1.00  0.00     0.037 A 
HETATM   15  C14 UNK     1      20.769  -6.866  37.904  1.00  0.00     0.068 A 
HETATM   16  C12 UNK     1      21.565  -5.744  38.133  1.00  0.00     0.037 A 
HETATM   17  C9  UNK     1      21.167  -4.497  37.652  1.00  0.00     0.017 A 
BRANCH  15  18
HETATM   18  O3  UNK     1      21.157  -8.083  38.373  1.00  0.00    -0.356 OA
HETATM   19  C16 UNK     1      21.890  -8.103  39.598  1.00  0.00     0.210 C 
ENDBRANCH  15  18
ENDBRANCH   3  12
BRANCH   6  20
HETATM   20  O2  UNK     1      20.370  -3.472  34.225  1.00  0.00    -0.355 OA
HETATM   21  H9  UNK     1      20.024  -3.271  33.341  1.00  0.00     0.218 HD
ENDBRANCH   6  20
TORSDOF 3
ENDMDL
MODEL 6
REMARK VINA RESULT:      -7.7      3.553      6.438
REMARK  3 active torsions:
REMARK  status: ('A' for Active; 'I' for Inactive)
REMARK    1  A    between atoms: C5_9  and  O2_2 
REMARK    2  A    between atoms: C14_18  and  O3_3 
REMARK    3  A    between atoms: C1_5  and  C4_8 
ROOT
HETATM    1  O1  UNK     1      18.063   3.595  33.164  1.00  0.00    -0.306 OA
HETATM    2  O4  UNK     1      19.141   2.012  29.567  1.00  0.00    -0.284 OA
HETATM    3  C1  UNK     1      18.228   2.229  32.994  1.00  0.00     0.123 A 
HETATM    4  C2  UNK     1      18.660   3.941  30.837  1.00  0.00     0.051 A 
HETATM    5  C3  UNK     1      18.287   4.418  32.091  1.00  0.00     0.090 A 
HETATM    6  C5  UNK     1      18.575   1.641  31.836  1.00  0.00     0.152 A 
HETATM    7  C6  UNK     1      18.821   2.491  30.647  1.00  0.00     0.220 A 
HETATM    8  C7  UNK     1      18.875   4.828  29.779  1.00  0.00     0.018 A 
HETATM    9  C10 UNK     1      18.125   5.788  32.295  1.00  0.00     0.038 A 
HETATM   10  C13 UNK     1      18.712   6.199  29.986  1.00  0.00     0.001 A 
HETATM   11  C15 UNK     1      18.338   6.678  31.242  1.00  0.00     0.003 A 
ENDROOT
BRANCH   3  12
HETATM   12  C4  UNK     1      17.958   1.461  34.222  1.00  0.00     0.001 A 
HETATM   13  C8  UNK     1      16.878   0.580  34.271  1.00  0.00     0.017 A 
HETATM   14  C11 UNK     1      16.621  -0.146  35.434  1.00  0.00     0.037 A 
HETATM   15  C14 UNK     1      17.445   0.009  36.549  1.00  0.00     0.068 A 
HETATM   16  C12 UNK     1      18.525   0.890  36.501  1.00  0.00     0.037 A 
HETATM   17  C9  UNK     1      18.782   1.616  35.338  1.00  0.00     0.017 A 
BRANCH  15  18
HETATM   18  O3  UNK     1      17.195  -0.700  37.684  1.00  0.00    -0.356 OA
HETATM   19  C16 UNK     1      18.231  -1.561  38.153  1.00  0.00     0.210 C 
ENDBRANCH  15  18
ENDBRANCH   3  12
BRANCH   6  20
HETATM   20  O2  UNK     1      18.698   0.275  31.693  1.00  0.00    -0.355 OA
HETATM   21  H9  UNK     1      17.868  -0.159  31.945  1.00  0.00     0.218 HD
ENDBRANCH   6  20
TORSDOF 3
ENDMDL
MODEL 7
REMARK VINA RESULT:      -7.7      1.430      2.796
REMARK  3 active torsions:
REMARK  status: ('A' for Active; 'I' for Inactive)
REMARK    1  A    between atoms: C5_9  and  O2_2 
REMARK    2  A    between atoms: C14_18  and  O3_3 
REMARK    3  A    between atoms: C1_5  and  C4_8 
ROOT
HETATM    1  O1  UNK     1      19.231   1.962  30.395  1.00  0.00    -0.306 OA
HETATM    2  O4  UNK     1      18.671  -0.381  33.682  1.00  0.00    -0.284 OA
HETATM    3  C1  UNK     1      18.710   2.478  31.571  1.00  0.00     0.123 A 
HETATM    4  C2  UNK     1      19.411  -0.218  31.448  1.00  0.00     0.051 A 
HETATM    5  C3  UNK     1      19.575   0.635  30.359  1.00  0.00     0.090 A 
HETATM    6  C5  UNK     1      18.493   1.762  32.688  1.00  0.00     0.152 A 
HETATM    7  C6  UNK     1      18.844   0.322  32.694  1.00  0.00     0.220 A 
HETATM    8  C7  UNK     1      19.780  -1.562  31.354  1.00  0.00     0.018 A 
HETATM    9  C10 UNK     1      20.108   0.148  29.166  1.00  0.00     0.038 A 
HETATM   10  C13 UNK     1      20.313  -2.047  30.159  1.00  0.00     0.001 A 
HETATM   11  C15 UNK     1      20.477  -1.194  29.067  1.00  0.00     0.003 A 
ENDROOT
BRANCH   3  12
HETATM   12  C4  UNK     1      18.385   3.911  31.474  1.00  0.00     0.001 A 
HETATM   13  C8  UNK     1      17.537   4.500  32.412  1.00  0.00     0.017 A 
HETATM   14  C11 UNK     1      17.228   5.857  32.321  1.00  0.00     0.037 A 
HETATM   15  C14 UNK     1      17.767   6.627  31.289  1.00  0.00     0.068 A 
HETATM   16  C12 UNK     1      18.615   6.039  30.351  1.00  0.00     0.037 A 
HETATM   17  C9  UNK     1      18.924   4.682  30.443  1.00  0.00     0.017 A 
BRANCH  15  18
HETATM   18  O3  UNK     1      17.466   7.951  31.200  1.00  0.00    -0.356 OA
HETATM   19  C16 UNK     1      16.184   8.357  31.676  1.00  0.00     0.210 C 
ENDBRANCH  15  18
ENDBRANCH   3  12
BRANCH   6  20
HETATM   20  O2  UNK     1      17.942   2.300  33.831  1.00  0.00    -0.355 OA
HETATM   21  H9  UNK     1      17.445   3.103  33.611  1.00  0.00     0.218 HD
ENDBRANCH   6  20
TORSDOF 3
ENDMDL
MODEL 8
REMARK VINA RESULT:      -7.6      7.270      9.784
REMARK  3 active torsions:
REMARK  status: ('A' for Active; 'I' for Inactive)
REMARK    1  A    between atoms: C5_9  and  O2_2 
REMARK    2  A    between atoms: C14_18  and  O3_3 
REMARK    3  A    between atoms: C1_5  and  C4_8 
ROOT
HETATM    1  O1  UNK     1      21.235  -4.696  37.517  1.00  0.00    -0.306 OA
HETATM    2  O4  UNK     1      18.625  -7.786  38.011  1.00  0.00    -0.284 OA
HETATM    3  C1  UNK     1      19.947  -4.644  37.009  1.00  0.00     0.123 A 
HETATM    4  C2  UNK     1      20.773  -6.902  38.419  1.00  0.00     0.051 A 
HETATM    5  C3  UNK     1      21.618  -5.814  38.212  1.00  0.00     0.090 A 
HETATM    6  C5  UNK     1      19.038  -5.628  37.129  1.00  0.00     0.152 A 
HETATM    7  C6  UNK     1      19.409  -6.858  37.868  1.00  0.00     0.220 A 
HETATM    8  C7  UNK     1      21.218  -8.015  39.136  1.00  0.00     0.018 A 
HETATM    9  C10 UNK     1      22.916  -5.833  38.722  1.00  0.00     0.038 A 
HETATM   10  C13 UNK     1      22.518  -8.032  39.645  1.00  0.00     0.001 A 
HETATM   11  C15 UNK     1      23.365  -6.943  39.438  1.00  0.00     0.003 A 
ENDROOT
BRANCH   3  12
HETATM   12  C4  UNK     1      19.665  -3.391  36.287  1.00  0.00     0.001 A 
HETATM   13  C8  UNK     1      20.136  -3.214  34.985  1.00  0.00     0.017 A 
HETATM   14  C11 UNK     1      19.871  -2.028  34.301  1.00  0.00     0.037 A 
HETATM   15  C14 UNK     1      19.134  -1.016  34.919  1.00  0.00     0.068 A 
HETATM   16  C12 UNK     1      18.664  -1.192  36.220  1.00  0.00     0.037 A 
HETATM   17  C9  UNK     1      18.929  -2.378  36.904  1.00  0.00     0.017 A 
BRANCH  15  18
HETATM   18  O3  UNK     1      18.876   0.141  34.252  1.00  0.00    -0.356 OA
HETATM   19  C16 UNK     1      17.765   0.915  34.702  1.00  0.00     0.210 C 
ENDBRANCH  15  18
ENDBRANCH   3  12
BRANCH   6  20
HETATM   20  O2  UNK     1      17.775  -5.556  36.583  1.00  0.00    -0.355 OA
HETATM   21  H9  UNK     1      17.828  -5.234  35.669  1.00  0.00     0.218 HD
ENDBRANCH   6  20
TORSDOF 3
ENDMDL
MODEL 9
REMARK VINA RESULT:      -7.6     22.185     23.942
REMARK  3 active torsions:
REMARK  status: ('A' for Active; 'I' for Inactive)
REMARK    1  A    between atoms: C5_9  and  O2_2 
REMARK    2  A    between atoms: C14_18  and  O3_3 
REMARK    3  A    between atoms: C1_5  and  C4_8 
ROOT
HETATM    1  O1  UNK     1      12.814   7.634   7.624  1.00  0.00    -0.306 OA
HETATM    2  O4  UNK     1       9.652   8.475  10.054  1.00  0.00    -0.284 OA
HETATM    3  C1  UNK     1      12.970   8.373   8.786  1.00  0.00     0.123 A 
HETATM    4  C2  UNK     1      10.443   7.420   8.098  1.00  0.00     0.051 A 
HETATM    5  C3  UNK     1      11.563   7.171   7.308  1.00  0.00     0.090 A 
HETATM    6  C5  UNK     1      11.972   8.692   9.629  1.00  0.00     0.152 A 
HETATM    7  C6  UNK     1      10.601   8.217   9.325  1.00  0.00     0.220 A 
HETATM    8  C7  UNK     1       9.192   6.922   7.726  1.00  0.00     0.018 A 
HETATM    9  C10 UNK     1      11.438   6.421   6.139  1.00  0.00     0.038 A 
HETATM   10  C13 UNK     1       9.070   6.171   6.556  1.00  0.00     0.001 A 
HETATM   11  C15 UNK     1      10.191   5.921   5.764  1.00  0.00     0.003 A 
ENDROOT
BRANCH   3  12
HETATM   12  C4  UNK     1      14.361   8.807   9.007  1.00  0.00     0.001 A 
HETATM   13  C8  UNK     1      15.223   8.027   9.778  1.00  0.00     0.017 A 
HETATM   14  C11 UNK     1      16.538   8.439   9.989  1.00  0.00     0.037 A 
HETATM   15  C14 UNK     1      16.994   9.633   9.427  1.00  0.00     0.068 A 
HETATM   16  C12 UNK     1      16.133  10.414   8.656  1.00  0.00     0.037 A 
HETATM   17  C9  UNK     1      14.817  10.001   8.446  1.00  0.00     0.017 A 
BRANCH  15  18
HETATM   18  O3  UNK     1      18.277  10.034   9.632  1.00  0.00    -0.356 OA
HETATM   19  C16 UNK     1      18.508  11.438   9.747  1.00  0.00     0.210 C 
ENDBRANCH  15  18
ENDBRANCH   3  12
BRANCH   6  20
HETATM   20  O2  UNK     1      12.158   9.456  10.760  1.00  0.00    -0.355 OA
HETATM   21  H9  UNK     1      11.359   9.976  10.942  1.00  0.00     0.218 HD
ENDBRANCH   6  20
TORSDOF 3
ENDMDL
MODEL 10
REMARK VINA RESULT:      -7.5     22.355     24.079
REMARK  3 active torsions:
REMARK  status: ('A' for Active; 'I' for Inactive)
REMARK    1  A    between atoms: C5_9  and  O2_2 
REMARK    2  A    between atoms: C14_18  and  O3_3 
REMARK    3  A    between atoms: C1_5  and  C4_8 
ROOT
HETATM    1  O1  UNK     1      11.716   8.117   8.993  1.00  0.00    -0.306 OA
HETATM    2  O4  UNK     1      11.168   5.802   5.685  1.00  0.00    -0.284 OA
HETATM    3  C1  UNK     1      12.782   7.727   8.198  1.00  0.00     0.123 A 
HETATM    4  C2  UNK     1      10.199   6.930   7.516  1.00  0.00     0.051 A 
HETATM    5  C3  UNK     1      10.454   7.719   8.636  1.00  0.00     0.090 A 
HETATM    6  C5  UNK     1      12.674   6.960   7.099  1.00  0.00     0.152 A 
HETATM    7  C6  UNK     1      11.329   6.501   6.677  1.00  0.00     0.220 A 
HETATM    8  C7  UNK     1       8.891   6.555   7.200  1.00  0.00     0.018 A 
HETATM    9  C10 UNK     1       9.401   8.137   9.449  1.00  0.00     0.038 A 
HETATM   10  C13 UNK     1       7.839   6.974   8.015  1.00  0.00     0.001 A 
HETATM   11  C15 UNK     1       8.093   7.764   9.137  1.00  0.00     0.003 A 
ENDROOT
BRANCH   3  12
HETATM   12  C4  UNK     1      14.079   8.222   8.693  1.00  0.00     0.001 A 
HETATM   13  C8  UNK     1      14.507   9.508   8.365  1.00  0.00     0.017 A 
HETATM   14  C11 UNK     1      15.735   9.976   8.832  1.00  0.00     0.037 A 
HETATM   15  C14 UNK     1      16.536   9.158   9.629  1.00  0.00     0.068 A 
HETATM   16  C12 UNK     1      16.109   7.871   9.957  1.00  0.00     0.037 A 
HETATM   17  C9  UNK     1      14.880   7.404   9.490  1.00  0.00     0.017 A 
BRANCH  15  18
HETATM   18  O3  UNK     1      17.734   9.614  10.085  1.00  0.00    -0.356 OA
HETATM   19  C16 UNK     1      18.044  10.984   9.832  1.00  0.00     0.210 C 
ENDBRANCH  15  18
ENDBRANCH   3  12
BRANCH   6  20
HETATM   20  O2  UNK     1      13.759   6.563   6.349  1.00  0.00    -0.355 OA
HETATM   21  H9  UNK     1      13.477   5.935   5.666  1.00  0.00     0.218 HD
ENDBRANCH   6  20
TORSDOF 3
ENDMDL
