MODEL 1
REMARK VINA RESULT:      -8.4      0.000      0.000
REMARK  3 active torsions:
REMARK  status: ('A' for Active; 'I' for Inactive)
REMARK    1  A    between atoms: C15_19  and  O3_3 
REMARK    2  A    between atoms: C17_21  and  O4_4 
REMARK    3  A    between atoms: C4_8  and  C9_13 
ROOT
HETATM    1  O1  UNK     1      16.450   7.195  32.708  1.00  0.00    -0.308 OA
HETATM    2  O2  UNK     1      19.133   9.828  34.278  1.00  0.00    -0.287 OA
HETATM    3  C1  UNK     1      16.006   8.314  33.365  1.00  0.00     0.096 A 
HETATM    4  C2  UNK     1      16.869   9.255  33.925  1.00  0.00     0.049 A 
HETATM    5  C3  UNK     1      14.625   8.488  33.463  1.00  0.00    -0.027 A 
HETATM    6  C4  UNK     1      17.818   6.997  32.591  1.00  0.00     0.090 A 
HETATM    7  C5  UNK     1      14.978  10.549  34.679  1.00  0.00    -0.060 A 
HETATM    8  C6  UNK     1      16.359  10.377  34.583  1.00  0.00     0.025 A 
HETATM    9  C7  UNK     1      14.112   9.608  34.120  1.00  0.00     0.016 A 
HETATM   10  C8  UNK     1      18.320   9.044  33.809  1.00  0.00     0.187 A 
HETATM   11  C10 UNK     1      18.747   7.827  33.091  1.00  0.00     0.093 A 
HETATM   12  C11 UNK     1      13.677   7.496  32.874  1.00  0.00     0.051 C 
HETATM   13  C12 UNK     1      14.424  11.743  35.381  1.00  0.00     0.048 C 
ENDROOT
BRANCH   6  14
HETATM   14  C9  UNK     1      18.186   5.760  31.873  1.00  0.00     0.001 A 
HETATM   15  C13 UNK     1      17.841   4.514  32.401  1.00  0.00     0.054 A 
HETATM   16  C15 UNK     1      18.188   3.346  31.722  1.00  0.00     0.102 A 
HETATM   17  C17 UNK     1      18.879   3.420  30.512  1.00  0.00     0.099 A 
HETATM   18  C16 UNK     1      19.223   4.664  29.982  1.00  0.00     0.040 A 
HETATM   19  C14 UNK     1      18.877   5.832  30.661  1.00  0.00     0.017 A 
BRANCH  16  20
HETATM   20  O3  UNK     1      17.848   2.136  32.251  1.00  0.00    -0.353 OA
HETATM   21  C18 UNK     1      18.181   1.910  33.618  1.00  0.00     0.210 C 
ENDBRANCH  16  20
BRANCH  17  22
HETATM   22  O4  UNK     1      19.223   2.286  29.841  1.00  0.00    -0.358 OA
HETATM   23  H13 UNK     1      19.800   1.746  30.408  1.00  0.00     0.217 HD
ENDBRANCH  17  22
ENDBRANCH   6  14
TORSDOF 3
ENDMDL
MODEL 2
REMARK VINA RESULT:      -8.3      1.325      2.317
REMARK  3 active torsions:
REMARK  status: ('A' for Active; 'I' for Inactive)
REMARK    1  A    between atoms: C15_19  and  O3_3 
REMARK    2  A    between atoms: C17_21  and  O4_4 
REMARK    3  A    between atoms: C4_8  and  C9_13 
ROOT
HETATM    1  O1  UNK     1      16.875   6.046  32.630  1.00  0.00    -0.308 OA
HETATM    2  O2  UNK     1      19.782   8.259  34.432  1.00  0.00    -0.287 OA
HETATM    3  C1  UNK     1      16.628   7.351  32.972  1.00  0.00     0.096 A 
HETATM    4  C2  UNK     1      17.578   8.165  33.589  1.00  0.00     0.049 A 
HETATM    5  C3  UNK     1      15.361   7.857  32.677  1.00  0.00    -0.027 A 
HETATM    6  C4  UNK     1      18.127   5.517  32.906  1.00  0.00     0.090 A 
HETATM    7  C5  UNK     1      16.003   9.991  33.618  1.00  0.00    -0.060 A 
HETATM    8  C6  UNK     1      17.270   9.488  33.914  1.00  0.00     0.025 A 
HETATM    9  C7  UNK     1      15.050   9.179  33.001  1.00  0.00     0.016 A 
HETATM   10  C8  UNK     1      18.903   7.604  33.890  1.00  0.00     0.187 A 
HETATM   11  C10 UNK     1      19.120   6.196  33.501  1.00  0.00     0.093 A 
HETATM   12  C11 UNK     1      14.325   7.009  32.017  1.00  0.00     0.051 C 
HETATM   13  C12 UNK     1      15.663  11.402  33.963  1.00  0.00     0.048 C 
ENDROOT
BRANCH   6  14
HETATM   14  C9  UNK     1      18.283   4.104  32.504  1.00  0.00     0.001 A 
HETATM   15  C13 UNK     1      18.548   3.780  31.171  1.00  0.00     0.054 A 
HETATM   16  C15 UNK     1      18.696   2.446  30.792  1.00  0.00     0.102 A 
HETATM   17  C17 UNK     1      18.582   1.432  31.743  1.00  0.00     0.099 A 
HETATM   18  C16 UNK     1      18.318   1.754  33.075  1.00  0.00     0.040 A 
HETATM   19  C14 UNK     1      18.170   3.087  33.455  1.00  0.00     0.017 A 
BRANCH  16  20
HETATM   20  O3  UNK     1      18.952   2.144  29.487  1.00  0.00    -0.353 OA
HETATM   21  C18 UNK     1      17.828   2.012  28.620  1.00  0.00     0.210 C 
ENDBRANCH  16  20
BRANCH  17  22
HETATM   22  O4  UNK     1      18.724   0.126  31.384  1.00  0.00    -0.358 OA
HETATM   23  H13 UNK     1      19.494  -0.246  31.846  1.00  0.00     0.217 HD
ENDBRANCH  17  22
ENDBRANCH   6  14
TORSDOF 3
ENDMDL
MODEL 3
REMARK VINA RESULT:      -8.2      8.221     13.723
REMARK  3 active torsions:
REMARK  status: ('A' for Active; 'I' for Inactive)
REMARK    1  A    between atoms: C15_19  and  O3_3 
REMARK    2  A    between atoms: C17_21  and  O4_4 
REMARK    3  A    between atoms: C4_8  and  C9_13 
ROOT
HETATM    1  O1  UNK     1      19.020  -5.005  36.523  1.00  0.00    -0.308 OA
HETATM    2  O2  UNK     1      22.624  -5.521  38.351  1.00  0.00    -0.287 OA
HETATM    3  C1  UNK     1      19.495  -6.271  36.753  1.00  0.00     0.096 A 
HETATM    4  C2  UNK     1      20.718  -6.519  37.374  1.00  0.00     0.049 A 
HETATM    5  C3  UNK     1      18.697  -7.336  36.334  1.00  0.00    -0.027 A 
HETATM    6  C4  UNK     1      19.789  -3.927  36.934  1.00  0.00     0.090 A 
HETATM    7  C5  UNK     1      20.352  -8.893  37.162  1.00  0.00    -0.060 A 
HETATM    8  C6  UNK     1      21.152  -7.831  37.582  1.00  0.00     0.025 A 
HETATM    9  C7  UNK     1      19.127  -8.648  36.540  1.00  0.00     0.016 A 
HETATM   10  C8  UNK     1      21.540  -5.377  37.803  1.00  0.00     0.187 A 
HETATM   11  C10 UNK     1      20.983  -4.035  37.535  1.00  0.00     0.093 A 
HETATM   12  C11 UNK     1      17.383  -7.101  35.666  1.00  0.00     0.051 C 
HETATM   13  C12 UNK     1      20.806 -10.298  37.379  1.00  0.00     0.048 C 
ENDROOT
BRANCH   6  14
HETATM   14  C9  UNK     1      19.188  -2.612  36.632  1.00  0.00     0.001 A 
HETATM   15  C13 UNK     1      19.329  -2.051  35.360  1.00  0.00     0.054 A 
HETATM   16  C15 UNK     1      18.760  -0.810  35.075  1.00  0.00     0.102 A 
HETATM   17  C17 UNK     1      18.048  -0.125  36.060  1.00  0.00     0.099 A 
HETATM   18  C16 UNK     1      17.905  -0.683  37.330  1.00  0.00     0.040 A 
HETATM   19  C14 UNK     1      18.473  -1.924  37.616  1.00  0.00     0.017 A 
BRANCH  16  20
HETATM   20  O3  UNK     1      18.908  -0.275  33.830  1.00  0.00    -0.353 OA
HETATM   21  C18 UNK     1      18.846  -1.174  32.726  1.00  0.00     0.210 C 
ENDBRANCH  16  20
BRANCH  17  22
HETATM   22  O4  UNK     1      17.489   1.087  35.793  1.00  0.00    -0.358 OA
HETATM   23  H13 UNK     1      16.694   0.956  35.248  1.00  0.00     0.217 HD
ENDBRANCH  17  22
ENDBRANCH   6  14
TORSDOF 3
ENDMDL
MODEL 4
REMARK VINA RESULT:      -8.2      1.235      1.553
REMARK  3 active torsions:
REMARK  status: ('A' for Active; 'I' for Inactive)
REMARK    1  A    between atoms: C15_19  and  O3_3 
REMARK    2  A    between atoms: C17_21  and  O4_4 
REMARK    3  A    between atoms: C4_8  and  C9_13 
ROOT
HETATM    1  O1  UNK     1      17.033   6.246  32.314  1.00  0.00    -0.308 OA
HETATM    2  O2  UNK     1      20.089   8.288  34.070  1.00  0.00    -0.287 OA
HETATM    3  C1  UNK     1      16.820   7.511  32.799  1.00  0.00     0.096 A 
HETATM    4  C2  UNK     1      17.821   8.265  33.410  1.00  0.00     0.049 A 
HETATM    5  C3  UNK     1      15.535   8.037  32.662  1.00  0.00    -0.027 A 
HETATM    6  C4  UNK     1      18.302   5.698  32.431  1.00  0.00     0.090 A 
HETATM    7  C5  UNK     1      16.261  10.073  33.747  1.00  0.00    -0.060 A 
HETATM    8  C6  UNK     1      17.546   9.550  33.886  1.00  0.00     0.025 A 
HETATM    9  C7  UNK     1      15.257   9.320  33.136  1.00  0.00     0.016 A 
HETATM   10  C8  UNK     1      19.165   7.684  33.543  1.00  0.00     0.187 A 
HETATM   11  C10 UNK     1      19.344   6.321  33.004  1.00  0.00     0.093 A 
HETATM   12  C11 UNK     1      14.444   7.252  32.012  1.00  0.00     0.051 C 
HETATM   13  C12 UNK     1      15.957  11.443  34.252  1.00  0.00     0.048 C 
ENDROOT
BRANCH   6  14
HETATM   14  C9  UNK     1      18.419   4.332  31.883  1.00  0.00     0.001 A 
HETATM   15  C13 UNK     1      18.238   3.224  32.716  1.00  0.00     0.054 A 
HETATM   16  C15 UNK     1      18.348   1.934  32.198  1.00  0.00     0.102 A 
HETATM   17  C17 UNK     1      18.637   1.746  30.846  1.00  0.00     0.099 A 
HETATM   18  C16 UNK     1      18.817   2.850  30.013  1.00  0.00     0.040 A 
HETATM   19  C14 UNK     1      18.708   4.141  30.530  1.00  0.00     0.017 A 
BRANCH  16  20
HETATM   20  O3  UNK     1      18.171   0.863  33.023  1.00  0.00    -0.353 OA
HETATM   21  C18 UNK     1      18.021   1.134  34.414  1.00  0.00     0.210 C 
ENDBRANCH  16  20
BRANCH  17  22
HETATM   22  O4  UNK     1      18.747   0.491  30.330  1.00  0.00    -0.358 OA
HETATM   23  H13 UNK     1      19.444   0.488  29.651  1.00  0.00     0.217 HD
ENDBRANCH  17  22
ENDBRANCH   6  14
TORSDOF 3
ENDMDL
MODEL 5
REMARK VINA RESULT:      -8.2      2.995      5.008
REMARK  3 active torsions:
REMARK  status: ('A' for Active; 'I' for Inactive)
REMARK    1  A    between atoms: C15_19  and  O3_3 
REMARK    2  A    between atoms: C17_21  and  O4_4 
REMARK    3  A    between atoms: C4_8  and  C9_13 
ROOT
HETATM    1  O1  UNK     1      18.536   3.935  31.099  1.00  0.00    -0.308 OA
HETATM    2  O2  UNK     1      18.165   2.817  34.998  1.00  0.00    -0.287 OA
HETATM    3  C1  UNK     1      18.386   4.889  32.072  1.00  0.00     0.096 A 
HETATM    4  C2  UNK     1      18.255   4.576  33.425  1.00  0.00     0.049 A 
HETATM    5  C3  UNK     1      18.366   6.222  31.660  1.00  0.00    -0.027 A 
HETATM    6  C4  UNK     1      18.565   2.602  31.480  1.00  0.00     0.090 A 
HETATM    7  C5  UNK     1      18.086   6.922  33.958  1.00  0.00    -0.060 A 
HETATM    8  C6  UNK     1      18.105   5.591  34.373  1.00  0.00     0.025 A 
HETATM    9  C7  UNK     1      18.217   7.238  32.605  1.00  0.00     0.016 A 
HETATM   10  C8  UNK     1      18.277   3.163  33.831  1.00  0.00     0.187 A 
HETATM   11  C10 UNK     1      18.443   2.175  32.746  1.00  0.00     0.093 A 
HETATM   12  C11 UNK     1      18.505   6.587  30.219  1.00  0.00     0.051 C 
HETATM   13  C12 UNK     1      17.925   8.013  34.963  1.00  0.00     0.048 C 
ENDROOT
BRANCH   6  14
HETATM   14  C9  UNK     1      18.723   1.660  30.353  1.00  0.00     0.001 A 
HETATM   15  C13 UNK     1      19.665   0.630  30.427  1.00  0.00     0.054 A 
HETATM   16  C15 UNK     1      19.813  -0.260  29.363  1.00  0.00     0.102 A 
HETATM   17  C17 UNK     1      19.021  -0.125  28.223  1.00  0.00     0.099 A 
HETATM   18  C16 UNK     1      18.079   0.902  28.148  1.00  0.00     0.040 A 
HETATM   19  C14 UNK     1      17.930   1.792  29.211  1.00  0.00     0.017 A 
BRANCH  16  20
HETATM   20  O3  UNK     1      20.738  -1.258  29.448  1.00  0.00    -0.353 OA
HETATM   21  C18 UNK     1      20.437  -2.348  30.316  1.00  0.00     0.210 C 
ENDBRANCH  16  20
BRANCH  17  22
HETATM   22  O4  UNK     1      19.158  -0.988  27.179  1.00  0.00    -0.358 OA
HETATM   23  H13 UNK     1      18.401  -1.599  27.173  1.00  0.00     0.217 HD
ENDBRANCH  17  22
ENDBRANCH   6  14
TORSDOF 3
ENDMDL
MODEL 6
REMARK VINA RESULT:      -8.1     14.025     18.870
REMARK  3 active torsions:
REMARK  status: ('A' for Active; 'I' for Inactive)
REMARK    1  A    between atoms: C15_19  and  O3_3 
REMARK    2  A    between atoms: C17_21  and  O4_4 
REMARK    3  A    between atoms: C4_8  and  C9_13 
ROOT
HETATM    1  O1  UNK     1      20.435  -1.933  17.722  1.00  0.00    -0.308 OA
HETATM    2  O2  UNK     1      17.434  -2.368  15.001  1.00  0.00    -0.287 OA
HETATM    3  C1  UNK     1      20.519  -2.908  16.761  1.00  0.00     0.096 A 
HETATM    4  C2  UNK     1      19.530  -3.110  15.799  1.00  0.00     0.049 A 
HETATM    5  C3  UNK     1      21.656  -3.717  16.772  1.00  0.00    -0.027 A 
HETATM    6  C4  UNK     1      19.318  -1.111  17.732  1.00  0.00     0.090 A 
HETATM    7  C5  UNK     1      20.807  -4.926  14.857  1.00  0.00    -0.060 A 
HETATM    8  C6  UNK     1      19.669  -4.119  14.843  1.00  0.00     0.025 A 
HETATM    9  C7  UNK     1      21.799  -4.726  15.819  1.00  0.00     0.016 A 
HETATM   10  C8  UNK     1      18.341  -2.244  15.812  1.00  0.00     0.187 A 
HETATM   11  C10 UNK     1      18.298  -1.210  16.865  1.00  0.00     0.093 A 
HETATM   12  C11 UNK     1      22.731  -3.523  17.790  1.00  0.00     0.051 C 
HETATM   13  C12 UNK     1      20.965  -6.007  13.842  1.00  0.00     0.048 C 
ENDROOT
BRANCH   6  14
HETATM   14  C9  UNK     1      19.326  -0.102  18.811  1.00  0.00     0.001 A 
HETATM   15  C13 UNK     1      19.338   1.259  18.498  1.00  0.00     0.054 A 
HETATM   16  C15 UNK     1      19.344   2.212  19.518  1.00  0.00     0.102 A 
HETATM   17  C17 UNK     1      19.338   1.806  20.853  1.00  0.00     0.099 A 
HETATM   18  C16 UNK     1      19.325   0.447  21.167  1.00  0.00     0.040 A 
HETATM   19  C14 UNK     1      19.319  -0.506  20.148  1.00  0.00     0.017 A 
BRANCH  16  20
HETATM   20  O3  UNK     1      19.358   3.537  19.198  1.00  0.00    -0.353 OA
HETATM   21  C18 UNK     1      20.486   4.016  18.470  1.00  0.00     0.210 C 
ENDBRANCH  16  20
BRANCH  17  22
HETATM   22  O4  UNK     1      19.345   2.727  21.856  1.00  0.00    -0.358 OA
HETATM   23  H13 UNK     1      18.433   3.024  22.018  1.00  0.00     0.217 HD
ENDBRANCH  17  22
ENDBRANCH   6  14
TORSDOF 3
ENDMDL
MODEL 7
REMARK VINA RESULT:      -8.0     15.167     19.649
REMARK  3 active torsions:
REMARK  status: ('A' for Active; 'I' for Inactive)
REMARK    1  A    between atoms: C15_19  and  O3_3 
REMARK    2  A    between atoms: C17_21  and  O4_4 
REMARK    3  A    between atoms: C4_8  and  C9_13 
ROOT
HETATM    1  O1  UNK     1      19.448  -0.856  15.233  1.00  0.00    -0.308 OA
HETATM    2  O2  UNK     1      16.762  -3.525  16.737  1.00  0.00    -0.287 OA
HETATM    3  C1  UNK     1      19.253  -2.059  14.603  1.00  0.00     0.096 A 
HETATM    4  C2  UNK     1      18.349  -3.016  15.062  1.00  0.00     0.049 A 
HETATM    5  C3  UNK     1      20.007  -2.306  13.455  1.00  0.00    -0.027 A 
HETATM    6  C4  UNK     1      18.709  -0.581  16.373  1.00  0.00     0.090 A 
HETATM    7  C5  UNK     1      18.946  -4.468  13.232  1.00  0.00    -0.060 A 
HETATM    8  C6  UNK     1      18.191  -4.224  14.379  1.00  0.00     0.025 A 
HETATM    9  C7  UNK     1      19.852  -3.512  12.770  1.00  0.00     0.016 A 
HETATM   10  C8  UNK     1      17.569  -2.730  16.276  1.00  0.00     0.187 A 
HETATM   11  C10 UNK     1      17.815  -1.422  16.916  1.00  0.00     0.093 A 
HETATM   12  C11 UNK     1      20.981  -1.300  12.940  1.00  0.00     0.051 C 
HETATM   13  C12 UNK     1      18.786  -5.756  12.496  1.00  0.00     0.048 C 
ENDROOT
BRANCH   6  14
HETATM   14  C9  UNK     1      19.002   0.736  16.975  1.00  0.00     0.001 A 
HETATM   15  C13 UNK     1      18.914   0.911  18.358  1.00  0.00     0.054 A 
HETATM   16  C15 UNK     1      19.193   2.154  18.926  1.00  0.00     0.102 A 
HETATM   17  C17 UNK     1      19.561   3.226  18.113  1.00  0.00     0.099 A 
HETATM   18  C16 UNK     1      19.650   3.054  16.732  1.00  0.00     0.040 A 
HETATM   19  C14 UNK     1      19.372   1.811  16.163  1.00  0.00     0.017 A 
BRANCH  16  20
HETATM   20  O3  UNK     1      19.100   2.310  20.277  1.00  0.00    -0.353 OA
HETATM   21  C18 UNK     1      19.597   1.248  21.088  1.00  0.00     0.210 C 
ENDBRANCH  16  20
BRANCH  17  22
HETATM   22  O4  UNK     1      19.834   4.445  18.656  1.00  0.00    -0.358 OA
HETATM   23  H13 UNK     1      19.062   4.743  19.168  1.00  0.00     0.217 HD
ENDBRANCH  17  22
ENDBRANCH   6  14
TORSDOF 3
ENDMDL
MODEL 8
REMARK VINA RESULT:      -8.0      1.420      2.755
REMARK  3 active torsions:
REMARK  status: ('A' for Active; 'I' for Inactive)
REMARK    1  A    between atoms: C15_19  and  O3_3 
REMARK    2  A    between atoms: C17_21  and  O4_4 
REMARK    3  A    between atoms: C4_8  and  C9_13 
ROOT
HETATM    1  O1  UNK     1      18.372   8.215  32.999  1.00  0.00    -0.308 OA
HETATM    2  O2  UNK     1      14.474   9.382  32.801  1.00  0.00    -0.287 OA
HETATM    3  C1  UNK     1      17.984   9.402  33.566  1.00  0.00     0.096 A 
HETATM    4  C2  UNK     1      16.668   9.860  33.536  1.00  0.00     0.049 A 
HETATM    5  C3  UNK     1      18.973  10.162  34.192  1.00  0.00    -0.027 A 
HETATM    6  C4  UNK     1      17.410   7.435  32.375  1.00  0.00     0.090 A 
HETATM    7  C5  UNK     1      17.321  11.836  34.755  1.00  0.00    -0.060 A 
HETATM    8  C6  UNK     1      16.330  11.078  34.131  1.00  0.00     0.025 A 
HETATM    9  C7  UNK     1      18.639  11.379  34.787  1.00  0.00     0.016 A 
HETATM   10  C8  UNK     1      15.646   9.039  32.867  1.00  0.00     0.187 A 
HETATM   11  C10 UNK     1      16.114   7.770  32.275  1.00  0.00     0.093 A 
HETATM   12  C11 UNK     1      20.390   9.696  34.240  1.00  0.00     0.051 C 
HETATM   13  C12 UNK     1      16.971  13.138  35.392  1.00  0.00     0.048 C 
ENDROOT
BRANCH   6  14
HETATM   14  C9  UNK     1      17.936   6.184  31.794  1.00  0.00     0.001 A 
HETATM   15  C13 UNK     1      17.617   4.953  32.372  1.00  0.00     0.054 A 
HETATM   16  C15 UNK     1      18.113   3.771  31.822  1.00  0.00     0.102 A 
HETATM   17  C17 UNK     1      18.930   3.816  30.692  1.00  0.00     0.099 A 
HETATM   18  C16 UNK     1      19.250   5.043  30.113  1.00  0.00     0.040 A 
HETATM   19  C14 UNK     1      18.754   6.225  30.662  1.00  0.00     0.017 A 
BRANCH  16  20
HETATM   20  O3  UNK     1      17.795   2.577  32.399  1.00  0.00    -0.353 OA
HETATM   21  C18 UNK     1      18.136   2.410  33.773  1.00  0.00     0.210 C 
ENDBRANCH  16  20
BRANCH  17  22
HETATM   22  O4  UNK     1      19.421   2.668  30.148  1.00  0.00    -0.358 OA
HETATM   23  H13 UNK     1      18.720   2.240  29.628  1.00  0.00     0.217 HD
ENDBRANCH  17  22
ENDBRANCH   6  14
TORSDOF 3
ENDMDL
MODEL 9
REMARK VINA RESULT:      -7.9      1.913      3.344
REMARK  3 active torsions:
REMARK  status: ('A' for Active; 'I' for Inactive)
REMARK    1  A    between atoms: C15_19  and  O3_3 
REMARK    2  A    between atoms: C17_21  and  O4_4 
REMARK    3  A    between atoms: C4_8  and  C9_13 
ROOT
HETATM    1  O1  UNK     1      17.585   9.199  33.530  1.00  0.00    -0.308 OA
HETATM    2  O2  UNK     1      14.025   7.293  34.072  1.00  0.00    -0.287 OA
HETATM    3  C1  UNK     1      16.511   9.887  34.034  1.00  0.00     0.096 A 
HETATM    4  C2  UNK     1      15.265   9.296  34.246  1.00  0.00     0.049 A 
HETATM    5  C3  UNK     1      16.703  11.235  34.338  1.00  0.00    -0.027 A 
HETATM    6  C4  UNK     1      17.424   7.856  33.224  1.00  0.00     0.090 A 
HETATM    7  C5  UNK     1      14.402  11.394  35.066  1.00  0.00    -0.060 A 
HETATM    8  C6  UNK     1      14.206  10.046  34.763  1.00  0.00     0.025 A 
HETATM    9  C7  UNK     1      15.648  11.988  34.855  1.00  0.00     0.016 A 
HETATM   10  C8  UNK     1      15.090   7.874  33.915  1.00  0.00     0.187 A 
HETATM   11  C10 UNK     1      16.276   7.178  33.377  1.00  0.00     0.093 A 
HETATM   12  C11 UNK     1      18.025  11.894  34.122  1.00  0.00     0.051 C 
HETATM   13  C12 UNK     1      13.278  12.204  35.618  1.00  0.00     0.048 C 
ENDROOT
BRANCH   6  14
HETATM   14  C9  UNK     1      18.639   7.215  32.681  1.00  0.00     0.001 A 
HETATM   15  C13 UNK     1      18.578   6.495  31.486  1.00  0.00     0.054 A 
HETATM   16  C15 UNK     1      19.727   5.891  30.973  1.00  0.00     0.102 A 
HETATM   17  C17 UNK     1      20.939   6.005  31.654  1.00  0.00     0.099 A 
HETATM   18  C16 UNK     1      21.002   6.724  32.848  1.00  0.00     0.040 A 
HETATM   19  C14 UNK     1      19.855   7.329  33.361  1.00  0.00     0.017 A 
BRANCH  16  20
HETATM   20  O3  UNK     1      19.652   5.190  29.807  1.00  0.00    -0.353 OA
HETATM   21  C18 UNK     1      18.903   3.977  29.827  1.00  0.00     0.210 C 
ENDBRANCH  16  20
BRANCH  17  22
HETATM   22  O4  UNK     1      22.066   5.419  31.164  1.00  0.00    -0.358 OA
HETATM   23  H13 UNK     1      22.692   5.278  31.894  1.00  0.00     0.217 HD
ENDBRANCH  17  22
ENDBRANCH   6  14
TORSDOF 3
ENDMDL
MODEL 10
REMARK VINA RESULT:      -7.8      1.833      7.580
REMARK  3 active torsions:
REMARK  status: ('A' for Active; 'I' for Inactive)
REMARK    1  A    between atoms: C15_19  and  O3_3 
REMARK    2  A    between atoms: C17_21  and  O4_4 
REMARK    3  A    between atoms: C4_8  and  C9_13 
ROOT
HETATM    1  O1  UNK     1      17.974   3.535  33.411  1.00  0.00    -0.308 OA
HETATM    2  O2  UNK     1      18.998   2.908  29.518  1.00  0.00    -0.287 OA
HETATM    3  C1  UNK     1      18.316   2.276  32.988  1.00  0.00     0.096 A 
HETATM    4  C2  UNK     1      18.677   1.991  31.671  1.00  0.00     0.049 A 
HETATM    5  C3  UNK     1      18.289   1.255  33.939  1.00  0.00    -0.027 A 
HETATM    6  C4  UNK     1      17.997   4.570  32.488  1.00  0.00     0.090 A 
HETATM    7  C5  UNK     1      18.989  -0.329  32.251  1.00  0.00    -0.060 A 
HETATM    8  C6  UNK     1      19.016   0.689  31.297  1.00  0.00     0.025 A 
HETATM    9  C7  UNK     1      18.627  -0.047  33.569  1.00  0.00     0.016 A 
HETATM   10  C8  UNK     1      18.694   3.086  30.689  1.00  0.00     0.187 A 
HETATM   11  C10 UNK     1      18.321   4.422  31.194  1.00  0.00     0.093 A 
HETATM   12  C11 UNK     1      17.906   1.530  35.355  1.00  0.00     0.051 C 
HETATM   13  C12 UNK     1      19.347  -1.724  31.861  1.00  0.00     0.048 C 
ENDROOT
BRANCH   6  14
HETATM   14  C9  UNK     1      17.606   5.880  33.047  1.00  0.00     0.001 A 
HETATM   15  C13 UNK     1      16.387   6.460  32.688  1.00  0.00     0.054 A 
HETATM   16  C15 UNK     1      16.017   7.697  33.217  1.00  0.00     0.102 A 
HETATM   17  C17 UNK     1      16.865   8.357  34.106  1.00  0.00     0.099 A 
HETATM   18  C16 UNK     1      18.083   7.780  34.466  1.00  0.00     0.040 A 
HETATM   19  C14 UNK     1      18.453   6.543  33.938  1.00  0.00     0.017 A 
BRANCH  16  20
HETATM   20  O3  UNK     1      14.826   8.252  32.856  1.00  0.00    -0.353 OA
HETATM   21  C18 UNK     1      13.819   7.366  32.372  1.00  0.00     0.210 C 
ENDBRANCH  16  20
BRANCH  17  22
HETATM   22  O4  UNK     1      16.515   9.566  34.628  1.00  0.00    -0.358 OA
HETATM   23  H13 UNK     1      15.605   9.775  34.358  1.00  0.00     0.217 HD
ENDBRANCH  17  22
ENDBRANCH   6  14
TORSDOF 3
ENDMDL
