MODEL 1
REMARK VINA RESULT:      -8.4      0.000      0.000
REMARK  3 active torsions:
REMARK  status: ('A' for Active; 'I' for Inactive)
REMARK    1  A    between atoms: C7_11  and  O2_2 
REMARK    2  A    between atoms: C11_15  and  O4_4 
REMARK    3  A    between atoms: C1_5  and  C6_10 
ROOT
HETATM    1  O1  UNK     1      19.866  -1.536  33.643  1.00  0.00    -0.340 OA
HETATM    2  O3  UNK     1      17.100   1.130  35.083  1.00  0.00    -0.292 OA
HETATM    3  C1  UNK     1      18.899  -0.936  32.766  1.00  0.00     0.169 C 
HETATM    4  C2  UNK     1      18.503   0.455  33.258  1.00  0.00     0.121 C 
HETATM    5  C3  UNK     1      18.482  -0.741  35.487  1.00  0.00     0.077 A 
HETATM    6  C4  UNK     1      17.930   0.341  34.646  1.00  0.00     0.167 C 
HETATM    7  C5  UNK     1      19.436  -1.606  34.944  1.00  0.00     0.089 A 
HETATM    8  C7  UNK     1      18.087  -0.874  36.821  1.00  0.00     0.087 A 
HETATM    9  C8  UNK     1      20.022  -2.585  35.746  1.00  0.00     0.074 A 
HETATM   10  C11 UNK     1      19.631  -2.718  37.080  1.00  0.00     0.073 A 
HETATM   11  C12 UNK     1      18.663  -1.868  37.614  1.00  0.00     0.074 A 
ENDROOT
BRANCH   3  12
HETATM   12  C6  UNK     1      19.489  -0.876  31.374  1.00  0.00    -0.029 A 
HETATM   13  C10 UNK     1      20.078  -2.011  30.817  1.00  0.00     0.010 A 
HETATM   14  C14 UNK     1      20.622  -1.954  29.533  1.00  0.00     0.001 A 
HETATM   15  C15 UNK     1      20.576  -0.764  28.807  1.00  0.00     0.000 A 
HETATM   16  C13 UNK     1      19.986   0.371  29.365  1.00  0.00     0.001 A 
HETATM   17  C9  UNK     1      19.443   0.315  30.648  1.00  0.00     0.010 A 
ENDBRANCH   3  12
BRANCH   8  18
HETATM   18  O2  UNK     1      17.160  -0.060  37.399  1.00  0.00    -0.355 OA
HETATM   19  C16 UNK     1      17.643   0.939  38.294  1.00  0.00     0.210 C 
ENDBRANCH   8  18
BRANCH  10  20
HETATM   20  O4  UNK     1      20.195  -3.681  37.860  1.00  0.00    -0.356 OA
HETATM   21  C17 UNK     1      20.572  -4.898  37.217  1.00  0.00     0.210 C 
ENDBRANCH  10  20
TORSDOF 3
ENDMDL
MODEL 2
REMARK VINA RESULT:      -7.8      1.487      3.694
REMARK  3 active torsions:
REMARK  status: ('A' for Active; 'I' for Inactive)
REMARK    1  A    between atoms: C7_11  and  O2_2 
REMARK    2  A    between atoms: C11_15  and  O4_4 
REMARK    3  A    between atoms: C1_5  and  C6_10 
ROOT
HETATM    1  O1  UNK     1      18.334   0.078  33.144  1.00  0.00    -0.340 OA
HETATM    2  O3  UNK     1      20.867  -3.149  33.167  1.00  0.00    -0.292 OA
HETATM    3  C1  UNK     1      19.398  -0.026  32.185  1.00  0.00     0.169 C 
HETATM    4  C2  UNK     1      19.714  -1.489  31.875  1.00  0.00     0.121 C 
HETATM    5  C3  UNK     1      19.465  -1.691  34.385  1.00  0.00     0.077 A 
HETATM    6  C4  UNK     1      20.107  -2.187  33.150  1.00  0.00     0.167 C 
HETATM    7  C5  UNK     1      18.596  -0.599  34.308  1.00  0.00     0.089 A 
HETATM    8  C7  UNK     1      19.688  -2.331  35.607  1.00  0.00     0.087 A 
HETATM    9  C8  UNK     1      17.922  -0.166  35.451  1.00  0.00     0.074 A 
HETATM   10  C11 UNK     1      18.143  -0.805  36.673  1.00  0.00     0.073 A 
HETATM   11  C12 UNK     1      19.027  -1.881  36.750  1.00  0.00     0.074 A 
ENDROOT
BRANCH   3  12
HETATM   12  C6  UNK     1      18.989   0.721  30.934  1.00  0.00    -0.029 A 
HETATM   13  C10 UNK     1      18.503   2.025  31.028  1.00  0.00     0.010 A 
HETATM   14  C14 UNK     1      18.126   2.713  29.874  1.00  0.00     0.001 A 
HETATM   15  C15 UNK     1      18.235   2.097  28.627  1.00  0.00     0.000 A 
HETATM   16  C13 UNK     1      18.720   0.793  28.534  1.00  0.00     0.001 A 
HETATM   17  C9  UNK     1      19.097   0.105  29.687  1.00  0.00     0.010 A 
ENDBRANCH   3  12
BRANCH   8  18
HETATM   18  O2  UNK     1      20.527  -3.397  35.737  1.00  0.00    -0.355 OA
HETATM   19  C16 UNK     1      20.038  -4.520  36.468  1.00  0.00     0.210 C 
ENDBRANCH   8  18
BRANCH  10  20
HETATM   20  O4  UNK     1      17.494  -0.376  37.789  1.00  0.00    -0.356 OA
HETATM   21  C17 UNK     1      17.516   1.026  38.054  1.00  0.00     0.210 C 
ENDBRANCH  10  20
TORSDOF 3
ENDMDL
MODEL 3
REMARK VINA RESULT:      -7.8      4.420      6.472
REMARK  3 active torsions:
REMARK  status: ('A' for Active; 'I' for Inactive)
REMARK    1  A    between atoms: C7_11  and  O2_2 
REMARK    2  A    between atoms: C11_15  and  O4_4 
REMARK    3  A    between atoms: C1_5  and  C6_10 
ROOT
HETATM    1  O1  UNK     1      18.193   4.076  34.387  1.00  0.00    -0.340 OA
HETATM    2  O3  UNK     1      18.284   2.069  30.809  1.00  0.00    -0.292 OA
HETATM    3  C1  UNK     1      18.742   4.694  33.212  1.00  0.00     0.169 C 
HETATM    4  C2  UNK     1      18.062   4.169  31.948  1.00  0.00     0.121 C 
HETATM    5  C3  UNK     1      18.322   1.968  33.168  1.00  0.00     0.077 A 
HETATM    6  C4  UNK     1      18.251   2.676  31.873  1.00  0.00     0.167 C 
HETATM    7  C5  UNK     1      18.266   2.707  34.353  1.00  0.00     0.089 A 
HETATM    8  C7  UNK     1      18.400   0.573  33.209  1.00  0.00     0.087 A 
HETATM    9  C8  UNK     1      18.255   2.048  35.583  1.00  0.00     0.074 A 
HETATM   10  C11 UNK     1      18.331   0.655  35.627  1.00  0.00     0.073 A 
HETATM   11  C12 UNK     1      18.408  -0.080  34.443  1.00  0.00     0.074 A 
ENDROOT
BRANCH   3  12
HETATM   12  C6  UNK     1      18.575   6.194  33.338  1.00  0.00    -0.029 A 
HETATM   13  C10 UNK     1      19.460   6.930  34.126  1.00  0.00     0.010 A 
HETATM   14  C14 UNK     1      19.305   8.312  34.242  1.00  0.00     0.001 A 
HETATM   15  C15 UNK     1      18.267   8.957  33.570  1.00  0.00     0.000 A 
HETATM   16  C13 UNK     1      17.383   8.220  32.782  1.00  0.00     0.001 A 
HETATM   17  C9  UNK     1      17.536   6.839  32.667  1.00  0.00     0.010 A 
ENDBRANCH   3  12
BRANCH   8  18
HETATM   18  O2  UNK     1      18.460  -0.194  32.086  1.00  0.00    -0.355 OA
HETATM   19  C16 UNK     1      19.293  -1.351  32.135  1.00  0.00     0.210 C 
ENDBRANCH   8  18
BRANCH  10  20
HETATM   20  O4  UNK     1      18.331   0.013  36.826  1.00  0.00    -0.356 OA
HETATM   21  C17 UNK     1      17.637   0.645  37.900  1.00  0.00     0.210 C 
ENDBRANCH  10  20
TORSDOF 3
ENDMDL
MODEL 4
REMARK VINA RESULT:      -7.7      3.152      7.270
REMARK  3 active torsions:
REMARK  status: ('A' for Active; 'I' for Inactive)
REMARK    1  A    between atoms: C7_11  and  O2_2 
REMARK    2  A    between atoms: C11_15  and  O4_4 
REMARK    3  A    between atoms: C1_5  and  C6_10 
ROOT
HETATM    1  O1  UNK     1      18.223   1.223  33.167  1.00  0.00    -0.340 OA
HETATM    2  O3  UNK     1      18.217   5.326  33.183  1.00  0.00    -0.292 OA
HETATM    3  C1  UNK     1      18.622   1.953  34.337  1.00  0.00     0.169 C 
HETATM    4  C2  UNK     1      17.897   3.296  34.420  1.00  0.00     0.121 C 
HETATM    5  C3  UNK     1      18.446   3.325  31.950  1.00  0.00     0.077 A 
HETATM    6  C4  UNK     1      18.212   4.101  33.186  1.00  0.00     0.167 C 
HETATM    7  C5  UNK     1      18.416   1.929  32.006  1.00  0.00     0.089 A 
HETATM    8  C7  UNK     1      18.651   3.978  30.732  1.00  0.00     0.087 A 
HETATM    9  C8  UNK     1      18.559   1.184  30.835  1.00  0.00     0.074 A 
HETATM   10  C11 UNK     1      18.763   1.834  29.617  1.00  0.00     0.073 A 
HETATM   11  C12 UNK     1      18.813   3.227  29.567  1.00  0.00     0.074 A 
ENDROOT
BRANCH   3  12
HETATM   12  C6  UNK     1      18.332   1.101  35.555  1.00  0.00    -0.029 A 
HETATM   13  C10 UNK     1      17.837   1.693  36.717  1.00  0.00     0.010 A 
HETATM   14  C14 UNK     1      17.571   0.906  37.839  1.00  0.00     0.001 A 
HETATM   15  C15 UNK     1      17.797  -0.469  37.797  1.00  0.00     0.000 A 
HETATM   16  C13 UNK     1      18.291  -1.059  36.635  1.00  0.00     0.001 A 
HETATM   17  C9  UNK     1      18.559  -0.274  35.514  1.00  0.00     0.010 A 
ENDBRANCH   3  12
BRANCH   8  18
HETATM   18  O2  UNK     1      18.693   5.336  30.622  1.00  0.00    -0.355 OA
HETATM   19  C16 UNK     1      19.874   5.904  30.060  1.00  0.00     0.210 C 
ENDBRANCH   8  18
BRANCH  10  20
HETATM   20  O4  UNK     1      18.913   1.107  28.477  1.00  0.00    -0.356 OA
HETATM   21  C17 UNK     1      19.572  -0.154  28.593  1.00  0.00     0.210 C 
ENDBRANCH  10  20
TORSDOF 3
ENDMDL
MODEL 5
REMARK VINA RESULT:      -7.6      3.846      6.177
REMARK  3 active torsions:
REMARK  status: ('A' for Active; 'I' for Inactive)
REMARK    1  A    between atoms: C7_11  and  O2_2 
REMARK    2  A    between atoms: C11_15  and  O4_4 
REMARK    3  A    between atoms: C1_5  and  C6_10 
ROOT
HETATM    1  O1  UNK     1      17.930   2.860  32.939  1.00  0.00    -0.340 OA
HETATM    2  O3  UNK     1      19.417   1.220  29.484  1.00  0.00    -0.292 OA
HETATM    3  C1  UNK     1      18.630   3.672  31.982  1.00  0.00     0.169 C 
HETATM    4  C2  UNK     1      18.448   3.129  30.565  1.00  0.00     0.121 C 
HETATM    5  C3  UNK     1      18.837   0.930  31.755  1.00  0.00     0.077 A 
HETATM    6  C4  UNK     1      18.967   1.716  30.510  1.00  0.00     0.167 C 
HETATM    7  C5  UNK     1      18.304   1.541  32.894  1.00  0.00     0.089 A 
HETATM    8  C7  UNK     1      19.200  -0.419  31.782  1.00  0.00     0.087 A 
HETATM    9  C8  UNK     1      18.104   0.792  34.054  1.00  0.00     0.074 A 
HETATM   10  C11 UNK     1      18.465  -0.556  34.083  1.00  0.00     0.073 A 
HETATM   11  C12 UNK     1      19.016  -1.158  32.951  1.00  0.00     0.074 A 
ENDROOT
BRANCH   3  12
HETATM   12  C6  UNK     1      18.115   5.091  32.093  1.00  0.00    -0.029 A 
HETATM   13  C10 UNK     1      18.190   5.947  30.994  1.00  0.00     0.010 A 
HETATM   14  C14 UNK     1      17.716   7.256  31.096  1.00  0.00     0.001 A 
HETATM   15  C15 UNK     1      17.167   7.707  32.296  1.00  0.00     0.000 A 
HETATM   16  C13 UNK     1      17.093   6.851  33.395  1.00  0.00     0.001 A 
HETATM   17  C9  UNK     1      17.567   5.543  33.293  1.00  0.00     0.010 A 
ENDBRANCH   3  12
BRANCH   8  18
HETATM   18  O2  UNK     1      19.726  -1.062  30.702  1.00  0.00    -0.355 OA
HETATM   19  C16 UNK     1      20.489  -2.239  30.958  1.00  0.00     0.210 C 
ENDBRANCH   8  18
BRANCH  10  20
HETATM   20  O4  UNK     1      18.279  -1.284  35.218  1.00  0.00    -0.356 OA
HETATM   21  C17 UNK     1      17.187  -0.911  36.056  1.00  0.00     0.210 C 
ENDBRANCH  10  20
TORSDOF 3
ENDMDL
MODEL 6
REMARK VINA RESULT:      -7.6      2.422      7.262
REMARK  3 active torsions:
REMARK  status: ('A' for Active; 'I' for Inactive)
REMARK    1  A    between atoms: C7_11  and  O2_2 
REMARK    2  A    between atoms: C11_15  and  O4_4 
REMARK    3  A    between atoms: C1_5  and  C6_10 
ROOT
HETATM    1  O1  UNK     1      18.654   0.743  33.514  1.00  0.00    -0.340 OA
HETATM    2  O3  UNK     1      20.046  -2.046  30.847  1.00  0.00    -0.292 OA
HETATM    3  C1  UNK     1      18.417  -0.658  33.726  1.00  0.00     0.169 C 
HETATM    4  C2  UNK     1      19.542  -1.500  33.128  1.00  0.00     0.121 C 
HETATM    5  C3  UNK     1      19.271   0.151  31.231  1.00  0.00     0.077 A 
HETATM    6  C4  UNK     1      19.636  -1.217  31.652  1.00  0.00     0.167 C 
HETATM    7  C5  UNK     1      18.821   1.062  32.191  1.00  0.00     0.089 A 
HETATM    8  C7  UNK     1      19.414   0.545  29.897  1.00  0.00     0.087 A 
HETATM    9  C8  UNK     1      18.546   2.379  31.823  1.00  0.00     0.074 A 
HETATM   10  C11 UNK     1      18.690   2.775  30.492  1.00  0.00     0.073 A 
HETATM   11  C12 UNK     1      19.118   1.858  29.532  1.00  0.00     0.074 A 
ENDROOT
BRANCH   3  12
HETATM   12  C6  UNK     1      18.285  -0.901  35.215  1.00  0.00    -0.029 A 
HETATM   13  C10 UNK     1      19.072  -1.872  35.834  1.00  0.00     0.010 A 
HETATM   14  C14 UNK     1      18.950  -2.097  37.206  1.00  0.00     0.001 A 
HETATM   15  C15 UNK     1      18.043  -1.349  37.957  1.00  0.00     0.000 A 
HETATM   16  C13 UNK     1      17.257  -0.378  37.337  1.00  0.00     0.001 A 
HETATM   17  C9  UNK     1      17.378  -0.154  35.966  1.00  0.00     0.010 A 
ENDBRANCH   3  12
BRANCH   8  18
HETATM   18  O2  UNK     1      19.845  -0.303  28.922  1.00  0.00    -0.355 OA
HETATM   19  C16 UNK     1      18.960  -0.533  27.827  1.00  0.00     0.210 C 
ENDBRANCH   8  18
BRANCH  10  20
HETATM   20  O4  UNK     1      18.410   4.057  30.132  1.00  0.00    -0.356 OA
HETATM   21  C17 UNK     1      19.421   5.034  30.374  1.00  0.00     0.210 C 
ENDBRANCH  10  20
TORSDOF 3
ENDMDL
MODEL 7
REMARK VINA RESULT:      -7.6     24.771     27.313
REMARK  3 active torsions:
REMARK  status: ('A' for Active; 'I' for Inactive)
REMARK    1  A    between atoms: C7_11  and  O2_2 
REMARK    2  A    between atoms: C11_15  and  O4_4 
REMARK    3  A    between atoms: C1_5  and  C6_10 
ROOT
HETATM    1  O1  UNK     1      11.956   7.682   9.537  1.00  0.00    -0.340 OA
HETATM    2  O3  UNK     1      15.256   5.368   8.769  1.00  0.00    -0.292 OA
HETATM    3  C1  UNK     1      12.156   7.097   8.241  1.00  0.00     0.169 C 
HETATM    4  C2  UNK     1      12.931   5.784   8.347  1.00  0.00     0.121 C 
HETATM    5  C3  UNK     1      14.293   7.148   9.986  1.00  0.00     0.077 A 
HETATM    6  C4  UNK     1      14.264   6.051   8.996  1.00  0.00     0.167 C 
HETATM    7  C5  UNK     1      13.130   7.888  10.217  1.00  0.00     0.089 A 
HETATM    8  C7  UNK     1      15.455   7.415  10.714  1.00  0.00     0.087 A 
HETATM    9  C8  UNK     1      13.119   8.875  11.203  1.00  0.00     0.074 A 
HETATM   10  C11 UNK     1      14.279   9.143  11.932  1.00  0.00     0.073 A 
HETATM   11  C12 UNK     1      15.445   8.417  11.685  1.00  0.00     0.074 A 
ENDROOT
BRANCH   3  12
HETATM   12  C6  UNK     1      10.802   6.881   7.600  1.00  0.00    -0.029 A 
HETATM   13  C10 UNK     1      10.715   6.570   6.243  1.00  0.00     0.010 A 
HETATM   14  C14 UNK     1       9.467   6.372   5.652  1.00  0.00     0.001 A 
HETATM   15  C15 UNK     1       8.307   6.483   6.418  1.00  0.00     0.000 A 
HETATM   16  C13 UNK     1       8.394   6.794   7.774  1.00  0.00     0.001 A 
HETATM   17  C9  UNK     1       9.641   6.993   8.365  1.00  0.00     0.010 A 
ENDBRANCH   3  12
BRANCH   8  18
HETATM   18  O2  UNK     1      16.616   6.726  10.526  1.00  0.00    -0.355 OA
HETATM   19  C16 UNK     1      17.742   7.470  10.065  1.00  0.00     0.210 C 
ENDBRANCH   8  18
BRANCH  10  20
HETATM   20  O4  UNK     1      14.272  10.113  12.886  1.00  0.00    -0.356 OA
HETATM   21  C17 UNK     1      13.010  10.449  13.460  1.00  0.00     0.210 C 
ENDBRANCH  10  20
TORSDOF 3
ENDMDL
MODEL 8
REMARK VINA RESULT:      -7.5      3.343      7.738
REMARK  3 active torsions:
REMARK  status: ('A' for Active; 'I' for Inactive)
REMARK    1  A    between atoms: C7_11  and  O2_2 
REMARK    2  A    between atoms: C11_15  and  O4_4 
REMARK    3  A    between atoms: C1_5  and  C6_10 
ROOT
HETATM    1  O1  UNK     1      18.249   2.618  34.227  1.00  0.00    -0.340 OA
HETATM    2  O3  UNK     1      18.971   0.154  31.027  1.00  0.00    -0.292 OA
HETATM    3  C1  UNK     1      17.806   1.252  34.238  1.00  0.00     0.169 C 
HETATM    4  C2  UNK     1      18.733   0.368  33.404  1.00  0.00     0.121 C 
HETATM    5  C3  UNK     1      18.590   2.342  31.828  1.00  0.00     0.077 A 
HETATM    6  C4  UNK     1      18.761   0.883  31.989  1.00  0.00     0.167 C 
HETATM    7  C5  UNK     1      18.366   3.131  32.960  1.00  0.00     0.089 A 
HETATM    8  C7  UNK     1      18.695   2.933  30.566  1.00  0.00     0.087 A 
HETATM    9  C8  UNK     1      18.279   4.518  32.834  1.00  0.00     0.074 A 
HETATM   10  C11 UNK     1      18.385   5.110  31.575  1.00  0.00     0.073 A 
HETATM   11  C12 UNK     1      18.588   4.319  30.444  1.00  0.00     0.074 A 
ENDROOT
BRANCH   3  12
HETATM   12  C6  UNK     1      17.748   0.779  35.675  1.00  0.00    -0.029 A 
HETATM   13  C10 UNK     1      17.809  -0.585  35.962  1.00  0.00     0.010 A 
HETATM   14  C14 UNK     1      17.755  -1.020  37.287  1.00  0.00     0.001 A 
HETATM   15  C15 UNK     1      17.642  -0.093  38.323  1.00  0.00     0.000 A 
HETATM   16  C13 UNK     1      17.582   1.270  38.034  1.00  0.00     0.001 A 
HETATM   17  C9  UNK     1      17.634   1.706  36.710  1.00  0.00     0.010 A 
ENDBRANCH   3  12
BRANCH   8  18
HETATM   18  O2  UNK     1      18.910   2.211  29.431  1.00  0.00    -0.355 OA
HETATM   19  C16 UNK     1      17.803   2.053  28.545  1.00  0.00     0.210 C 
ENDBRANCH   8  18
BRANCH  10  20
HETATM   20  O4  UNK     1      18.290   6.462  31.451  1.00  0.00    -0.356 OA
HETATM   21  C17 UNK     1      17.039   7.058  31.792  1.00  0.00     0.210 C 
ENDBRANCH  10  20
TORSDOF 3
ENDMDL
MODEL 9
REMARK VINA RESULT:      -7.3     15.068     18.377
REMARK  3 active torsions:
REMARK  status: ('A' for Active; 'I' for Inactive)
REMARK    1  A    between atoms: C7_11  and  O2_2 
REMARK    2  A    between atoms: C11_15  and  O4_4 
REMARK    3  A    between atoms: C1_5  and  C6_10 
ROOT
HETATM    1  O1  UNK     1      20.326  -1.835  17.615  1.00  0.00    -0.340 OA
HETATM    2  O3  UNK     1      17.639  -3.049  14.762  1.00  0.00    -0.292 OA
HETATM    3  C1  UNK     1      19.392  -0.905  17.043  1.00  0.00     0.169 C 
HETATM    4  C2  UNK     1      18.103  -1.611  16.625  1.00  0.00     0.121 C 
HETATM    5  C3  UNK     1      19.754  -3.328  15.773  1.00  0.00     0.077 A 
HETATM    6  C4  UNK     1      18.433  -2.683  15.620  1.00  0.00     0.167 C 
HETATM    7  C5  UNK     1      20.617  -2.882  16.778  1.00  0.00     0.089 A 
HETATM    8  C7  UNK     1      20.119  -4.399  14.954  1.00  0.00     0.087 A 
HETATM    9  C8  UNK     1      21.836  -3.529  16.985  1.00  0.00     0.074 A 
HETATM   10  C11 UNK     1      22.202  -4.601  16.168  1.00  0.00     0.073 A 
HETATM   11  C12 UNK     1      21.348  -5.031  15.152  1.00  0.00     0.074 A 
ENDROOT
BRANCH   3  12
HETATM   12  C6  UNK     1      19.115   0.181  18.060  1.00  0.00    -0.029 A 
HETATM   13  C10 UNK     1      18.871  -0.157  19.391  1.00  0.00     0.010 A 
HETATM   14  C14 UNK     1      18.614   0.845  20.329  1.00  0.00     0.001 A 
HETATM   15  C15 UNK     1      18.602   2.183  19.935  1.00  0.00     0.000 A 
HETATM   16  C13 UNK     1      18.846   2.520  18.604  1.00  0.00     0.001 A 
HETATM   17  C9  UNK     1      19.102   1.519  17.666  1.00  0.00     0.010 A 
ENDBRANCH   3  12
BRANCH   8  18
HETATM   18  O2  UNK     1      19.317  -4.871  13.959  1.00  0.00    -0.355 OA
HETATM   19  C16 UNK     1      19.858  -4.877  12.639  1.00  0.00     0.210 C 
ENDBRANCH   8  18
BRANCH  10  20
HETATM   20  O4  UNK     1      23.395  -5.226  16.363  1.00  0.00    -0.356 OA
HETATM   21  C17 UNK     1      24.309  -4.610  17.269  1.00  0.00     0.210 C 
ENDBRANCH  10  20
TORSDOF 3
ENDMDL
MODEL 10
REMARK VINA RESULT:      -7.3     25.341     28.175
REMARK  3 active torsions:
REMARK  status: ('A' for Active; 'I' for Inactive)
REMARK    1  A    between atoms: C7_11  and  O2_2 
REMARK    2  A    between atoms: C11_15  and  O4_4 
REMARK    3  A    between atoms: C1_5  and  C6_10 
ROOT
HETATM    1  O1  UNK     1      12.866   8.468   8.202  1.00  0.00    -0.340 OA
HETATM    2  O3  UNK     1      14.796   5.922  10.776  1.00  0.00    -0.292 OA
HETATM    3  C1  UNK     1      12.667   7.048   8.117  1.00  0.00     0.169 C 
HETATM    4  C2  UNK     1      12.828   6.389   9.486  1.00  0.00     0.121 C 
HETATM    5  C3  UNK     1      14.798   7.973   9.606  1.00  0.00     0.077 A 
HETATM    6  C4  UNK     1      14.210   6.679  10.011  1.00  0.00     0.167 C 
HETATM    7  C5  UNK     1      14.081   8.806   8.741  1.00  0.00     0.089 A 
HETATM    8  C7  UNK     1      16.034   8.380  10.115  1.00  0.00     0.087 A 
HETATM    9  C8  UNK     1      14.587  10.063   8.410  1.00  0.00     0.074 A 
HETATM   10  C11 UNK     1      15.821  10.473   8.918  1.00  0.00     0.073 A 
HETATM   11  C12 UNK     1      16.544   9.631   9.764  1.00  0.00     0.074 A 
ENDROOT
BRANCH   3  12
HETATM   12  C6  UNK     1      11.288   6.792   7.547  1.00  0.00    -0.029 A 
HETATM   13  C10 UNK     1      10.161   6.936   8.358  1.00  0.00     0.010 A 
HETATM   14  C14 UNK     1       8.891   6.699   7.832  1.00  0.00     0.001 A 
HETATM   15  C15 UNK     1       8.747   6.319   6.498  1.00  0.00     0.000 A 
HETATM   16  C13 UNK     1       9.873   6.174   5.689  1.00  0.00     0.001 A 
HETATM   17  C9  UNK     1      11.144   6.410   6.214  1.00  0.00     0.010 A 
ENDBRANCH   3  12
BRANCH   8  18
HETATM   18  O2  UNK     1      16.774   7.607  10.957  1.00  0.00    -0.355 OA
HETATM   19  C16 UNK     1      17.965   7.029  10.427  1.00  0.00     0.210 C 
ENDBRANCH   8  18
BRANCH  10  20
HETATM   20  O4  UNK     1      16.319  11.695   8.587  1.00  0.00    -0.356 OA
HETATM   21  C17 UNK     1      15.815  12.300   7.397  1.00  0.00     0.210 C 
ENDBRANCH  10  20
TORSDOF 3
ENDMDL
