MODEL 1
REMARK VINA RESULT:      -8.4      0.000      0.000
REMARK  5 active torsions:
REMARK  status: ('A' for Active; 'I' for Inactive)
REMARK    1  A    between atoms: C5_11  and  O2_2 
REMARK    2  A    between atoms: C9_15  and  O4_4 
REMARK    3  A    between atoms: C11_17  and  O5_5 
REMARK    4  A    between atoms: C15_21  and  O6_6 
REMARK    5  A    between atoms: C1_7  and  C4_10 
ROOT
HETATM    1  O1  UNK     1      13.179   7.499   8.598  1.00  0.00    -0.306 OA
HETATM    2  O3  UNK     1      14.905   3.935   9.562  1.00  0.00    -0.284 OA
HETATM    3  C1  UNK     1      12.507   6.300   8.425  1.00  0.00     0.126 A 
HETATM    4  C2  UNK     1      15.092   6.285   9.469  1.00  0.00     0.053 A 
HETATM    5  C3  UNK     1      14.448   7.468   9.117  1.00  0.00     0.090 A 
HETATM    6  C5  UNK     1      13.018   5.089   8.714  1.00  0.00     0.152 A 
HETATM    7  C6  UNK     1      14.389   5.007   9.276  1.00  0.00     0.220 A 
HETATM    8  C7  UNK     1      16.386   6.316   9.994  1.00  0.00     0.055 A 
HETATM    9  C8  UNK     1      15.095   8.693   9.288  1.00  0.00     0.041 A 
HETATM   10  C11 UNK     1      17.032   7.541  10.165  1.00  0.00     0.066 A 
HETATM   11  C12 UNK     1      16.387   8.727   9.813  1.00  0.00     0.039 A 
ENDROOT
BRANCH   3  12
HETATM   12  C4  UNK     1      11.157   6.474   7.859  1.00  0.00     0.034 A 
HETATM   13  C10 UNK     1      10.087   6.719   8.722  1.00  0.00     0.020 A 
HETATM   14  C14 UNK     1       8.800   6.888   8.211  1.00  0.00     0.037 A 
HETATM   15  C15 UNK     1       8.581   6.813   6.836  1.00  0.00     0.068 A 
HETATM   16  C13 UNK     1       9.648   6.569   5.971  1.00  0.00     0.074 A 
HETATM   17  C9  UNK     1      10.935   6.401   6.482  1.00  0.00     0.081 A 
BRANCH  15  18
HETATM   18  O6  UNK     1       7.325   6.978   6.337  1.00  0.00    -0.361 OA
HETATM   19  H10 UNK     1       7.353   6.874   5.370  1.00  0.00     0.217 HD
ENDBRANCH  15  18
BRANCH  17  20
HETATM   20  O4  UNK     1      11.961   6.163   5.616  1.00  0.00    -0.360 OA
HETATM   21  H8  UNK     1      12.500   6.969   5.531  1.00  0.00     0.217 HD
ENDBRANCH  17  20
ENDBRANCH   3  12
BRANCH   6  22
HETATM   22  O2  UNK     1      12.335   3.912   8.500  1.00  0.00    -0.355 OA
HETATM   23  H7  UNK     1      11.455   4.104   8.137  1.00  0.00     0.218 HD
ENDBRANCH   6  22
BRANCH  10  24
HETATM   24  O5  UNK     1      18.293   7.579  10.675  1.00  0.00    -0.361 OA
HETATM   25  H9  UNK     1      18.244   7.516  11.644  1.00  0.00     0.217 HD
ENDBRANCH  10  24
TORSDOF 5
ENDMDL
MODEL 2
REMARK VINA RESULT:      -8.1     23.680     26.065
REMARK  5 active torsions:
REMARK  status: ('A' for Active; 'I' for Inactive)
REMARK    1  A    between atoms: C5_11  and  O2_2 
REMARK    2  A    between atoms: C9_15  and  O4_4 
REMARK    3  A    between atoms: C11_17  and  O5_5 
REMARK    4  A    between atoms: C15_21  and  O6_6 
REMARK    5  A    between atoms: C1_7  and  C4_10 
ROOT
HETATM    1  O1  UNK     1      18.099   2.619  33.446  1.00  0.00    -0.306 OA
HETATM    2  O3  UNK     1      19.199   1.328  29.741  1.00  0.00    -0.284 OA
HETATM    3  C1  UNK     1      18.303   1.275  33.179  1.00  0.00     0.126 A 
HETATM    4  C2  UNK     1      18.667   3.146  31.146  1.00  0.00     0.053 A 
HETATM    5  C3  UNK     1      18.288   3.522  32.432  1.00  0.00     0.090 A 
HETATM    6  C5  UNK     1      18.659   0.779  31.980  1.00  0.00     0.152 A 
HETATM    7  C6  UNK     1      18.872   1.719  30.853  1.00  0.00     0.220 A 
HETATM    8  C7  UNK     1      18.845   4.112  30.151  1.00  0.00     0.055 A 
HETATM    9  C8  UNK     1      18.085   4.870  32.733  1.00  0.00     0.041 A 
HETATM   10  C11 UNK     1      18.642   5.458  30.455  1.00  0.00     0.066 A 
HETATM   11  C12 UNK     1      18.263   5.837  31.744  1.00  0.00     0.039 A 
ENDROOT
BRANCH   3  12
HETATM   12  C4  UNK     1      18.064   0.414  34.352  1.00  0.00     0.034 A 
HETATM   13  C10 UNK     1      19.156  -0.174  34.994  1.00  0.00     0.020 A 
HETATM   14  C14 UNK     1      18.957  -0.992  36.106  1.00  0.00     0.037 A 
HETATM   15  C15 UNK     1      17.665  -1.223  36.579  1.00  0.00     0.068 A 
HETATM   16  C13 UNK     1      16.573  -0.637  35.941  1.00  0.00     0.074 A 
HETATM   17  C9  UNK     1      16.772   0.182  34.828  1.00  0.00     0.081 A 
BRANCH  15  18
HETATM   18  O6  UNK     1      17.471  -2.021  37.665  1.00  0.00    -0.361 OA
HETATM   19  H10 UNK     1      18.170  -2.697  37.690  1.00  0.00     0.217 HD
ENDBRANCH  15  18
BRANCH  17  20
HETATM   20  O4  UNK     1      15.687   0.743  34.222  1.00  0.00    -0.360 OA
HETATM   21  H8  UNK     1      15.890   1.668  33.998  1.00  0.00     0.217 HD
ENDBRANCH  17  20
ENDBRANCH   3  12
BRANCH   6  22
HETATM   22  O2  UNK     1      18.821  -0.568  31.740  1.00  0.00    -0.355 OA
HETATM   23  H7  UNK     1      19.345  -0.697  30.933  1.00  0.00     0.218 HD
ENDBRANCH   6  22
BRANCH  10  24
HETATM   24  O5  UNK     1      18.812   6.406  29.492  1.00  0.00    -0.361 OA
HETATM   25  H9  UNK     1      19.670   6.263  29.058  1.00  0.00     0.217 HD
ENDBRANCH  10  24
TORSDOF 5
ENDMDL
MODEL 3
REMARK VINA RESULT:      -7.8      1.515      1.803
REMARK  5 active torsions:
REMARK  status: ('A' for Active; 'I' for Inactive)
REMARK    1  A    between atoms: C5_11  and  O2_2 
REMARK    2  A    between atoms: C9_15  and  O4_4 
REMARK    3  A    between atoms: C11_17  and  O5_5 
REMARK    4  A    between atoms: C15_21  and  O6_6 
REMARK    5  A    between atoms: C1_7  and  C4_10 
ROOT
HETATM    1  O1  UNK     1      13.263   8.742   8.303  1.00  0.00    -0.306 OA
HETATM    2  O3  UNK     1      15.210   6.430  11.037  1.00  0.00    -0.284 OA
HETATM    3  C1  UNK     1      12.674   7.610   8.844  1.00  0.00     0.126 A 
HETATM    4  C2  UNK     1      15.242   8.338   9.649  1.00  0.00     0.053 A 
HETATM    5  C3  UNK     1      14.525   9.083   8.717  1.00  0.00     0.090 A 
HETATM    6  C5  UNK     1      13.261   6.799   9.743  1.00  0.00     0.152 A 
HETATM    7  C6  UNK     1      14.627   7.128  10.218  1.00  0.00     0.220 A 
HETATM    8  C7  UNK     1      16.525   8.735  10.033  1.00  0.00     0.055 A 
HETATM    9  C8  UNK     1      15.088  10.233   8.161  1.00  0.00     0.041 A 
HETATM   10  C11 UNK     1      17.086   9.885   9.477  1.00  0.00     0.066 A 
HETATM   11  C12 UNK     1      16.368  10.632   8.543  1.00  0.00     0.039 A 
ENDROOT
BRANCH   3  12
HETATM   12  C4  UNK     1      11.322   7.357   8.313  1.00  0.00     0.034 A 
HETATM   13  C10 UNK     1      10.214   7.691   9.095  1.00  0.00     0.020 A 
HETATM   14  C14 UNK     1       8.924   7.462   8.615  1.00  0.00     0.037 A 
HETATM   15  C15 UNK     1       8.740   6.898   7.353  1.00  0.00     0.068 A 
HETATM   16  C13 UNK     1       9.845   6.563   6.570  1.00  0.00     0.074 A 
HETATM   17  C9  UNK     1      11.135   6.793   7.049  1.00  0.00     0.081 A 
BRANCH  15  18
HETATM   18  O6  UNK     1       7.482   6.675   6.885  1.00  0.00    -0.361 OA
HETATM   19  H10 UNK     1       6.848   6.794   7.612  1.00  0.00     0.217 HD
ENDBRANCH  15  18
BRANCH  17  20
HETATM   20  O4  UNK     1      12.198   6.457   6.264  1.00  0.00    -0.360 OA
HETATM   21  H8  UNK     1      12.618   7.270   5.931  1.00  0.00     0.217 HD
ENDBRANCH  17  20
ENDBRANCH   3  12
BRANCH   6  22
HETATM   22  O2  UNK     1      12.659   5.662  10.237  1.00  0.00    -0.355 OA
HETATM   23  H7  UNK     1      13.264   5.209  10.847  1.00  0.00     0.218 HD
ENDBRANCH   6  22
BRANCH  10  24
HETATM   24  O5  UNK     1      18.336  10.278   9.845  1.00  0.00    -0.361 OA
HETATM   25  H9  UNK     1      18.944  10.135   9.100  1.00  0.00     0.217 HD
ENDBRANCH  10  24
TORSDOF 5
ENDMDL
MODEL 4
REMARK VINA RESULT:      -7.8     24.065     26.503
REMARK  5 active torsions:
REMARK  status: ('A' for Active; 'I' for Inactive)
REMARK    1  A    between atoms: C5_11  and  O2_2 
REMARK    2  A    between atoms: C9_15  and  O4_4 
REMARK    3  A    between atoms: C11_17  and  O5_5 
REMARK    4  A    between atoms: C15_21  and  O6_6 
REMARK    5  A    between atoms: C1_7  and  C4_10 
ROOT
HETATM    1  O1  UNK     1      18.279   1.484  32.557  1.00  0.00    -0.306 OA
HETATM    2  O3  UNK     1      18.414   5.210  34.202  1.00  0.00    -0.284 OA
HETATM    3  C1  UNK     1      18.158   1.676  33.923  1.00  0.00     0.126 A 
HETATM    4  C2  UNK     1      18.486   3.883  32.253  1.00  0.00     0.053 A 
HETATM    5  C3  UNK     1      18.435   2.585  31.753  1.00  0.00     0.090 A 
HETATM    6  C5  UNK     1      18.201   2.875  34.533  1.00  0.00     0.152 A 
HETATM    7  C6  UNK     1      18.371   4.093  33.705  1.00  0.00     0.220 A 
HETATM    8  C7  UNK     1      18.646   4.967  31.385  1.00  0.00     0.055 A 
HETATM    9  C8  UNK     1      18.544   2.360  30.380  1.00  0.00     0.041 A 
HETATM   10  C11 UNK     1      18.754   4.741  30.013  1.00  0.00     0.066 A 
HETATM   11  C12 UNK     1      18.703   3.440  29.512  1.00  0.00     0.039 A 
ENDROOT
BRANCH   3  12
HETATM   12  C4  UNK     1      17.999   0.414  34.668  1.00  0.00     0.034 A 
HETATM   13  C10 UNK     1      19.137  -0.244  35.140  1.00  0.00     0.020 A 
HETATM   14  C14 UNK     1      19.012  -1.439  35.848  1.00  0.00     0.037 A 
HETATM   15  C15 UNK     1      17.749  -1.979  36.086  1.00  0.00     0.068 A 
HETATM   16  C13 UNK     1      16.610  -1.325  35.617  1.00  0.00     0.074 A 
HETATM   17  C9  UNK     1      16.735  -0.129  34.909  1.00  0.00     0.081 A 
BRANCH  15  18
HETATM   18  O6  UNK     1      17.627  -3.145  36.777  1.00  0.00    -0.361 OA
HETATM   19  H10 UNK     1      17.896  -3.883  36.203  1.00  0.00     0.217 HD
ENDBRANCH  15  18
BRANCH  17  20
HETATM   20  O4  UNK     1      15.606   0.491  34.461  1.00  0.00    -0.360 OA
HETATM   21  H8  UNK     1      15.376   0.140  33.583  1.00  0.00     0.217 HD
ENDBRANCH  17  20
ENDBRANCH   3  12
BRANCH   6  22
HETATM   22  O2  UNK     1      18.111   3.028  35.900  1.00  0.00    -0.355 OA
HETATM   23  H7  UNK     1      18.874   2.608  36.329  1.00  0.00     0.218 HD
ENDBRANCH   6  22
BRANCH  10  24
HETATM   24  O5  UNK     1      18.912   5.791  29.161  1.00  0.00    -0.361 OA
HETATM   25  H9  UNK     1      18.684   5.504  28.261  1.00  0.00     0.217 HD
ENDBRANCH  10  24
TORSDOF 5
ENDMDL
MODEL 5
REMARK VINA RESULT:      -7.7     28.525     30.939
REMARK  5 active torsions:
REMARK  status: ('A' for Active; 'I' for Inactive)
REMARK    1  A    between atoms: C5_11  and  O2_2 
REMARK    2  A    between atoms: C9_15  and  O4_4 
REMARK    3  A    between atoms: C11_17  and  O5_5 
REMARK    4  A    between atoms: C15_21  and  O6_6 
REMARK    5  A    between atoms: C1_7  and  C4_10 
ROOT
HETATM    1  O1  UNK     1      18.952  -2.632  37.501  1.00  0.00    -0.306 OA
HETATM    2  O3  UNK     1      19.758  -1.259  33.749  1.00  0.00    -0.284 OA
HETATM    3  C1  UNK     1      19.560  -3.437  36.551  1.00  0.00     0.126 A 
HETATM    4  C2  UNK     1      18.884  -0.814  35.895  1.00  0.00     0.053 A 
HETATM    5  C3  UNK     1      18.632  -1.344  37.157  1.00  0.00     0.090 A 
HETATM    6  C5  UNK     1      19.848  -3.052  35.294  1.00  0.00     0.152 A 
HETATM    7  C6  UNK     1      19.517  -1.667  34.877  1.00  0.00     0.220 A 
HETATM    8  C7  UNK     1      18.535   0.508  35.601  1.00  0.00     0.055 A 
HETATM    9  C8  UNK     1      18.028  -0.555  38.138  1.00  0.00     0.041 A 
HETATM   10  C11 UNK     1      17.933   1.295  36.583  1.00  0.00     0.066 A 
HETATM   11  C12 UNK     1      17.681   0.765  37.849  1.00  0.00     0.039 A 
ENDROOT
BRANCH   3  12
HETATM   12  C4  UNK     1      19.848  -4.794  37.048  1.00  0.00     0.034 A 
HETATM   13  C10 UNK     1      21.128  -5.084  37.526  1.00  0.00     0.020 A 
HETATM   14  C14 UNK     1      21.425  -6.361  38.002  1.00  0.00     0.037 A 
HETATM   15  C15 UNK     1      20.443  -7.351  38.002  1.00  0.00     0.068 A 
HETATM   16  C13 UNK     1      19.164  -7.065  37.527  1.00  0.00     0.074 A 
HETATM   17  C9  UNK     1      18.866  -5.788  37.051  1.00  0.00     0.081 A 
BRANCH  15  18
HETATM   18  O6  UNK     1      20.733  -8.597  38.467  1.00  0.00    -0.361 OA
HETATM   19  H10 UNK     1      20.481  -9.252  37.794  1.00  0.00     0.217 HD
ENDBRANCH  15  18
BRANCH  17  20
HETATM   20  O4  UNK     1      17.607  -5.533  36.591  1.00  0.00    -0.360 OA
HETATM   21  H8  UNK     1      17.659  -5.235  35.666  1.00  0.00     0.217 HD
ENDBRANCH  17  20
ENDBRANCH   3  12
BRANCH   6  22
HETATM   22  O2  UNK     1      20.424  -3.888  34.363  1.00  0.00    -0.355 OA
HETATM   23  H7  UNK     1      19.930  -3.841  33.529  1.00  0.00     0.218 HD
ENDBRANCH   6  22
BRANCH  10  24
HETATM   24  O5  UNK     1      17.590   2.583  36.306  1.00  0.00    -0.361 OA
HETATM   25  H9  UNK     1      16.716   2.766  36.691  1.00  0.00     0.217 HD
ENDBRANCH  10  24
TORSDOF 5
ENDMDL
MODEL 6
REMARK VINA RESULT:      -7.7     23.322     25.788
REMARK  5 active torsions:
REMARK  status: ('A' for Active; 'I' for Inactive)
REMARK    1  A    between atoms: C5_11  and  O2_2 
REMARK    2  A    between atoms: C9_15  and  O4_4 
REMARK    3  A    between atoms: C11_17  and  O5_5 
REMARK    4  A    between atoms: C15_21  and  O6_6 
REMARK    5  A    between atoms: C1_7  and  C4_10 
ROOT
HETATM    1  O1  UNK     1      18.082   9.748  33.369  1.00  0.00    -0.306 OA
HETATM    2  O3  UNK     1      14.313   9.740  34.918  1.00  0.00    -0.284 OA
HETATM    3  C1  UNK     1      17.239   8.660  33.215  1.00  0.00     0.126 A 
HETATM    4  C2  UNK     1      16.339  10.905  34.601  1.00  0.00     0.053 A 
HETATM    5  C3  UNK     1      17.617  10.844  34.051  1.00  0.00     0.090 A 
HETATM    6  C5  UNK     1      15.989   8.586  33.705  1.00  0.00     0.152 A 
HETATM    7  C6  UNK     1      15.444   9.747  34.452  1.00  0.00     0.220 A 
HETATM    8  C7  UNK     1      15.920  12.048  35.285  1.00  0.00     0.055 A 
HETATM    9  C8  UNK     1      18.486  11.928  34.181  1.00  0.00     0.041 A 
HETATM   10  C11 UNK     1      16.789  13.132  35.414  1.00  0.00     0.066 A 
HETATM   11  C12 UNK     1      18.070  13.072  34.863  1.00  0.00     0.039 A 
ENDROOT
BRANCH   3  12
HETATM   12  C4  UNK     1      17.862   7.553  32.467  1.00  0.00     0.034 A 
HETATM   13  C10 UNK     1      18.761   6.711  33.125  1.00  0.00     0.020 A 
HETATM   14  C14 UNK     1      19.363   5.656  32.439  1.00  0.00     0.037 A 
HETATM   15  C15 UNK     1      19.068   5.441  31.093  1.00  0.00     0.068 A 
HETATM   16  C13 UNK     1      18.171   6.280  30.433  1.00  0.00     0.074 A 
HETATM   17  C9  UNK     1      17.568   7.335  31.119  1.00  0.00     0.081 A 
BRANCH  15  18
HETATM   18  O6  UNK     1      19.655   4.412  30.424  1.00  0.00    -0.361 OA
HETATM   19  H10 UNK     1      19.633   3.617  30.984  1.00  0.00     0.217 HD
ENDBRANCH  15  18
BRANCH  17  20
HETATM   20  O4  UNK     1      16.694   8.141  30.450  1.00  0.00    -0.360 OA
HETATM   21  H8  UNK     1      15.835   8.129  30.908  1.00  0.00     0.217 HD
ENDBRANCH  17  20
ENDBRANCH   3  12
BRANCH   6  22
HETATM   22  O2  UNK     1      15.187   7.475  33.562  1.00  0.00    -0.355 OA
HETATM   23  H7  UNK     1      15.050   7.055  34.427  1.00  0.00     0.218 HD
ENDBRANCH   6  22
BRANCH  10  24
HETATM   24  O5  UNK     1      16.389  14.249  36.081  1.00  0.00    -0.361 OA
HETATM   25  H9  UNK     1      16.280  14.033  37.022  1.00  0.00     0.217 HD
ENDBRANCH  10  24
TORSDOF 5
ENDMDL
MODEL 7
REMARK VINA RESULT:      -7.7      3.778      7.546
REMARK  5 active torsions:
REMARK  status: ('A' for Active; 'I' for Inactive)
REMARK    1  A    between atoms: C5_11  and  O2_2 
REMARK    2  A    between atoms: C9_15  and  O4_4 
REMARK    3  A    between atoms: C11_17  and  O5_5 
REMARK    4  A    between atoms: C15_21  and  O6_6 
REMARK    5  A    between atoms: C1_7  and  C4_10 
ROOT
HETATM    1  O1  UNK     1       7.845   7.304   9.781  1.00  0.00    -0.306 OA
HETATM    2  O3  UNK     1       5.379   4.157  10.570  1.00  0.00    -0.284 OA
HETATM    3  C1  UNK     1       7.978   6.096   9.116  1.00  0.00     0.126 A 
HETATM    4  C2  UNK     1       5.972   6.394  11.028  1.00  0.00     0.053 A 
HETATM    5  C3  UNK     1       6.848   7.429  10.714  1.00  0.00     0.090 A 
HETATM    6  C5  UNK     1       7.205   5.015   9.331  1.00  0.00     0.152 A 
HETATM    7  C6  UNK     1       6.116   5.104  10.334  1.00  0.00     0.220 A 
HETATM    8  C7  UNK     1       4.974   6.580  11.988  1.00  0.00     0.055 A 
HETATM    9  C8  UNK     1       6.734   8.661  11.361  1.00  0.00     0.041 A 
HETATM   10  C11 UNK     1       4.860   7.812  12.633  1.00  0.00     0.066 A 
HETATM   11  C12 UNK     1       5.738   8.850  12.320  1.00  0.00     0.039 A 
ENDROOT
BRANCH   3  12
HETATM   12  C4  UNK     1       9.086   6.095   8.143  1.00  0.00     0.034 A 
HETATM   13  C10 UNK     1       8.809   6.358   6.799  1.00  0.00     0.020 A 
HETATM   14  C14 UNK     1       9.840   6.363   5.861  1.00  0.00     0.037 A 
HETATM   15  C15 UNK     1      11.150   6.105   6.262  1.00  0.00     0.068 A 
HETATM   16  C13 UNK     1      11.431   5.843   7.603  1.00  0.00     0.074 A 
HETATM   17  C9  UNK     1      10.399   5.838   8.543  1.00  0.00     0.081 A 
BRANCH  15  18
HETATM   18  O6  UNK     1      12.157   6.111   5.346  1.00  0.00    -0.361 OA
HETATM   19  H10 UNK     1      11.783   6.296   4.467  1.00  0.00     0.217 HD
ENDBRANCH  15  18
BRANCH  17  20
HETATM   20  O4  UNK     1      10.699   5.578   9.848  1.00  0.00    -0.360 OA
HETATM   21  H8  UNK     1      11.500   5.026   9.887  1.00  0.00     0.217 HD
ENDBRANCH  17  20
ENDBRANCH   3  12
BRANCH   6  22
HETATM   22  O2  UNK     1       7.385   3.817   8.675  1.00  0.00    -0.355 OA
HETATM   23  H7  UNK     1       8.294   3.503   8.807  1.00  0.00     0.218 HD
ENDBRANCH   6  22
BRANCH  10  24
HETATM   24  O5  UNK     1       3.892   8.002  13.571  1.00  0.00    -0.361 OA
HETATM   25  H9  UNK     1       3.897   7.248  14.186  1.00  0.00     0.217 HD
ENDBRANCH  10  24
TORSDOF 5
ENDMDL
MODEL 8
REMARK VINA RESULT:      -7.7     11.869     13.524
REMARK  5 active torsions:
REMARK  status: ('A' for Active; 'I' for Inactive)
REMARK    1  A    between atoms: C5_11  and  O2_2 
REMARK    2  A    between atoms: C9_15  and  O4_4 
REMARK    3  A    between atoms: C11_17  and  O5_5 
REMARK    4  A    between atoms: C15_21  and  O6_6 
REMARK    5  A    between atoms: C1_7  and  C4_10 
ROOT
HETATM    1  O1  UNK     1      19.032  -0.859  18.216  1.00  0.00    -0.306 OA
HETATM    2  O3  UNK     1      19.400   3.071  17.200  1.00  0.00    -0.284 OA
HETATM    3  C1  UNK     1      19.031  -0.451  16.892  1.00  0.00     0.126 A 
HETATM    4  C2  UNK     1      19.307   1.450  18.912  1.00  0.00     0.053 A 
HETATM    5  C3  UNK     1      19.174   0.093  19.193  1.00  0.00     0.090 A 
HETATM    6  C5  UNK     1      19.141   0.827  16.486  1.00  0.00     0.152 A 
HETATM    7  C6  UNK     1      19.293   1.892  17.509  1.00  0.00     0.220 A 
HETATM    8  C7  UNK     1      19.447   2.376  19.950  1.00  0.00     0.055 A 
HETATM    9  C8  UNK     1      19.181  -0.349  20.517  1.00  0.00     0.041 A 
HETATM   10  C11 UNK     1      19.455   1.931  21.272  1.00  0.00     0.066 A 
HETATM   11  C12 UNK     1      19.322   0.571  21.555  1.00  0.00     0.039 A 
ENDROOT
BRANCH   3  12
HETATM   12  C4  UNK     1      18.871  -1.570  15.947  1.00  0.00     0.034 A 
HETATM   13  C10 UNK     1      19.875  -1.814  15.007  1.00  0.00     0.020 A 
HETATM   14  C14 UNK     1      19.747  -2.867  14.102  1.00  0.00     0.037 A 
HETATM   15  C15 UNK     1      18.614  -3.680  14.134  1.00  0.00     0.068 A 
HETATM   16  C13 UNK     1      17.609  -3.440  15.071  1.00  0.00     0.074 A 
HETATM   17  C9  UNK     1      17.738  -2.386  15.977  1.00  0.00     0.081 A 
BRANCH  15  18
HETATM   18  O6  UNK     1      18.489  -4.708  13.252  1.00  0.00    -0.361 OA
HETATM   19  H10 UNK     1      17.560  -4.774  12.972  1.00  0.00     0.217 HD
ENDBRANCH  15  18
BRANCH  17  20
HETATM   20  O4  UNK     1      16.741  -2.172  16.883  1.00  0.00    -0.360 OA
HETATM   21  H8  UNK     1      16.381  -1.277  16.756  1.00  0.00     0.217 HD
ENDBRANCH  17  20
ENDBRANCH   3  12
BRANCH   6  22
HETATM   22  O2  UNK     1      19.103   1.203  15.161  1.00  0.00    -0.355 OA
HETATM   23  H7  UNK     1      19.617   0.576  14.627  1.00  0.00     0.218 HD
ENDBRANCH   6  22
BRANCH  10  24
HETATM   24  O5  UNK     1      19.591   2.826  22.289  1.00  0.00    -0.361 OA
HETATM   25  H9  UNK     1      18.952   3.547  22.162  1.00  0.00     0.217 HD
ENDBRANCH  10  24
TORSDOF 5
ENDMDL
MODEL 9
REMARK VINA RESULT:      -7.7     22.216     24.776
REMARK  5 active torsions:
REMARK  status: ('A' for Active; 'I' for Inactive)
REMARK    1  A    between atoms: C5_11  and  O2_2 
REMARK    2  A    between atoms: C9_15  and  O4_4 
REMARK    3  A    between atoms: C11_17  and  O5_5 
REMARK    4  A    between atoms: C15_21  and  O6_6 
REMARK    5  A    between atoms: C1_7  and  C4_10 
ROOT
HETATM    1  O1  UNK     1      17.075   7.033  32.040  1.00  0.00    -0.306 OA
HETATM    2  O3  UNK     1      19.944   8.710  34.399  1.00  0.00    -0.284 OA
HETATM    3  C1  UNK     1      18.310   6.432  32.214  1.00  0.00     0.126 A 
HETATM    4  C2  UNK     1      17.760   8.835  33.515  1.00  0.00     0.053 A 
HETATM    5  C3  UNK     1      16.824   8.213  32.693  1.00  0.00     0.090 A 
HETATM    6  C5  UNK     1      19.304   6.932  32.970  1.00  0.00     0.152 A 
HETATM    7  C6  UNK     1      19.079   8.208  33.694  1.00  0.00     0.220 A 
HETATM    8  C7  UNK     1      17.449  10.037  34.156  1.00  0.00     0.055 A 
HETATM    9  C8  UNK     1      15.567   8.790  32.506  1.00  0.00     0.041 A 
HETATM   10  C11 UNK     1      16.192  10.612  33.968  1.00  0.00     0.066 A 
HETATM   11  C12 UNK     1      15.253   9.989  33.145  1.00  0.00     0.039 A 
ENDROOT
BRANCH   3  12
HETATM   12  C4  UNK     1      18.449   5.175  31.457  1.00  0.00     0.034 A 
HETATM   13  C10 UNK     1      18.190   3.963  32.101  1.00  0.00     0.020 A 
HETATM   14  C14 UNK     1      18.313   2.760  31.406  1.00  0.00     0.037 A 
HETATM   15  C15 UNK     1      18.695   2.766  30.065  1.00  0.00     0.068 A 
HETATM   16  C13 UNK     1      18.954   3.974  29.418  1.00  0.00     0.074 A 
HETATM   17  C9  UNK     1      18.830   5.177  30.113  1.00  0.00     0.081 A 
BRANCH  15  18
HETATM   18  O6  UNK     1      18.815   1.592  29.387  1.00  0.00    -0.361 OA
HETATM   19  H10 UNK     1      18.882   1.782  28.435  1.00  0.00     0.217 HD
ENDBRANCH  15  18
BRANCH  17  20
HETATM   20  O4  UNK     1      19.089   6.345  29.458  1.00  0.00    -0.360 OA
HETATM   21  H8  UNK     1      19.718   6.872  29.981  1.00  0.00     0.217 HD
ENDBRANCH  17  20
ENDBRANCH   3  12
BRANCH   6  22
HETATM   22  O2  UNK     1      20.535   6.325  33.096  1.00  0.00    -0.355 OA
HETATM   23  H7  UNK     1      20.503   5.662  33.805  1.00  0.00     0.218 HD
ENDBRANCH   6  22
BRANCH  10  24
HETATM   24  O5  UNK     1      15.881  11.783  34.587  1.00  0.00    -0.361 OA
HETATM   25  H9  UNK     1      16.601  12.419  34.441  1.00  0.00     0.217 HD
ENDBRANCH  10  24
TORSDOF 5
ENDMDL
MODEL 10
REMARK VINA RESULT:      -7.6     29.764     32.003
REMARK  5 active torsions:
REMARK  status: ('A' for Active; 'I' for Inactive)
REMARK    1  A    between atoms: C5_11  and  O2_2 
REMARK    2  A    between atoms: C9_15  and  O4_4 
REMARK    3  A    between atoms: C11_17  and  O5_5 
REMARK    4  A    between atoms: C15_21  and  O6_6 
REMARK    5  A    between atoms: C1_7  and  C4_10 
ROOT
HETATM    1  O1  UNK     1      21.191  -4.564  37.477  1.00  0.00    -0.306 OA
HETATM    2  O3  UNK     1      18.554  -7.633  37.963  1.00  0.00    -0.284 OA
HETATM    3  C1  UNK     1      19.911  -4.509  36.949  1.00  0.00     0.126 A 
HETATM    4  C2  UNK     1      20.703  -6.760  38.390  1.00  0.00     0.053 A 
HETATM    5  C3  UNK     1      21.558  -5.680  38.186  1.00  0.00     0.090 A 
HETATM    6  C5  UNK     1      18.994  -5.487  37.065  1.00  0.00     0.152 A 
HETATM    7  C6  UNK     1      19.347  -6.713  37.822  1.00  0.00     0.220 A 
HETATM    8  C7  UNK     1      21.132  -7.870  39.122  1.00  0.00     0.055 A 
HETATM    9  C8  UNK     1      22.850  -5.702  38.713  1.00  0.00     0.041 A 
HETATM   10  C11 UNK     1      22.424  -7.891  39.649  1.00  0.00     0.066 A 
HETATM   11  C12 UNK     1      23.281  -6.808  39.444  1.00  0.00     0.039 A 
ENDROOT
BRANCH   3  12
HETATM   12  C4  UNK     1      19.648  -3.261  36.211  1.00  0.00     0.034 A 
HETATM   13  C10 UNK     1      20.033  -3.171  34.871  1.00  0.00     0.020 A 
HETATM   14  C14 UNK     1      19.795  -2.000  34.151  1.00  0.00     0.037 A 
HETATM   15  C15 UNK     1      19.170  -0.917  34.769  1.00  0.00     0.068 A 
HETATM   16  C13 UNK     1      18.784  -1.003  36.106  1.00  0.00     0.074 A 
HETATM   17  C9  UNK     1      19.022  -2.174  36.826  1.00  0.00     0.081 A 
BRANCH  15  18
HETATM   18  O6  UNK     1      18.937   0.225  34.066  1.00  0.00    -0.361 OA
HETATM   19  H10 UNK     1      19.453   0.950  34.459  1.00  0.00     0.217 HD
ENDBRANCH  15  18
BRANCH  17  20
HETATM   20  O4  UNK     1      18.634  -2.234  38.133  1.00  0.00    -0.360 OA
HETATM   21  H8  UNK     1      19.402  -2.466  38.683  1.00  0.00     0.217 HD
ENDBRANCH  17  20
ENDBRANCH   3  12
BRANCH   6  22
HETATM   22  O2  UNK     1      17.739  -5.414  36.500  1.00  0.00    -0.355 OA
HETATM   23  H7  UNK     1      17.662  -6.066  35.784  1.00  0.00     0.218 HD
ENDBRANCH   6  22
BRANCH  10  24
HETATM   24  O5  UNK     1      22.851  -8.969  40.362  1.00  0.00    -0.361 OA
HETATM   25  H9  UNK     1      23.682  -9.293  39.976  1.00  0.00     0.217 HD
ENDBRANCH  10  24
TORSDOF 5
ENDMDL
