MODEL 1
REMARK VINA RESULT:      -9.0      0.000      0.000
REMARK  6 active torsions:
REMARK  status: ('A' for Active; 'I' for Inactive)
REMARK    1  A    between atoms: C6_12  and  O1_1 
REMARK    2  A    between atoms: C3_9  and  N1_5 
REMARK       I    between atoms: C4_10  and  N1_5 
REMARK    3  A    between atoms: C12_18  and  N2_6 
REMARK    4  A    between atoms: C1_7  and  C2_8 
REMARK    5  A    between atoms: C1_7  and  C4_10 
REMARK    6  A    between atoms: C5_11  and  C7_13 
ROOT
HETATM    1  O2  UNK     1      20.562  -0.954  35.704  1.00  0.00    -0.267 OA
HETATM    2  N1  UNK     1      19.271  -2.257  34.249  1.00  0.00    -0.320 N 
HETATM    3  C4  UNK     1      19.789  -1.883  35.483  1.00  0.00     0.257 C 
HETATM    4  H2  UNK     1      18.642  -3.056  34.227  1.00  0.00     0.169 HD
ENDROOT
BRANCH   3   5
HETATM    5  C1  UNK     1      19.313  -2.765  36.615  1.00  0.00     0.043 C 
HETATM    6  C5  UNK     1      18.280  -2.289  37.359  1.00  0.00     0.029 C 
BRANCH   5   7
HETATM    7  C2  UNK     1      19.919  -4.088  36.873  1.00  0.00    -0.021 A 
HETATM    8  C10 UNK     1      19.339  -5.216  36.319  1.00  0.00     0.012 A 
HETATM    9  C16 UNK     1      19.911  -6.464  36.562  1.00  0.00     0.001 A 
HETATM   10  C18 UNK     1      21.056  -6.565  37.354  1.00  0.00     0.000 A 
HETATM   11  C17 UNK     1      21.627  -5.417  37.902  1.00  0.00     0.001 A 
HETATM   12  C11 UNK     1      21.054  -4.168  37.660  1.00  0.00     0.012 A 
ENDBRANCH   5   7
BRANCH   6  13
HETATM   13  C7  UNK     1      17.612  -1.008  37.194  1.00  0.00    -0.035 A 
HETATM   14  C14 UNK     1      16.547  -0.887  36.301  1.00  0.00     0.011 A 
HETATM   15  C19 UNK     1      15.905   0.342  36.143  1.00  0.00     0.001 A 
HETATM   16  C21 UNK     1      16.328   1.449  36.879  1.00  0.00     0.000 A 
HETATM   17  C20 UNK     1      17.393   1.328  37.772  1.00  0.00     0.001 A 
HETATM   18  C15 UNK     1      18.035   0.100  37.929  1.00  0.00     0.011 A 
ENDBRANCH   6  13
ENDBRANCH   3   5
BRANCH   2  19
HETATM   19  C3  UNK     1      19.513  -1.648  32.993  1.00  0.00     0.068 A 
HETATM   20  C6  UNK     1      18.892  -0.454  32.671  1.00  0.00     0.097 A 
HETATM   21  C9  UNK     1      19.140   0.133  31.431  1.00  0.00     0.075 A 
HETATM   22  C12 UNK     1      20.008  -0.484  30.530  1.00  0.00     0.105 A 
HETATM   23  C13 UNK     1      20.626  -1.687  30.869  1.00  0.00     0.038 A 
HETATM   24  C8  UNK     1      20.378  -2.274  32.109  1.00  0.00     0.035 A 
BRANCH  20  25
HETATM   25  O1  UNK     1      18.040   0.165  33.538  1.00  0.00    -0.354 OA
HETATM   26  C22 UNK     1      18.287   1.541  33.817  1.00  0.00     0.210 C 
ENDBRANCH  20  25
BRANCH  22  27
HETATM   27  N2  UNK     1      20.261   0.113  29.266  1.00  0.00    -0.116 N 
HETATM   28  O3  UNK     1      19.515   1.043  28.873  1.00  0.00    -0.532 OA
HETATM   29  O4  UNK     1      21.223  -0.304  28.578  1.00  0.00    -0.532 OA
ENDBRANCH  22  27
ENDBRANCH   2  19
TORSDOF 6
ENDMDL
MODEL 2
REMARK VINA RESULT:      -9.0      0.972      2.113
REMARK  6 active torsions:
REMARK  status: ('A' for Active; 'I' for Inactive)
REMARK    1  A    between atoms: C6_12  and  O1_1 
REMARK    2  A    between atoms: C3_9  and  N1_5 
REMARK       I    between atoms: C4_10  and  N1_5 
REMARK    3  A    between atoms: C12_18  and  N2_6 
REMARK    4  A    between atoms: C1_7  and  C2_8 
REMARK    5  A    between atoms: C1_7  and  C4_10 
REMARK    6  A    between atoms: C5_11  and  C7_13 
ROOT
HETATM    1  O2  UNK     1      20.971  -1.316  35.658  1.00  0.00    -0.267 OA
HETATM    2  N1  UNK     1      19.444  -2.405  34.258  1.00  0.00    -0.320 N 
HETATM    3  C4  UNK     1      20.085  -2.144  35.462  1.00  0.00     0.257 C 
HETATM    4  H2  UNK     1      18.728  -3.128  34.254  1.00  0.00     0.169 HD
ENDROOT
BRANCH   3   5
HETATM    5  C1  UNK     1      19.593  -3.017  36.594  1.00  0.00     0.043 C 
HETATM    6  C5  UNK     1      18.542  -2.540  37.312  1.00  0.00     0.029 C 
BRANCH   5   7
HETATM    7  C2  UNK     1      20.202  -4.333  36.879  1.00  0.00    -0.021 A 
HETATM    8  C10 UNK     1      19.791  -5.438  36.155  1.00  0.00     0.012 A 
HETATM    9  C16 UNK     1      20.367  -6.679  36.423  1.00  0.00     0.001 A 
HETATM   10  C18 UNK     1      21.346  -6.796  37.411  1.00  0.00     0.000 A 
HETATM   11  C17 UNK     1      21.748  -5.670  38.129  1.00  0.00     0.001 A 
HETATM   12  C11 UNK     1      21.171  -4.428  37.862  1.00  0.00     0.012 A 
ENDBRANCH   5   7
BRANCH   6  13
HETATM   13  C7  UNK     1      17.868  -1.265  37.119  1.00  0.00    -0.035 A 
HETATM   14  C14 UNK     1      18.099  -0.213  38.004  1.00  0.00     0.011 A 
HETATM   15  C19 UNK     1      17.453   1.010  37.818  1.00  0.00     0.001 A 
HETATM   16  C21 UNK     1      16.577   1.179  36.747  1.00  0.00     0.000 A 
HETATM   17  C20 UNK     1      16.344   0.126  35.862  1.00  0.00     0.001 A 
HETATM   18  C15 UNK     1      16.990  -1.096  36.047  1.00  0.00     0.011 A 
ENDBRANCH   6  13
ENDBRANCH   3   5
BRANCH   2  19
HETATM   19  C3  UNK     1      19.665  -1.772  33.009  1.00  0.00     0.068 A 
HETATM   20  C6  UNK     1      20.620  -2.273  32.140  1.00  0.00     0.097 A 
HETATM   21  C9  UNK     1      20.825  -1.640  30.915  1.00  0.00     0.075 A 
HETATM   22  C12 UNK     1      20.072  -0.515  30.576  1.00  0.00     0.105 A 
HETATM   23  C13 UNK     1      19.114  -0.025  31.462  1.00  0.00     0.038 A 
HETATM   24  C8  UNK     1      18.908  -0.657  32.688  1.00  0.00     0.035 A 
BRANCH  20  25
HETATM   25  O1  UNK     1      21.366  -3.370  32.452  1.00  0.00    -0.354 OA
HETATM   26  C22 UNK     1      21.622  -4.299  31.402  1.00  0.00     0.210 C 
ENDBRANCH  20  25
BRANCH  22  27
HETATM   27  N2  UNK     1      20.281   0.130  29.327  1.00  0.00    -0.116 N 
HETATM   28  O3  UNK     1      19.551   1.102  29.016  1.00  0.00    -0.532 OA
HETATM   29  O4  UNK     1      21.190  -0.290  28.571  1.00  0.00    -0.532 OA
ENDBRANCH  22  27
ENDBRANCH   2  19
TORSDOF 6
ENDMDL
MODEL 3
REMARK VINA RESULT:      -8.4      3.639      8.034
REMARK  6 active torsions:
REMARK  status: ('A' for Active; 'I' for Inactive)
REMARK    1  A    between atoms: C6_12  and  O1_1 
REMARK    2  A    between atoms: C3_9  and  N1_5 
REMARK       I    between atoms: C4_10  and  N1_5 
REMARK    3  A    between atoms: C12_18  and  N2_6 
REMARK    4  A    between atoms: C1_7  and  C2_8 
REMARK    5  A    between atoms: C1_7  and  C4_10 
REMARK    6  A    between atoms: C5_11  and  C7_13 
ROOT
HETATM    1  O2  UNK     1      17.522   3.808  32.924  1.00  0.00    -0.267 OA
HETATM    2  N1  UNK     1      18.696   1.784  32.852  1.00  0.00    -0.320 N 
HETATM    3  C4  UNK     1      18.223   2.986  32.339  1.00  0.00     0.257 C 
HETATM    4  H2  UNK     1      19.267   1.205  32.240  1.00  0.00     0.169 HD
ENDROOT
BRANCH   3   5
HETATM    5  C1  UNK     1      18.649   3.226  30.909  1.00  0.00     0.043 C 
HETATM    6  C5  UNK     1      18.983   4.503  30.585  1.00  0.00     0.029 C 
BRANCH   5   7
HETATM    7  C2  UNK     1      18.731   2.123  29.930  1.00  0.00    -0.021 A 
HETATM    8  C10 UNK     1      17.787   2.044  28.922  1.00  0.00     0.012 A 
HETATM    9  C16 UNK     1      17.865   1.003  27.997  1.00  0.00     0.001 A 
HETATM   10  C18 UNK     1      18.886   0.057  28.095  1.00  0.00     0.000 A 
HETATM   11  C17 UNK     1      19.829   0.154  29.117  1.00  0.00     0.001 A 
HETATM   12  C11 UNK     1      19.751   1.195  30.043  1.00  0.00     0.012 A 
ENDBRANCH   5   7
BRANCH   6  13
HETATM   13  C7  UNK     1      18.941   5.660  31.465  1.00  0.00    -0.035 A 
HETATM   14  C14 UNK     1      17.821   6.491  31.471  1.00  0.00     0.011 A 
HETATM   15  C19 UNK     1      17.780   7.601  32.316  1.00  0.00     0.001 A 
HETATM   16  C21 UNK     1      18.859   7.878  33.155  1.00  0.00     0.000 A 
HETATM   17  C20 UNK     1      19.980   7.048  33.148  1.00  0.00     0.001 A 
HETATM   18  C15 UNK     1      20.021   5.938  32.303  1.00  0.00     0.011 A 
ENDBRANCH   6  13
ENDBRANCH   3   5
BRANCH   2  19
HETATM   19  C3  UNK     1      18.482   1.257  34.150  1.00  0.00     0.068 A 
HETATM   20  C6  UNK     1      18.058  -0.053  34.303  1.00  0.00     0.097 A 
HETATM   21  C9  UNK     1      17.852  -0.558  35.586  1.00  0.00     0.075 A 
HETATM   22  C12 UNK     1      18.074   0.254  36.698  1.00  0.00     0.105 A 
HETATM   23  C13 UNK     1      18.501   1.571  36.527  1.00  0.00     0.038 A 
HETATM   24  C8  UNK     1      18.707   2.076  35.244  1.00  0.00     0.035 A 
BRANCH  20  25
HETATM   25  O1  UNK     1      17.836  -0.863  33.229  1.00  0.00    -0.354 OA
HETATM   26  C22 UNK     1      18.980  -1.444  32.608  1.00  0.00     0.210 C 
ENDBRANCH  20  25
BRANCH  22  27
HETATM   27  N2  UNK     1      17.864  -0.260  38.006  1.00  0.00    -0.116 N 
HETATM   28  O3  UNK     1      17.579  -1.474  38.143  1.00  0.00    -0.532 OA
HETATM   29  O4  UNK     1      17.968   0.514  38.987  1.00  0.00    -0.532 OA
ENDBRANCH  22  27
ENDBRANCH   2  19
TORSDOF 6
ENDMDL
MODEL 4
REMARK VINA RESULT:      -8.0      4.289      6.960
REMARK  6 active torsions:
REMARK  status: ('A' for Active; 'I' for Inactive)
REMARK    1  A    between atoms: C6_12  and  O1_1 
REMARK    2  A    between atoms: C3_9  and  N1_5 
REMARK       I    between atoms: C4_10  and  N1_5 
REMARK    3  A    between atoms: C12_18  and  N2_6 
REMARK    4  A    between atoms: C1_7  and  C2_8 
REMARK    5  A    between atoms: C1_7  and  C4_10 
REMARK    6  A    between atoms: C5_11  and  C7_13 
ROOT
HETATM    1  O2  UNK     1      17.033   2.337  31.632  1.00  0.00    -0.267 OA
HETATM    2  N1  UNK     1      18.864   3.149  32.844  1.00  0.00    -0.320 N 
HETATM    3  C4  UNK     1      18.101   2.172  32.216  1.00  0.00     0.257 C 
HETATM    4  H2  UNK     1      19.729   2.854  33.290  1.00  0.00     0.169 HD
ENDROOT
BRANCH   3   5
HETATM    5  C1  UNK     1      18.711   0.792  32.316  1.00  0.00     0.043 C 
HETATM    6  C5  UNK     1      18.577   0.157  33.510  1.00  0.00     0.029 C 
BRANCH   5   7
HETATM    7  C2  UNK     1      19.385   0.159  31.164  1.00  0.00    -0.021 A 
HETATM    8  C10 UNK     1      19.465   0.847  29.966  1.00  0.00     0.012 A 
HETATM    9  C16 UNK     1      20.102   0.250  28.880  1.00  0.00     0.001 A 
HETATM   10  C18 UNK     1      20.650  -1.028  29.007  1.00  0.00     0.000 A 
HETATM   11  C17 UNK     1      20.560  -1.706  30.222  1.00  0.00     0.001 A 
HETATM   12  C11 UNK     1      19.922  -1.108  31.310  1.00  0.00     0.012 A 
ENDBRANCH   5   7
BRANCH   6  13
HETATM   13  C7  UNK     1      17.935   0.683  34.705  1.00  0.00    -0.035 A 
HETATM   14  C14 UNK     1      16.583   0.433  34.937  1.00  0.00     0.011 A 
HETATM   15  C19 UNK     1      15.967   0.937  36.083  1.00  0.00     0.001 A 
HETATM   16  C21 UNK     1      16.705   1.690  36.997  1.00  0.00     0.000 A 
HETATM   17  C20 UNK     1      18.057   1.941  36.764  1.00  0.00     0.001 A 
HETATM   18  C15 UNK     1      18.673   1.437  35.618  1.00  0.00     0.011 A 
ENDBRANCH   6  13
ENDBRANCH   3   5
BRANCH   2  19
HETATM   19  C3  UNK     1      18.581   4.535  32.937  1.00  0.00     0.068 A 
HETATM   20  C6  UNK     1      19.007   5.396  31.940  1.00  0.00     0.097 A 
HETATM   21  C9  UNK     1      18.721   6.756  32.046  1.00  0.00     0.075 A 
HETATM   22  C12 UNK     1      18.013   7.236  33.149  1.00  0.00     0.105 A 
HETATM   23  C13 UNK     1      17.592   6.355  34.144  1.00  0.00     0.038 A 
HETATM   24  C8  UNK     1      17.878   4.994  34.038  1.00  0.00     0.035 A 
BRANCH  20  25
HETATM   25  O1  UNK     1      19.700   4.948  30.855  1.00  0.00    -0.354 OA
HETATM   26  C22 UNK     1      20.012   5.904  29.845  1.00  0.00     0.210 C 
ENDBRANCH  20  25
BRANCH  22  27
HETATM   27  N2  UNK     1      17.722   8.623  33.258  1.00  0.00    -0.116 N 
HETATM   28  O3  UNK     1      18.454   9.342  33.980  1.00  0.00    -0.532 OA
HETATM   29  O4  UNK     1      16.743   9.089  32.629  1.00  0.00    -0.532 OA
ENDBRANCH  22  27
ENDBRANCH   2  19
TORSDOF 6
ENDMDL
MODEL 5
REMARK VINA RESULT:      -7.9     11.820     14.123
REMARK  6 active torsions:
REMARK  status: ('A' for Active; 'I' for Inactive)
REMARK    1  A    between atoms: C6_12  and  O1_1 
REMARK    2  A    between atoms: C3_9  and  N1_5 
REMARK       I    between atoms: C4_10  and  N1_5 
REMARK    3  A    between atoms: C12_18  and  N2_6 
REMARK    4  A    between atoms: C1_7  and  C2_8 
REMARK    5  A    between atoms: C1_7  and  C4_10 
REMARK    6  A    between atoms: C5_11  and  C7_13 
ROOT
HETATM    1  O2  UNK     1      30.908  -4.983  32.945  1.00  0.00    -0.267 OA
HETATM    2  N1  UNK     1      31.570  -7.197  33.316  1.00  0.00    -0.320 N 
HETATM    3  C4  UNK     1      30.812  -6.054  33.539  1.00  0.00     0.257 C 
HETATM    4  H2  UNK     1      31.374  -8.010  33.896  1.00  0.00     0.169 HD
ENDROOT
BRANCH   3   5
HETATM    5  C1  UNK     1      29.797  -6.224  34.645  1.00  0.00     0.043 C 
HETATM    6  C5  UNK     1      28.610  -6.785  34.295  1.00  0.00     0.029 C 
BRANCH   5   7
HETATM    7  C2  UNK     1      30.096  -5.832  36.038  1.00  0.00    -0.021 A 
HETATM    8  C10 UNK     1      31.252  -5.121  36.306  1.00  0.00     0.012 A 
HETATM    9  C16 UNK     1      31.534  -4.750  37.620  1.00  0.00     0.001 A 
HETATM   10  C18 UNK     1      30.655  -5.097  38.647  1.00  0.00     0.000 A 
HETATM   11  C17 UNK     1      29.495  -5.814  38.358  1.00  0.00     0.001 A 
HETATM   12  C11 UNK     1      29.213  -6.185  37.043  1.00  0.00     0.012 A 
ENDBRANCH   5   7
BRANCH   6  13
HETATM   13  C7  UNK     1      28.210  -7.207  32.961  1.00  0.00    -0.035 A 
HETATM   14  C14 UNK     1      28.569  -8.471  32.493  1.00  0.00     0.011 A 
HETATM   15  C19 UNK     1      28.185  -8.876  31.214  1.00  0.00     0.001 A 
HETATM   16  C21 UNK     1      27.442  -8.017  30.405  1.00  0.00     0.000 A 
HETATM   17  C20 UNK     1      27.085  -6.752  30.872  1.00  0.00     0.001 A 
HETATM   18  C15 UNK     1      27.468  -6.347  32.151  1.00  0.00     0.011 A 
ENDBRANCH   6  13
ENDBRANCH   3   5
BRANCH   2  19
HETATM   19  C3  UNK     1      32.602  -7.375  32.361  1.00  0.00     0.068 A 
HETATM   20  C6  UNK     1      33.924  -7.196  32.730  1.00  0.00     0.097 A 
HETATM   21  C9  UNK     1      34.928  -7.375  31.780  1.00  0.00     0.075 A 
HETATM   22  C12 UNK     1      34.595  -7.732  30.473  1.00  0.00     0.105 A 
HETATM   23  C13 UNK     1      33.258  -7.908  30.117  1.00  0.00     0.038 A 
HETATM   24  C8  UNK     1      32.253  -7.729  31.068  1.00  0.00     0.035 A 
BRANCH  20  25
HETATM   25  O1  UNK     1      34.272  -6.848  34.002  1.00  0.00    -0.354 OA
HETATM   26  C22 UNK     1      34.711  -5.508  34.209  1.00  0.00     0.210 C 
ENDBRANCH  20  25
BRANCH  22  27
HETATM   27  N2  UNK     1      35.617  -7.914  29.503  1.00  0.00    -0.116 N 
HETATM   28  O3  UNK     1      35.737  -7.073  28.580  1.00  0.00    -0.532 OA
HETATM   29  O4  UNK     1      36.372  -8.912  29.597  1.00  0.00    -0.532 OA
ENDBRANCH  22  27
ENDBRANCH   2  19
TORSDOF 6
ENDMDL
MODEL 6
REMARK VINA RESULT:      -7.8     11.816     14.126
REMARK  6 active torsions:
REMARK  status: ('A' for Active; 'I' for Inactive)
REMARK    1  A    between atoms: C6_12  and  O1_1 
REMARK    2  A    between atoms: C3_9  and  N1_5 
REMARK       I    between atoms: C4_10  and  N1_5 
REMARK    3  A    between atoms: C12_18  and  N2_6 
REMARK    4  A    between atoms: C1_7  and  C2_8 
REMARK    5  A    between atoms: C1_7  and  C4_10 
REMARK    6  A    between atoms: C5_11  and  C7_13 
ROOT
HETATM    1  O2  UNK     1      30.921  -4.966  32.966  1.00  0.00    -0.267 OA
HETATM    2  N1  UNK     1      31.576  -7.182  33.338  1.00  0.00    -0.320 N 
HETATM    3  C4  UNK     1      30.824  -6.036  33.563  1.00  0.00     0.257 C 
HETATM    4  H2  UNK     1      31.378  -7.994  33.920  1.00  0.00     0.169 HD
ENDROOT
BRANCH   3   5
HETATM    5  C1  UNK     1      29.812  -6.201  34.674  1.00  0.00     0.043 C 
HETATM    6  C5  UNK     1      28.622  -6.759  34.330  1.00  0.00     0.029 C 
BRANCH   5   7
HETATM    7  C2  UNK     1      30.120  -5.807  36.065  1.00  0.00    -0.021 A 
HETATM    8  C10 UNK     1      31.286  -5.110  36.327  1.00  0.00     0.012 A 
HETATM    9  C16 UNK     1      31.575  -4.737  37.639  1.00  0.00     0.001 A 
HETATM   10  C18 UNK     1      30.693  -5.067  38.669  1.00  0.00     0.000 A 
HETATM   11  C17 UNK     1      29.522  -5.769  38.385  1.00  0.00     0.001 A 
HETATM   12  C11 UNK     1      29.233  -6.142  37.072  1.00  0.00     0.012 A 
ENDBRANCH   5   7
BRANCH   6  13
HETATM   13  C7  UNK     1      28.215  -7.183  32.999  1.00  0.00    -0.035 A 
HETATM   14  C14 UNK     1      27.472  -6.324  32.191  1.00  0.00     0.011 A 
HETATM   15  C19 UNK     1      27.082  -6.730  30.914  1.00  0.00     0.001 A 
HETATM   16  C21 UNK     1      27.438  -7.995  30.447  1.00  0.00     0.000 A 
HETATM   17  C20 UNK     1      28.182  -8.855  31.255  1.00  0.00     0.001 A 
HETATM   18  C15 UNK     1      28.571  -8.449  32.532  1.00  0.00     0.011 A 
ENDBRANCH   6  13
ENDBRANCH   3   5
BRANCH   2  19
HETATM   19  C3  UNK     1      32.602  -7.366  32.379  1.00  0.00     0.068 A 
HETATM   20  C6  UNK     1      33.927  -7.192  32.741  1.00  0.00     0.097 A 
HETATM   21  C9  UNK     1      34.925  -7.377  31.786  1.00  0.00     0.075 A 
HETATM   22  C12 UNK     1      34.584  -7.734  30.481  1.00  0.00     0.105 A 
HETATM   23  C13 UNK     1      33.245  -7.906  30.132  1.00  0.00     0.038 A 
HETATM   24  C8  UNK     1      32.246  -7.721  31.088  1.00  0.00     0.035 A 
BRANCH  20  25
HETATM   25  O1  UNK     1      34.282  -6.843  34.010  1.00  0.00    -0.354 OA
HETATM   26  C22 UNK     1      34.680  -5.491  34.223  1.00  0.00     0.210 C 
ENDBRANCH  20  25
BRANCH  22  27
HETATM   27  N2  UNK     1      35.602  -7.923  29.507  1.00  0.00    -0.116 N 
HETATM   28  O3  UNK     1      36.356  -8.921  29.603  1.00  0.00    -0.532 OA
HETATM   29  O4  UNK     1      35.717  -7.087  28.579  1.00  0.00    -0.532 OA
ENDBRANCH  22  27
ENDBRANCH   2  19
TORSDOF 6
ENDMDL
MODEL 7
REMARK VINA RESULT:      -7.8     11.678     13.970
REMARK  6 active torsions:
REMARK  status: ('A' for Active; 'I' for Inactive)
REMARK    1  A    between atoms: C6_12  and  O1_1 
REMARK    2  A    between atoms: C3_9  and  N1_5 
REMARK       I    between atoms: C4_10  and  N1_5 
REMARK    3  A    between atoms: C12_18  and  N2_6 
REMARK    4  A    between atoms: C1_7  and  C2_8 
REMARK    5  A    between atoms: C1_7  and  C4_10 
REMARK    6  A    between atoms: C5_11  and  C7_13 
ROOT
HETATM    1  O2  UNK     1      30.902  -5.007  32.823  1.00  0.00    -0.267 OA
HETATM    2  N1  UNK     1      31.662  -7.171  33.290  1.00  0.00    -0.320 N 
HETATM    3  C4  UNK     1      30.867  -6.047  33.477  1.00  0.00     0.257 C 
HETATM    4  H2  UNK     1      31.516  -7.958  33.919  1.00  0.00     0.169 HD
ENDROOT
BRANCH   3   5
HETATM    5  C1  UNK     1      29.894  -6.195  34.625  1.00  0.00     0.043 C 
HETATM    6  C5  UNK     1      28.687  -6.742  34.327  1.00  0.00     0.029 C 
BRANCH   5   7
HETATM    7  C2  UNK     1      30.256  -5.796  36.001  1.00  0.00    -0.021 A 
HETATM    8  C10 UNK     1      31.407  -5.059  36.211  1.00  0.00     0.012 A 
HETATM    9  C16 UNK     1      31.747  -4.682  37.509  1.00  0.00     0.001 A 
HETATM   10  C18 UNK     1      30.929  -5.049  38.579  1.00  0.00     0.000 A 
HETATM   11  C17 UNK     1      29.772  -5.791  38.348  1.00  0.00     0.001 A 
HETATM   12  C11 UNK     1      29.432  -6.168  37.049  1.00  0.00     0.012 A 
ENDBRANCH   5   7
BRANCH   6  13
HETATM   13  C7  UNK     1      28.229  -7.169  33.014  1.00  0.00    -0.035 A 
HETATM   14  C14 UNK     1      28.469  -8.473  32.581  1.00  0.00     0.011 A 
HETATM   15  C19 UNK     1      28.028  -8.882  31.323  1.00  0.00     0.001 A 
HETATM   16  C21 UNK     1      27.347  -7.988  30.497  1.00  0.00     0.000 A 
HETATM   17  C20 UNK     1      27.107  -6.683  30.930  1.00  0.00     0.001 A 
HETATM   18  C15 UNK     1      27.547  -6.274  32.189  1.00  0.00     0.011 A 
ENDBRANCH   6  13
ENDBRANCH   3   5
BRANCH   2  19
HETATM   19  C3  UNK     1      32.669  -7.362  32.312  1.00  0.00     0.068 A 
HETATM   20  C6  UNK     1      32.318  -7.532  30.983  1.00  0.00     0.097 A 
HETATM   21  C9  UNK     1      33.320  -7.719  30.032  1.00  0.00     0.075 A 
HETATM   22  C12 UNK     1      34.659  -7.733  30.423  1.00  0.00     0.105 A 
HETATM   23  C13 UNK     1      34.995  -7.559  31.765  1.00  0.00     0.038 A 
HETATM   24  C8  UNK     1      33.993  -7.373  32.717  1.00  0.00     0.035 A 
BRANCH  20  25
HETATM   25  O1  UNK     1      31.016  -7.523  30.580  1.00  0.00    -0.354 OA
HETATM   26  C22 UNK     1      30.657  -6.580  29.573  1.00  0.00     0.210 C 
ENDBRANCH  20  25
BRANCH  22  27
HETATM   27  N2  UNK     1      35.681  -7.923  29.454  1.00  0.00    -0.116 N 
HETATM   28  O3  UNK     1      36.442  -8.915  29.561  1.00  0.00    -0.532 OA
HETATM   29  O4  UNK     1      35.793  -7.095  28.519  1.00  0.00    -0.532 OA
ENDBRANCH  22  27
ENDBRANCH   2  19
TORSDOF 6
ENDMDL
MODEL 8
REMARK VINA RESULT:      -7.7      2.862      6.909
REMARK  6 active torsions:
REMARK  status: ('A' for Active; 'I' for Inactive)
REMARK    1  A    between atoms: C6_12  and  O1_1 
REMARK    2  A    between atoms: C3_9  and  N1_5 
REMARK       I    between atoms: C4_10  and  N1_5 
REMARK    3  A    between atoms: C12_18  and  N2_6 
REMARK    4  A    between atoms: C1_7  and  C2_8 
REMARK    5  A    between atoms: C1_7  and  C4_10 
REMARK    6  A    between atoms: C5_11  and  C7_13 
ROOT
HETATM    1  O2  UNK     1      21.441  -1.792  35.127  1.00  0.00    -0.267 OA
HETATM    2  N1  UNK     1      19.704  -3.360  35.083  1.00  0.00    -0.320 N 
HETATM    3  C4  UNK     1      20.379  -2.214  34.678  1.00  0.00     0.257 C 
HETATM    4  H2  UNK     1      18.827  -3.577  34.614  1.00  0.00     0.169 HD
ENDROOT
BRANCH   3   5
HETATM    5  C1  UNK     1      19.662  -1.464  33.579  1.00  0.00     0.043 C 
HETATM    6  C5  UNK     1      18.712  -0.577  33.972  1.00  0.00     0.029 C 
BRANCH   5   7
HETATM    7  C2  UNK     1      20.006  -1.663  32.155  1.00  0.00    -0.021 A 
HETATM    8  C10 UNK     1      20.619  -2.841  31.767  1.00  0.00     0.012 A 
HETATM    9  C16 UNK     1      20.942  -3.028  30.423  1.00  0.00     0.001 A 
HETATM   10  C18 UNK     1      20.648  -2.035  29.489  1.00  0.00     0.000 A 
HETATM   11  C17 UNK     1      20.029  -0.855  29.899  1.00  0.00     0.001 A 
HETATM   12  C11 UNK     1      19.706  -0.667  31.244  1.00  0.00     0.012 A 
ENDBRANCH   5   7
BRANCH   6  13
HETATM   13  C7  UNK     1      18.295  -0.301  35.339  1.00  0.00    -0.035 A 
HETATM   14  C14 UNK     1      17.634  -1.282  36.077  1.00  0.00     0.011 A 
HETATM   15  C19 UNK     1      17.235  -1.018  37.388  1.00  0.00     0.001 A 
HETATM   16  C21 UNK     1      17.500   0.226  37.960  1.00  0.00     0.000 A 
HETATM   17  C20 UNK     1      18.161   1.207  37.221  1.00  0.00     0.001 A 
HETATM   18  C15 UNK     1      18.560   0.944  35.911  1.00  0.00     0.011 A 
ENDBRANCH   6  13
ENDBRANCH   3   5
BRANCH   2  19
HETATM   19  C3  UNK     1      20.096  -4.283  36.084  1.00  0.00     0.068 A 
HETATM   20  C6  UNK     1      20.320  -5.608  35.753  1.00  0.00     0.097 A 
HETATM   21  C9  UNK     1      20.705  -6.504  36.749  1.00  0.00     0.075 A 
HETATM   22  C12 UNK     1      20.861  -6.062  38.063  1.00  0.00     0.105 A 
HETATM   23  C13 UNK     1      20.631  -4.723  38.379  1.00  0.00     0.038 A 
HETATM   24  C8  UNK     1      20.246  -3.826  37.383  1.00  0.00     0.035 A 
BRANCH  20  25
HETATM   25  O1  UNK     1      20.173  -6.062  34.475  1.00  0.00    -0.354 OA
HETATM   26  C22 UNK     1      20.549  -7.413  34.220  1.00  0.00     0.210 C 
ENDBRANCH  20  25
BRANCH  22  27
HETATM   27  N2  UNK     1      21.253  -6.974  39.078  1.00  0.00    -0.116 N 
HETATM   28  O3  UNK     1      22.424  -6.918  39.526  1.00  0.00    -0.532 OA
HETATM   29  O4  UNK     1      20.419  -7.811  39.499  1.00  0.00    -0.532 OA
ENDBRANCH  22  27
ENDBRANCH   2  19
TORSDOF 6
ENDMDL
MODEL 9
REMARK VINA RESULT:      -7.5     11.692     13.466
REMARK  6 active torsions:
REMARK  status: ('A' for Active; 'I' for Inactive)
REMARK    1  A    between atoms: C6_12  and  O1_1 
REMARK    2  A    between atoms: C3_9  and  N1_5 
REMARK       I    between atoms: C4_10  and  N1_5 
REMARK    3  A    between atoms: C12_18  and  N2_6 
REMARK    4  A    between atoms: C1_7  and  C2_8 
REMARK    5  A    between atoms: C1_7  and  C4_10 
REMARK    6  A    between atoms: C5_11  and  C7_13 
ROOT
HETATM    1  O2  UNK     1      31.685  -8.747  35.616  1.00  0.00    -0.267 OA
HETATM    2  N1  UNK     1      30.271  -7.012  34.929  1.00  0.00    -0.320 N 
HETATM    3  C4  UNK     1      30.972  -7.775  35.855  1.00  0.00     0.257 C 
HETATM    4  H2  UNK     1      29.718  -6.235  35.284  1.00  0.00     0.169 HD
ENDROOT
BRANCH   3   5
HETATM    5  C1  UNK     1      30.777  -7.303  37.278  1.00  0.00     0.043 C 
HETATM    6  C5  UNK     1      31.649  -6.363  37.728  1.00  0.00     0.029 C 
BRANCH   5   7
HETATM    7  C2  UNK     1      29.675  -7.814  38.119  1.00  0.00    -0.021 A 
HETATM    8  C10 UNK     1      28.837  -6.915  38.753  1.00  0.00     0.012 A 
HETATM    9  C16 UNK     1      27.796  -7.397  39.546  1.00  0.00     0.001 A 
HETATM   10  C18 UNK     1      27.609  -8.772  39.691  1.00  0.00     0.000 A 
HETATM   11  C17 UNK     1      28.463  -9.664  39.043  1.00  0.00     0.001 A 
HETATM   12  C11 UNK     1      29.505  -9.181  38.251  1.00  0.00     0.012 A 
ENDBRANCH   5   7
BRANCH   6  13
HETATM   13  C7  UNK     1      32.765  -5.792  36.989  1.00  0.00    -0.035 A 
HETATM   14  C14 UNK     1      34.034  -6.359  37.095  1.00  0.00     0.011 A 
HETATM   15  C19 UNK     1      35.104  -5.811  36.386  1.00  0.00     0.001 A 
HETATM   16  C21 UNK     1      34.903  -4.697  35.571  1.00  0.00     0.000 A 
HETATM   17  C20 UNK     1      33.633  -4.129  35.466  1.00  0.00     0.001 A 
HETATM   18  C15 UNK     1      32.564  -4.677  36.175  1.00  0.00     0.011 A 
ENDBRANCH   6  13
ENDBRANCH   3   5
BRANCH   2  19
HETATM   19  C3  UNK     1      30.234  -7.183  33.523  1.00  0.00     0.068 A 
HETATM   20  C6  UNK     1      29.334  -8.071  32.958  1.00  0.00     0.097 A 
HETATM   21  C9  UNK     1      29.309  -8.228  31.573  1.00  0.00     0.075 A 
HETATM   22  C12 UNK     1      30.184  -7.494  30.772  1.00  0.00     0.105 A 
HETATM   23  C13 UNK     1      31.084  -6.603  31.357  1.00  0.00     0.038 A 
HETATM   24  C8  UNK     1      31.110  -6.446  32.743  1.00  0.00     0.035 A 
BRANCH  20  25
HETATM   25  O1  UNK     1      28.471  -8.799  33.722  1.00  0.00    -0.354 OA
HETATM   26  C22 UNK     1      28.810 -10.162  33.962  1.00  0.00     0.210 C 
ENDBRANCH  20  25
BRANCH  22  27
HETATM   27  N2  UNK     1      30.159  -7.653  29.361  1.00  0.00    -0.116 N 
HETATM   28  O3  UNK     1      29.313  -8.428  28.852  1.00  0.00    -0.532 OA
HETATM   29  O4  UNK     1      30.983  -7.016  28.662  1.00  0.00    -0.532 OA
ENDBRANCH  22  27
ENDBRANCH   2  19
TORSDOF 6
ENDMDL
MODEL 10
REMARK VINA RESULT:      -7.5     11.694     13.513
REMARK  6 active torsions:
REMARK  status: ('A' for Active; 'I' for Inactive)
REMARK    1  A    between atoms: C6_12  and  O1_1 
REMARK    2  A    between atoms: C3_9  and  N1_5 
REMARK       I    between atoms: C4_10  and  N1_5 
REMARK    3  A    between atoms: C12_18  and  N2_6 
REMARK    4  A    between atoms: C1_7  and  C2_8 
REMARK    5  A    between atoms: C1_7  and  C4_10 
REMARK    6  A    between atoms: C5_11  and  C7_13 
ROOT
HETATM    1  O2  UNK     1      31.683  -8.731  35.623  1.00  0.00    -0.267 OA
HETATM    2  N1  UNK     1      30.056  -7.180  34.972  1.00  0.00    -0.320 N 
HETATM    3  C4  UNK     1      30.876  -7.840  35.878  1.00  0.00     0.257 C 
HETATM    4  H2  UNK     1      29.434  -6.462  35.338  1.00  0.00     0.169 HD
ENDROOT
BRANCH   3   5
HETATM    5  C1  UNK     1      30.690  -7.363  37.300  1.00  0.00     0.043 C 
HETATM    6  C5  UNK     1      31.549  -6.404  37.733  1.00  0.00     0.029 C 
BRANCH   5   7
HETATM    7  C2  UNK     1      29.608  -7.891  38.158  1.00  0.00    -0.021 A 
HETATM    8  C10 UNK     1      28.752  -7.004  38.786  1.00  0.00     0.012 A 
HETATM    9  C16 UNK     1      27.730  -7.502  39.594  1.00  0.00     0.001 A 
HETATM   10  C18 UNK     1      27.581  -8.879  39.762  1.00  0.00     0.000 A 
HETATM   11  C17 UNK     1      28.453  -9.757  39.120  1.00  0.00     0.001 A 
HETATM   12  C11 UNK     1      29.476  -9.259  38.311  1.00  0.00     0.012 A 
ENDBRANCH   5   7
BRANCH   6  13
HETATM   13  C7  UNK     1      32.644  -5.815  36.978  1.00  0.00    -0.035 A 
HETATM   14  C14 UNK     1      32.434  -4.654  36.235  1.00  0.00     0.011 A 
HETATM   15  C19 UNK     1      33.484  -4.089  35.511  1.00  0.00     0.001 A 
HETATM   16  C21 UNK     1      34.745  -4.686  35.531  1.00  0.00     0.000 A 
HETATM   17  C20 UNK     1      34.955  -5.849  36.273  1.00  0.00     0.001 A 
HETATM   18  C15 UNK     1      33.904  -6.413  36.997  1.00  0.00     0.011 A 
ENDBRANCH   6  13
ENDBRANCH   3   5
BRANCH   2  19
HETATM   19  C3  UNK     1      29.979  -7.383  33.572  1.00  0.00     0.068 A 
HETATM   20  C6  UNK     1      31.019  -6.972  32.755  1.00  0.00     0.097 A 
HETATM   21  C9  UNK     1      30.928  -7.179  31.379  1.00  0.00     0.075 A 
HETATM   22  C12 UNK     1      29.799  -7.796  30.840  1.00  0.00     0.105 A 
HETATM   23  C13 UNK     1      28.761  -8.204  31.676  1.00  0.00     0.038 A 
HETATM   24  C8  UNK     1      28.851  -7.997  33.053  1.00  0.00     0.035 A 
BRANCH  20  25
HETATM   25  O1  UNK     1      32.130  -6.367  33.261  1.00  0.00    -0.354 OA
HETATM   26  C22 UNK     1      33.378  -7.024  33.051  1.00  0.00     0.210 C 
ENDBRANCH  20  25
BRANCH  22  27
HETATM   27  N2  UNK     1      29.706  -8.007  29.438  1.00  0.00    -0.116 N 
HETATM   28  O3  UNK     1      28.838  -8.800  28.999  1.00  0.00    -0.532 OA
HETATM   29  O4  UNK     1      30.494  -7.396  28.677  1.00  0.00    -0.532 OA
ENDBRANCH  22  27
ENDBRANCH   2  19
TORSDOF 6
ENDMDL
