MODEL 1
REMARK VINA RESULT:      -6.9      0.000      0.000
REMARK  1 active torsions:
REMARK  status: ('A' for Active; 'I' for Inactive)
REMARK    1  A    between atoms: C7_10  and  N1_3 
ROOT
HETATM    1  O1  UNK     1      18.923   1.321  31.911  1.00  0.00    -0.293 OA
HETATM    2  O2  UNK     1      18.027   2.399  28.090  1.00  0.00    -0.287 OA
HETATM    3  C1  UNK     1      19.026   0.821  29.537  1.00  0.00     0.048 A 
HETATM    4  C2  UNK     1      19.300   0.514  30.868  1.00  0.00     0.092 A 
HETATM    5  C3  UNK     1      18.302   2.063  29.233  1.00  0.00     0.189 A 
HETATM    6  C4  UNK     1      19.434  -0.038  28.514  1.00  0.00     0.018 A 
HETATM    7  C5  UNK     1      19.986  -0.658  31.185  1.00  0.00     0.038 A 
HETATM    8  C6  UNK     1      17.923   2.891  30.393  1.00  0.00     0.111 A 
HETATM    9  C7  UNK     1      18.237   2.500  31.640  1.00  0.00     0.145 A 
HETATM   10  C8  UNK     1      20.120  -1.210  28.834  1.00  0.00     0.001 A 
HETATM   11  C9  UNK     1      20.396  -1.520  30.167  1.00  0.00     0.003 A 
ENDROOT
BRANCH   9  12
HETATM   12  N1  UNK     1      17.906   3.234  32.743  1.00  0.00    -0.380 N 
HETATM   13  H6  UNK     1      16.955   3.567  32.847  1.00  0.00     0.158 HD
HETATM   14  H7  UNK     1      18.602   3.442  33.448  1.00  0.00     0.158 HD
ENDBRANCH   9  12
TORSDOF 1
ENDMDL
MODEL 2
REMARK VINA RESULT:      -6.7     10.497     11.786
REMARK  1 active torsions:
REMARK  status: ('A' for Active; 'I' for Inactive)
REMARK    1  A    between atoms: C7_10  and  N1_3 
ROOT
HETATM    1  O1  UNK     1      20.337   3.648  19.522  1.00  0.00    -0.293 OA
HETATM    2  O2  UNK     1      18.747   1.861  16.229  1.00  0.00    -0.287 OA
HETATM    3  C1  UNK     1      19.283   1.701  18.525  1.00  0.00     0.048 A 
HETATM    4  C2  UNK     1      19.841   2.372  19.610  1.00  0.00     0.092 A 
HETATM    5  C3  UNK     1      19.222   2.386  17.226  1.00  0.00     0.189 A 
HETATM    6  C4  UNK     1      18.793   0.402  18.672  1.00  0.00     0.018 A 
HETATM    7  C5  UNK     1      19.913   1.745  20.854  1.00  0.00     0.038 A 
HETATM    8  C6  UNK     1      19.770   3.756  17.191  1.00  0.00     0.111 A 
HETATM    9  C7  UNK     1      20.286   4.310  18.300  1.00  0.00     0.145 A 
HETATM   10  C8  UNK     1      18.866  -0.223  19.917  1.00  0.00     0.001 A 
HETATM   11  C9  UNK     1      19.425   0.447  21.007  1.00  0.00     0.003 A 
ENDROOT
BRANCH   9  12
HETATM   12  N1  UNK     1      20.804   5.574  18.315  1.00  0.00    -0.380 N 
HETATM   13  H6  UNK     1      21.785   5.707  18.105  1.00  0.00     0.158 HD
HETATM   14  H7  UNK     1      20.214   6.367  18.532  1.00  0.00     0.158 HD
ENDBRANCH   9  12
TORSDOF 1
ENDMDL
MODEL 3
REMARK VINA RESULT:      -6.3     10.415     11.926
REMARK  1 active torsions:
REMARK  status: ('A' for Active; 'I' for Inactive)
REMARK    1  A    between atoms: C7_10  and  N1_3 
ROOT
HETATM    1  O1  UNK     1      19.874   1.611  20.379  1.00  0.00    -0.293 OA
HETATM    2  O2  UNK     1      18.273  -0.710  17.443  1.00  0.00    -0.287 OA
HETATM    3  C1  UNK     1      19.170   1.385  18.066  1.00  0.00     0.048 A 
HETATM    4  C2  UNK     1      19.710   2.122  19.117  1.00  0.00     0.092 A 
HETATM    5  C3  UNK     1      18.755  -0.002  18.316  1.00  0.00     0.189 A 
HETATM    6  C4  UNK     1      19.027   1.958  16.800  1.00  0.00     0.018 A 
HETATM    7  C5  UNK     1      20.112   3.442  18.907  1.00  0.00     0.038 A 
HETATM    8  C6  UNK     1      18.954  -0.499  19.691  1.00  0.00     0.111 A 
HETATM    9  C7  UNK     1      19.486   0.299  20.632  1.00  0.00     0.145 A 
HETATM   10  C8  UNK     1      19.430   3.277  16.594  1.00  0.00     0.001 A 
HETATM   11  C9  UNK     1      19.971   4.018  17.645  1.00  0.00     0.003 A 
ENDROOT
BRANCH   9  12
HETATM   12  N1  UNK     1      19.689  -0.118  21.917  1.00  0.00    -0.380 N 
HETATM   13  H6  UNK     1      19.178  -0.921  22.260  1.00  0.00     0.158 HD
HETATM   14  H7  UNK     1      20.341   0.371  22.517  1.00  0.00     0.158 HD
ENDBRANCH   9  12
TORSDOF 1
ENDMDL
MODEL 4
REMARK VINA RESULT:      -6.3      2.188      3.719
REMARK  1 active torsions:
REMARK  status: ('A' for Active; 'I' for Inactive)
REMARK    1  A    between atoms: C7_10  and  N1_3 
ROOT
HETATM    1  O1  UNK     1      19.895  -0.063  31.845  1.00  0.00    -0.293 OA
HETATM    2  O2  UNK     1      19.765  -0.815  27.846  1.00  0.00    -0.287 OA
HETATM    3  C1  UNK     1      19.217   0.644  29.622  1.00  0.00     0.048 A 
HETATM    4  C2  UNK     1      19.297   0.836  31.000  1.00  0.00     0.092 A 
HETATM    5  C3  UNK     1      19.797  -0.577  29.045  1.00  0.00     0.189 A 
HETATM    6  C4  UNK     1      18.596   1.594  28.809  1.00  0.00     0.018 A 
HETATM    7  C5  UNK     1      18.754   1.986  31.574  1.00  0.00     0.038 A 
HETATM    8  C6  UNK     1      20.426  -1.509  30.001  1.00  0.00     0.111 A 
HETATM    9  C7  UNK     1      20.449  -1.223  31.314  1.00  0.00     0.145 A 
HETATM   10  C8  UNK     1      18.054   2.743  29.386  1.00  0.00     0.001 A 
HETATM   11  C9  UNK     1      18.133   2.939  30.766  1.00  0.00     0.003 A 
ENDROOT
BRANCH   9  12
HETATM   12  N1  UNK     1      21.020  -2.055  32.234  1.00  0.00    -0.380 N 
HETATM   13  H6  UNK     1      21.754  -1.699  32.832  1.00  0.00     0.158 HD
HETATM   14  H7  UNK     1      20.712  -3.016  32.317  1.00  0.00     0.158 HD
ENDBRANCH   9  12
TORSDOF 1
ENDMDL
MODEL 5
REMARK VINA RESULT:      -6.2      5.674      6.845
REMARK  1 active torsions:
REMARK  status: ('A' for Active; 'I' for Inactive)
REMARK    1  A    between atoms: C7_10  and  N1_3 
ROOT
HETATM    1  O1  UNK     1      16.950   7.219  30.855  1.00  0.00    -0.293 OA
HETATM    2  O2  UNK     1      18.544   7.673  34.573  1.00  0.00    -0.287 OA
HETATM    3  C1  UNK     1      18.829   6.895  32.360  1.00  0.00     0.048 A 
HETATM    4  C2  UNK     1      18.221   6.772  31.112  1.00  0.00     0.092 A 
HETATM    5  C3  UNK     1      18.077   7.530  33.452  1.00  0.00     0.189 A 
HETATM    6  C4  UNK     1      20.127   6.422  32.565  1.00  0.00     0.018 A 
HETATM    7  C5  UNK     1      18.912   6.173  30.058  1.00  0.00     0.038 A 
HETATM    8  C6  UNK     1      16.716   7.990  33.118  1.00  0.00     0.111 A 
HETATM    9  C7  UNK     1      16.226   7.822  31.878  1.00  0.00     0.145 A 
HETATM   10  C8  UNK     1      20.815   5.824  31.509  1.00  0.00     0.001 A 
HETATM   11  C9  UNK     1      20.209   5.699  30.258  1.00  0.00     0.003 A 
ENDROOT
BRANCH   9  12
HETATM   12  N1  UNK     1      14.972   8.232  31.524  1.00  0.00    -0.380 N 
HETATM   13  H6  UNK     1      14.170   7.802  31.967  1.00  0.00     0.158 HD
HETATM   14  H7  UNK     1      14.848   8.955  30.827  1.00  0.00     0.158 HD
ENDBRANCH   9  12
TORSDOF 1
ENDMDL
MODEL 6
REMARK VINA RESULT:      -6.2      1.456      2.732
REMARK  1 active torsions:
REMARK  status: ('A' for Active; 'I' for Inactive)
REMARK    1  A    between atoms: C7_10  and  N1_3 
ROOT
HETATM    1  O1  UNK     1      19.313   1.351  28.993  1.00  0.00    -0.293 OA
HETATM    2  O2  UNK     1      18.619   1.026  32.991  1.00  0.00    -0.287 OA
HETATM    3  C1  UNK     1      19.453   0.022  31.021  1.00  0.00     0.048 A 
HETATM    4  C2  UNK     1      19.660   0.201  29.656  1.00  0.00     0.092 A 
HETATM    5  C3  UNK     1      18.833   1.110  31.790  1.00  0.00     0.189 A 
HETATM    6  C4  UNK     1      19.826  -1.171  31.644  1.00  0.00     0.018 A 
HETATM    7  C5  UNK     1      20.246  -0.816  28.901  1.00  0.00     0.038 A 
HETATM    8  C6  UNK     1      18.479   2.322  31.026  1.00  0.00     0.111 A 
HETATM    9  C7  UNK     1      18.726   2.390  29.707  1.00  0.00     0.145 A 
HETATM   10  C8  UNK     1      20.412  -2.186  30.887  1.00  0.00     0.001 A 
HETATM   11  C9  UNK     1      20.622  -2.010  29.519  1.00  0.00     0.003 A 
ENDROOT
BRANCH   9  12
HETATM   12  N1  UNK     1      18.416   3.491  28.960  1.00  0.00    -0.380 N 
HETATM   13  H6  UNK     1      18.393   4.399  29.407  1.00  0.00     0.158 HD
HETATM   14  H7  UNK     1      18.213   3.400  27.973  1.00  0.00     0.158 HD
ENDBRANCH   9  12
TORSDOF 1
ENDMDL
MODEL 7
REMARK VINA RESULT:      -6.2      5.806      6.486
REMARK  1 active torsions:
REMARK  status: ('A' for Active; 'I' for Inactive)
REMARK    1  A    between atoms: C7_10  and  N1_3 
ROOT
HETATM    1  O1  UNK     1      18.340   6.855  34.148  1.00  0.00    -0.293 OA
HETATM    2  O2  UNK     1      15.704   7.615  31.141  1.00  0.00    -0.287 OA
HETATM    3  C1  UNK     1      17.846   6.842  31.770  1.00  0.00     0.048 A 
HETATM    4  C2  UNK     1      18.698   6.606  32.847  1.00  0.00     0.092 A 
HETATM    5  C3  UNK     1      16.505   7.381  32.035  1.00  0.00     0.189 A 
HETATM    6  C4  UNK     1      18.264   6.571  30.465  1.00  0.00     0.018 A 
HETATM    7  C5  UNK     1      19.977   6.095  32.624  1.00  0.00     0.038 A 
HETATM    8  C6  UNK     1      16.176   7.630  33.452  1.00  0.00     0.111 A 
HETATM    9  C7  UNK     1      17.074   7.365  34.415  1.00  0.00     0.145 A 
HETATM   10  C8  UNK     1      19.543   6.060  30.246  1.00  0.00     0.001 A 
HETATM   11  C9  UNK     1      20.398   5.822  31.322  1.00  0.00     0.003 A 
ENDROOT
BRANCH   9  12
HETATM   12  N1  UNK     1      16.813   7.578  35.739  1.00  0.00    -0.380 N 
HETATM   13  H6  UNK     1      16.438   6.821  36.295  1.00  0.00     0.158 HD
HETATM   14  H7  UNK     1      16.993   8.482  36.157  1.00  0.00     0.158 HD
ENDBRANCH   9  12
TORSDOF 1
ENDMDL
MODEL 8
REMARK VINA RESULT:      -6.2      9.867     11.379
REMARK  1 active torsions:
REMARK  status: ('A' for Active; 'I' for Inactive)
REMARK    1  A    between atoms: C7_10  and  N1_3 
ROOT
HETATM    1  O1  UNK     1      18.677  -7.238  37.349  1.00  0.00    -0.293 OA
HETATM    2  O2  UNK     1      21.169  -7.985  34.219  1.00  0.00    -0.287 OA
HETATM    3  C1  UNK     1      20.180  -8.772  36.215  1.00  0.00     0.048 A 
HETATM    4  C2  UNK     1      19.315  -8.449  37.258  1.00  0.00     0.092 A 
HETATM    5  C3  UNK     1      20.423  -7.774  35.164  1.00  0.00     0.189 A 
HETATM    6  C4  UNK     1      20.803 -10.021  36.173  1.00  0.00     0.018 A 
HETATM    7  C5  UNK     1      19.067  -9.378  38.269  1.00  0.00     0.038 A 
HETATM    8  C6  UNK     1      19.711  -6.490  35.314  1.00  0.00     0.111 A 
HETATM    9  C7  UNK     1      18.896  -6.283  36.362  1.00  0.00     0.145 A 
HETATM   10  C8  UNK     1      20.553 -10.948  37.185  1.00  0.00     0.001 A 
HETATM   11  C9  UNK     1      19.686 -10.627  38.232  1.00  0.00     0.003 A 
ENDROOT
BRANCH   9  12
HETATM   12  N1  UNK     1      18.217  -5.112  36.541  1.00  0.00    -0.380 N 
HETATM   13  H6  UNK     1      17.262  -5.142  36.875  1.00  0.00     0.158 HD
HETATM   14  H7  UNK     1      18.664  -4.226  36.343  1.00  0.00     0.158 HD
ENDBRANCH   9  12
TORSDOF 1
ENDMDL
MODEL 9
REMARK VINA RESULT:      -6.0     11.871     13.361
REMARK  1 active torsions:
REMARK  status: ('A' for Active; 'I' for Inactive)
REMARK    1  A    between atoms: C7_10  and  N1_3 
ROOT
HETATM    1  O1  UNK     1      19.147  -0.877  17.243  1.00  0.00    -0.293 OA
HETATM    2  O2  UNK     1      19.297   2.853  15.619  1.00  0.00    -0.287 OA
HETATM    3  C1  UNK     1      19.117   1.530  17.568  1.00  0.00     0.048 A 
HETATM    4  C2  UNK     1      19.071   0.226  18.055  1.00  0.00     0.092 A 
HETATM    5  C3  UNK     1      19.251   1.738  16.120  1.00  0.00     0.189 A 
HETATM    6  C4  UNK     1      19.035   2.616  18.443  1.00  0.00     0.018 A 
HETATM    7  C5  UNK     1      18.943  -0.001  19.426  1.00  0.00     0.038 A 
HETATM    8  C6  UNK     1      19.327   0.517  15.295  1.00  0.00     0.111 A 
HETATM    9  C7  UNK     1      19.275  -0.696  15.870  1.00  0.00     0.145 A 
HETATM   10  C8  UNK     1      18.907   2.386  19.813  1.00  0.00     0.001 A 
HETATM   11  C9  UNK     1      18.861   1.080  20.304  1.00  0.00     0.003 A 
ENDROOT
BRANCH   9  12
HETATM   12  N1  UNK     1      19.342  -1.853  15.146  1.00  0.00    -0.380 N 
HETATM   13  H6  UNK     1      19.469  -1.800  14.144  1.00  0.00     0.158 HD
HETATM   14  H7  UNK     1      19.265  -2.750  15.608  1.00  0.00     0.158 HD
ENDBRANCH   9  12
TORSDOF 1
ENDMDL
MODEL 10
REMARK VINA RESULT:      -6.0      2.407      3.238
REMARK  1 active torsions:
REMARK  status: ('A' for Active; 'I' for Inactive)
REMARK    1  A    between atoms: C7_10  and  N1_3 
ROOT
HETATM    1  O1  UNK     1      19.411  -1.652  33.005  1.00  0.00    -0.293 OA
HETATM    2  O2  UNK     1      18.008   2.130  32.462  1.00  0.00    -0.287 OA
HETATM    3  C1  UNK     1      19.156   0.277  31.551  1.00  0.00     0.048 A 
HETATM    4  C2  UNK     1      19.609  -1.016  31.806  1.00  0.00     0.092 A 
HETATM    5  C3  UNK     1      18.435   0.994  32.612  1.00  0.00     0.189 A 
HETATM    6  C4  UNK     1      19.386   0.876  30.311  1.00  0.00     0.018 A 
HETATM    7  C5  UNK     1      20.297  -1.720  30.817  1.00  0.00     0.038 A 
HETATM    8  C6  UNK     1      18.252   0.262  33.880  1.00  0.00     0.111 A 
HETATM    9  C7  UNK     1      18.730  -0.987  34.019  1.00  0.00     0.145 A 
HETATM   10  C8  UNK     1      20.075   0.169  29.325  1.00  0.00     0.001 A 
HETATM   11  C9  UNK     1      20.530  -1.126  29.577  1.00  0.00     0.003 A 
ENDROOT
BRANCH   9  12
HETATM   12  N1  UNK     1      18.584  -1.702  35.173  1.00  0.00    -0.380 N 
HETATM   13  H6  UNK     1      18.450  -2.704  35.118  1.00  0.00     0.158 HD
HETATM   14  H7  UNK     1      18.608  -1.236  36.071  1.00  0.00     0.158 HD
ENDBRANCH   9  12
TORSDOF 1
ENDMDL
