MODEL 1
REMARK VINA RESULT:      -9.2      0.000      0.000
REMARK  3 active torsions:
REMARK  status: ('A' for Active; 'I' for Inactive)
REMARK    1  A    between atoms: C1_5  and  N1_4 
REMARK       I    between atoms: C9_13  and  N1_4 
REMARK    2  A    between atoms: C2_6  and  C4_8 
REMARK    3  A    between atoms: C7_11  and  C9_13 
ROOT
HETATM    1  O2  UNK     1      20.260  -5.243  35.104  1.00  0.00    -0.267 OA
HETATM    2  N1  UNK     1      19.791  -5.023  37.401  1.00  0.00    -0.322 N 
HETATM    3  C9  UNK     1      19.931  -4.587  36.090  1.00  0.00     0.262 C 
HETATM    4  H4  UNK     1      19.387  -4.387  38.085  1.00  0.00     0.169 HD
ENDROOT
BRANCH   3   5
HETATM    5  C7  UNK     1      19.630  -3.157  35.947  1.00  0.00     0.108 A 
HETATM    6  C13 UNK     1      18.909  -2.604  36.929  1.00  0.00     0.037 A 
HETATM    7  C10 UNK     1      18.560  -1.193  36.876  1.00  0.00    -0.001 A 
HETATM    8  C14 UNK     1      18.986  -0.434  35.792  1.00  0.00     0.089 A 
HETATM    9  C16 UNK     1      17.810  -0.573  37.880  1.00  0.00     0.014 A 
HETATM   10  O1  UNK     1      19.744  -1.023  34.761  1.00  0.00    -0.274 OA
HETATM   11  C17 UNK     1      18.684   0.922  35.681  1.00  0.00     0.038 A 
HETATM   12  C15 UNK     1      20.094  -2.370  34.783  1.00  0.00     0.304 A 
HETATM   13  O3  UNK     1      20.753  -2.874  33.880  1.00  0.00    -0.259 OA
HETATM   14  C19 UNK     1      17.937   1.531  36.685  1.00  0.00     0.003 A 
HETATM   15  C18 UNK     1      17.500   0.786  37.782  1.00  0.00     0.001 A 
ENDBRANCH   3   5
BRANCH   2  16
HETATM   16  C1  UNK     1      19.997  -6.331  37.903  1.00  0.00     0.047 A 
HETATM   17  C2  UNK     1      18.996  -7.280  37.763  1.00  0.00    -0.031 A 
HETATM   18  C5  UNK     1      19.201  -8.569  38.256  1.00  0.00     0.009 A 
HETATM   19  C8  UNK     1      20.404  -8.893  38.883  1.00  0.00     0.001 A 
HETATM   20  C6  UNK     1      21.403  -7.928  39.015  1.00  0.00     0.009 A 
HETATM   21  C3  UNK     1      21.198  -6.640  38.523  1.00  0.00    -0.035 A 
HETATM   22  C11 UNK     1      22.289  -5.629  38.680  1.00  0.00     0.050 C 
BRANCH  17  23
HETATM   23  C4  UNK     1      17.696  -6.963  37.098  1.00  0.00     0.036 C 
HETATM   24  C12 UNK     1      17.638  -7.486  35.666  1.00  0.00     0.010 C 
ENDBRANCH  17  23
ENDBRANCH   2  16
TORSDOF 3
ENDMDL
MODEL 2
REMARK VINA RESULT:      -9.0      0.352      2.322
REMARK  3 active torsions:
REMARK  status: ('A' for Active; 'I' for Inactive)
REMARK    1  A    between atoms: C1_5  and  N1_4 
REMARK       I    between atoms: C9_13  and  N1_4 
REMARK    2  A    between atoms: C2_6  and  C4_8 
REMARK    3  A    between atoms: C7_11  and  C9_13 
ROOT
HETATM    1  O2  UNK     1      20.175  -5.280  35.137  1.00  0.00    -0.267 OA
HETATM    2  N1  UNK     1      19.795  -5.024  37.447  1.00  0.00    -0.322 N 
HETATM    3  C9  UNK     1      19.893  -4.607  36.126  1.00  0.00     0.262 C 
HETATM    4  H4  UNK     1      19.426  -4.374  38.137  1.00  0.00     0.169 HD
ENDROOT
BRANCH   3   5
HETATM    5  C7  UNK     1      19.610  -3.174  35.976  1.00  0.00     0.108 A 
HETATM    6  C13 UNK     1      18.868  -2.615  36.939  1.00  0.00     0.037 A 
HETATM    7  C10 UNK     1      18.534  -1.200  36.878  1.00  0.00    -0.001 A 
HETATM    8  C14 UNK     1      18.997  -0.444  35.807  1.00  0.00     0.089 A 
HETATM    9  C16 UNK     1      17.763  -0.574  37.862  1.00  0.00     0.014 A 
HETATM   10  O1  UNK     1      19.778  -1.039  34.797  1.00  0.00    -0.274 OA
HETATM   11  C17 UNK     1      18.712   0.915  35.689  1.00  0.00     0.038 A 
HETATM   12  C15 UNK     1      20.114  -2.390  34.827  1.00  0.00     0.304 A 
HETATM   13  O3  UNK     1      20.793  -2.899  33.942  1.00  0.00    -0.259 OA
HETATM   14  C19 UNK     1      17.943   1.531  36.673  1.00  0.00     0.003 A 
HETATM   15  C18 UNK     1      17.469   0.789  37.757  1.00  0.00     0.001 A 
ENDBRANCH   3   5
BRANCH   2  16
HETATM   16  C1  UNK     1      19.998  -6.329  37.956  1.00  0.00     0.047 A 
HETATM   17  C2  UNK     1      21.213  -6.649  38.545  1.00  0.00    -0.031 A 
HETATM   18  C5  UNK     1      21.413  -7.935  39.048  1.00  0.00     0.009 A 
HETATM   19  C8  UNK     1      20.396  -8.885  38.957  1.00  0.00     0.001 A 
HETATM   20  C6  UNK     1      19.179  -8.549  38.364  1.00  0.00     0.009 A 
HETATM   21  C3  UNK     1      18.980  -7.264  37.861  1.00  0.00    -0.035 A 
HETATM   22  C11 UNK     1      17.664  -6.936  37.231  1.00  0.00     0.050 C 
BRANCH  17  23
HETATM   23  C4  UNK     1      22.322  -5.653  38.656  1.00  0.00     0.036 C 
HETATM   24  C12 UNK     1      23.580  -6.257  39.274  1.00  0.00     0.010 C 
ENDBRANCH  17  23
ENDBRANCH   2  16
TORSDOF 3
ENDMDL
MODEL 3
REMARK VINA RESULT:      -9.0      7.912     11.675
REMARK  3 active torsions:
REMARK  status: ('A' for Active; 'I' for Inactive)
REMARK    1  A    between atoms: C1_5  and  N1_4 
REMARK       I    between atoms: C9_13  and  N1_4 
REMARK    2  A    between atoms: C2_6  and  C4_8 
REMARK    3  A    between atoms: C7_11  and  C9_13 
ROOT
HETATM    1  O2  UNK     1      17.675   3.596  33.037  1.00  0.00    -0.267 OA
HETATM    2  N1  UNK     1      18.850   5.097  31.654  1.00  0.00    -0.322 N 
HETATM    3  C9  UNK     1      18.342   3.864  32.040  1.00  0.00     0.262 C 
HETATM    4  H4  UNK     1      19.276   5.183  30.734  1.00  0.00     0.169 HD
ENDROOT
BRANCH   3   5
HETATM    5  C7  UNK     1      18.686   2.802  31.086  1.00  0.00     0.108 A 
HETATM    6  C13 UNK     1      19.086   1.640  31.615  1.00  0.00     0.037 A 
HETATM    7  C10 UNK     1      19.449   0.527  30.751  1.00  0.00    -0.001 A 
HETATM    8  C14 UNK     1      19.374   0.693  29.373  1.00  0.00     0.089 A 
HETATM    9  C16 UNK     1      19.870  -0.705  31.260  1.00  0.00     0.014 A 
HETATM   10  O1  UNK     1      18.953   1.920  28.822  1.00  0.00    -0.274 OA
HETATM   11  C17 UNK     1      19.709  -0.333  28.490  1.00  0.00     0.038 A 
HETATM   12  C15 UNK     1      18.599   3.002  29.622  1.00  0.00     0.304 A 
HETATM   13  O3  UNK     1      18.236   4.066  29.134  1.00  0.00    -0.259 OA
HETATM   14  C19 UNK     1      20.127  -1.556  29.005  1.00  0.00     0.003 A 
HETATM   15  C18 UNK     1      20.209  -1.743  30.387  1.00  0.00     0.001 A 
ENDBRANCH   3   5
BRANCH   2  16
HETATM   16  C1  UNK     1      18.714   6.335  32.328  1.00  0.00     0.047 A 
HETATM   17  C2  UNK     1      17.477   6.962  32.359  1.00  0.00    -0.031 A 
HETATM   18  C5  UNK     1      17.343   8.180  33.024  1.00  0.00     0.009 A 
HETATM   19  C8  UNK     1      18.447   8.758  33.651  1.00  0.00     0.001 A 
HETATM   20  C6  UNK     1      19.685   8.116  33.612  1.00  0.00     0.009 A 
HETATM   21  C3  UNK     1      19.819   6.898  32.947  1.00  0.00    -0.035 A 
HETATM   22  C11 UNK     1      21.160   6.236  32.924  1.00  0.00     0.050 C 
BRANCH  17  23
HETATM   23  C4  UNK     1      16.276   6.368  31.697  1.00  0.00     0.036 C 
HETATM   24  C12 UNK     1      14.998   7.136  32.024  1.00  0.00     0.010 C 
ENDBRANCH  17  23
ENDBRANCH   2  16
TORSDOF 3
ENDMDL
MODEL 4
REMARK VINA RESULT:      -8.9      4.185      7.042
REMARK  3 active torsions:
REMARK  status: ('A' for Active; 'I' for Inactive)
REMARK    1  A    between atoms: C1_5  and  N1_4 
REMARK       I    between atoms: C9_13  and  N1_4 
REMARK    2  A    between atoms: C2_6  and  C4_8 
REMARK    3  A    between atoms: C7_11  and  C9_13 
ROOT
HETATM    1  O2  UNK     1      16.534   0.811  34.045  1.00  0.00    -0.267 OA
HETATM    2  N1  UNK     1      18.806   0.615  34.633  1.00  0.00    -0.322 N 
HETATM    3  C9  UNK     1      17.723   1.091  33.906  1.00  0.00     0.262 C 
HETATM    4  H4  UNK     1      19.718   1.040  34.482  1.00  0.00     0.169 HD
ENDROOT
BRANCH   3   5
HETATM    5  C7  UNK     1      18.131   2.042  32.864  1.00  0.00     0.108 A 
HETATM    6  C13 UNK     1      17.967   3.338  33.151  1.00  0.00     0.037 A 
HETATM    7  C10 UNK     1      18.342   4.356  32.182  1.00  0.00    -0.001 A 
HETATM    8  C14 UNK     1      18.870   3.959  30.958  1.00  0.00     0.089 A 
HETATM    9  C16 UNK     1      18.189   5.722  32.439  1.00  0.00     0.014 A 
HETATM   10  O1  UNK     1      19.040   2.592  30.662  1.00  0.00    -0.274 OA
HETATM   11  C17 UNK     1      19.248   4.884  29.986  1.00  0.00     0.038 A 
HETATM   12  C15 UNK     1      18.691   1.595  31.569  1.00  0.00     0.304 A 
HETATM   13  O3  UNK     1      18.841   0.408  31.302  1.00  0.00    -0.259 OA
HETATM   14  C19 UNK     1      19.092   6.242  30.250  1.00  0.00     0.003 A 
HETATM   15  C18 UNK     1      18.564   6.661  31.473  1.00  0.00     0.001 A 
ENDBRANCH   3   5
BRANCH   2  16
HETATM   16  C1  UNK     1      18.786  -0.308  35.706  1.00  0.00     0.047 A 
HETATM   17  C2  UNK     1      18.306   0.094  36.943  1.00  0.00    -0.031 A 
HETATM   18  C5  UNK     1      18.285  -0.816  37.999  1.00  0.00     0.009 A 
HETATM   19  C8  UNK     1      18.745  -2.119  37.806  1.00  0.00     0.001 A 
HETATM   20  C6  UNK     1      19.224  -2.511  36.556  1.00  0.00     0.009 A 
HETATM   21  C3  UNK     1      19.245  -1.600  35.501  1.00  0.00    -0.035 A 
HETATM   22  C11 UNK     1      19.765  -2.052  34.173  1.00  0.00     0.050 C 
BRANCH  17  23
HETATM   23  C4  UNK     1      17.808   1.483  37.181  1.00  0.00     0.036 C 
HETATM   24  C12 UNK     1      16.297   1.527  37.390  1.00  0.00     0.010 C 
ENDBRANCH  17  23
ENDBRANCH   2  16
TORSDOF 3
ENDMDL
MODEL 5
REMARK VINA RESULT:      -8.9      1.646      2.218
REMARK  3 active torsions:
REMARK  status: ('A' for Active; 'I' for Inactive)
REMARK    1  A    between atoms: C1_5  and  N1_4 
REMARK       I    between atoms: C9_13  and  N1_4 
REMARK    2  A    between atoms: C2_6  and  C4_8 
REMARK    3  A    between atoms: C7_11  and  C9_13 
ROOT
HETATM    1  O2  UNK     1      21.470  -4.470  37.142  1.00  0.00    -0.267 OA
HETATM    2  N1  UNK     1      19.770  -5.519  35.895  1.00  0.00    -0.322 N 
HETATM    3  C9  UNK     1      20.466  -4.445  36.434  1.00  0.00     0.262 C 
HETATM    4  H4  UNK     1      19.031  -5.332  35.222  1.00  0.00     0.169 HD
ENDROOT
BRANCH   3   5
HETATM    5  C7  UNK     1      19.866  -3.157  36.065  1.00  0.00     0.108 A 
HETATM    6  C13 UNK     1      19.149  -2.545  37.015  1.00  0.00     0.037 A 
HETATM    7  C10 UNK     1      18.516  -1.264  36.744  1.00  0.00    -0.001 A 
HETATM    8  C14 UNK     1      18.666  -0.691  35.486  1.00  0.00     0.089 A 
HETATM    9  C16 UNK     1      17.759  -0.589  37.706  1.00  0.00     0.014 A 
HETATM   10  O1  UNK     1      19.422  -1.340  34.490  1.00  0.00    -0.274 OA
HETATM   11  C17 UNK     1      18.084   0.534  35.162  1.00  0.00     0.038 A 
HETATM   12  C15 UNK     1      20.040  -2.566  34.719  1.00  0.00     0.304 A 
HETATM   13  O3  UNK     1      20.695  -3.125  33.845  1.00  0.00    -0.259 OA
HETATM   14  C19 UNK     1      17.333   1.199  36.126  1.00  0.00     0.003 A 
HETATM   15  C18 UNK     1      17.170   0.640  37.395  1.00  0.00     0.001 A 
ENDBRANCH   3   5
BRANCH   2  16
HETATM   16  C1  UNK     1      20.062  -6.897  36.041  1.00  0.00     0.047 A 
HETATM   17  C2  UNK     1      19.843  -7.514  37.263  1.00  0.00    -0.031 A 
HETATM   18  C5  UNK     1      20.130  -8.872  37.407  1.00  0.00     0.009 A 
HETATM   19  C8  UNK     1      20.632  -9.596  36.325  1.00  0.00     0.001 A 
HETATM   20  C6  UNK     1      20.846  -8.963  35.101  1.00  0.00     0.009 A 
HETATM   21  C3  UNK     1      20.560  -7.606  34.959  1.00  0.00    -0.035 A 
HETATM   22  C11 UNK     1      20.800  -6.956  33.633  1.00  0.00     0.050 C 
BRANCH  17  23
HETATM   23  C4  UNK     1      19.308  -6.765  38.440  1.00  0.00     0.036 C 
HETATM   24  C12 UNK     1      20.284  -6.759  39.614  1.00  0.00     0.010 C 
ENDBRANCH  17  23
ENDBRANCH   2  16
TORSDOF 3
ENDMDL
MODEL 6
REMARK VINA RESULT:      -8.6      5.246      7.867
REMARK  3 active torsions:
REMARK  status: ('A' for Active; 'I' for Inactive)
REMARK    1  A    between atoms: C1_5  and  N1_4 
REMARK       I    between atoms: C9_13  and  N1_4 
REMARK    2  A    between atoms: C2_6  and  C4_8 
REMARK    3  A    between atoms: C7_11  and  C9_13 
ROOT
HETATM    1  O2  UNK     1      23.042  -8.744  40.245  1.00  0.00    -0.267 OA
HETATM    2  N1  UNK     1      22.449  -8.118  38.053  1.00  0.00    -0.322 N 
HETATM    3  C9  UNK     1      23.259  -8.169  39.180  1.00  0.00     0.262 C 
HETATM    4  H4  UNK     1      22.825  -7.707  37.202  1.00  0.00     0.169 HD
ENDROOT
BRANCH   3   5
HETATM    5  C7  UNK     1      24.509  -7.422  38.997  1.00  0.00     0.108 A 
HETATM    6  C13 UNK     1      25.631  -8.149  38.954  1.00  0.00     0.037 A 
HETATM    7  C10 UNK     1      26.920  -7.498  38.776  1.00  0.00    -0.001 A 
HETATM    8  C14 UNK     1      26.964  -6.114  38.654  1.00  0.00     0.089 A 
HETATM    9  C16 UNK     1      28.117  -8.218  38.724  1.00  0.00     0.014 A 
HETATM   10  O1  UNK     1      25.779  -5.354  38.700  1.00  0.00    -0.274 OA
HETATM   11  C17 UNK     1      28.166  -5.430  38.482  1.00  0.00     0.038 A 
HETATM   12  C15 UNK     1      24.531  -5.948  38.869  1.00  0.00     0.304 A 
HETATM   13  O3  UNK     1      23.505  -5.277  38.910  1.00  0.00    -0.259 OA
HETATM   14  C19 UNK     1      29.354  -6.154  38.431  1.00  0.00     0.003 A 
HETATM   15  C18 UNK     1      29.330  -7.545  38.553  1.00  0.00     0.001 A 
ENDBRANCH   3   5
BRANCH   2  16
HETATM   16  C1  UNK     1      21.181  -8.721  37.874  1.00  0.00     0.047 A 
HETATM   17  C2  UNK     1      21.080  -9.891  37.136  1.00  0.00    -0.031 A 
HETATM   18  C5  UNK     1      19.830 -10.485  36.961  1.00  0.00     0.009 A 
HETATM   19  C8  UNK     1      18.696  -9.903  37.527  1.00  0.00     0.001 A 
HETATM   20  C6  UNK     1      18.812  -8.727  38.268  1.00  0.00     0.009 A 
HETATM   21  C3  UNK     1      20.061  -8.132  38.442  1.00  0.00    -0.035 A 
HETATM   22  C11 UNK     1      20.152  -6.872  39.242  1.00  0.00     0.050 C 
BRANCH  17  23
HETATM   23  C4  UNK     1      22.276 -10.538  36.517  1.00  0.00     0.036 C 
HETATM   24  C12 UNK     1      22.081 -10.807  35.028  1.00  0.00     0.010 C 
ENDBRANCH  17  23
ENDBRANCH   2  16
TORSDOF 3
ENDMDL
MODEL 7
REMARK VINA RESULT:      -8.6      6.766     10.949
REMARK  3 active torsions:
REMARK  status: ('A' for Active; 'I' for Inactive)
REMARK    1  A    between atoms: C1_5  and  N1_4 
REMARK       I    between atoms: C9_13  and  N1_4 
REMARK    2  A    between atoms: C2_6  and  C4_8 
REMARK    3  A    between atoms: C7_11  and  C9_13 
ROOT
HETATM    1  O2  UNK     1      16.779   2.980  30.782  1.00  0.00    -0.267 OA
HETATM    2  N1  UNK     1      18.857   3.642  31.672  1.00  0.00    -0.322 N 
HETATM    3  C9  UNK     1      17.976   2.804  31.001  1.00  0.00     0.262 C 
HETATM    4  H4  UNK     1      19.848   3.415  31.661  1.00  0.00     0.169 HD
ENDROOT
BRANCH   3   5
HETATM    5  C7  UNK     1      18.632   1.580  30.524  1.00  0.00     0.108 A 
HETATM    6  C13 UNK     1      19.065   0.736  31.467  1.00  0.00     0.037 A 
HETATM    7  C10 UNK     1      19.727  -0.504  31.093  1.00  0.00    -0.001 A 
HETATM    8  C14 UNK     1      19.903  -0.793  29.744  1.00  0.00     0.089 A 
HETATM    9  C16 UNK     1      20.195  -1.415  32.044  1.00  0.00     0.014 A 
HETATM   10  O1  UNK     1      19.445   0.101  28.756  1.00  0.00    -0.274 OA
HETATM   11  C17 UNK     1      20.530  -1.963  29.319  1.00  0.00     0.038 A 
HETATM   12  C15 UNK     1      18.807   1.294  29.083  1.00  0.00     0.304 A 
HETATM   13  O3  UNK     1      18.413   2.066  28.215  1.00  0.00    -0.259 OA
HETATM   14  C19 UNK     1      20.993  -2.865  30.273  1.00  0.00     0.003 A 
HETATM   15  C18 UNK     1      20.826  -2.593  31.633  1.00  0.00     0.001 A 
ENDBRANCH   3   5
BRANCH   2  16
HETATM   16  C1  UNK     1      18.574   4.898  32.261  1.00  0.00     0.047 A 
HETATM   17  C2  UNK     1      18.584   6.039  31.473  1.00  0.00    -0.031 A 
HETATM   18  C5  UNK     1      18.303   7.275  32.053  1.00  0.00     0.009 A 
HETATM   19  C8  UNK     1      18.015   7.357  33.416  1.00  0.00     0.001 A 
HETATM   20  C6  UNK     1      18.007   6.201  34.197  1.00  0.00     0.009 A 
HETATM   21  C3  UNK     1      18.289   4.965  33.616  1.00  0.00    -0.035 A 
HETATM   22  C11 UNK     1      18.272   3.745  34.481  1.00  0.00     0.050 C 
BRANCH  17  23
HETATM   23  C4  UNK     1      18.889   5.984  30.011  1.00  0.00     0.036 C 
HETATM   24  C12 UNK     1      20.382   5.822  29.739  1.00  0.00     0.010 C 
ENDBRANCH  17  23
ENDBRANCH   2  16
TORSDOF 3
ENDMDL
MODEL 8
REMARK VINA RESULT:      -8.5      7.889     11.761
REMARK  3 active torsions:
REMARK  status: ('A' for Active; 'I' for Inactive)
REMARK    1  A    between atoms: C1_5  and  N1_4 
REMARK       I    between atoms: C9_13  and  N1_4 
REMARK    2  A    between atoms: C2_6  and  C4_8 
REMARK    3  A    between atoms: C7_11  and  C9_13 
ROOT
HETATM    1  O2  UNK     1      17.617   3.589  33.003  1.00  0.00    -0.267 OA
HETATM    2  N1  UNK     1      18.855   5.075  31.661  1.00  0.00    -0.322 N 
HETATM    3  C9  UNK     1      18.318   3.848  32.028  1.00  0.00     0.262 C 
HETATM    4  H4  UNK     1      19.310   5.156  30.754  1.00  0.00     0.169 HD
ENDROOT
BRANCH   3   5
HETATM    5  C7  UNK     1      18.674   2.783  31.082  1.00  0.00     0.108 A 
HETATM    6  C13 UNK     1      19.061   1.621  31.620  1.00  0.00     0.037 A 
HETATM    7  C10 UNK     1      19.434   0.505  30.764  1.00  0.00    -0.001 A 
HETATM    8  C14 UNK     1      19.383   0.669  29.384  1.00  0.00     0.089 A 
HETATM    9  C16 UNK     1      19.842  -0.727  31.282  1.00  0.00     0.014 A 
HETATM   10  O1  UNK     1      18.975   1.896  28.824  1.00  0.00    -0.274 OA
HETATM   11  C17 UNK     1      19.728  -0.359  28.509  1.00  0.00     0.038 A 
HETATM   12  C15 UNK     1      18.611   2.981  29.617  1.00  0.00     0.304 A 
HETATM   13  O3  UNK     1      18.260   4.046  29.120  1.00  0.00    -0.259 OA
HETATM   14  C19 UNK     1      20.134  -1.583  29.033  1.00  0.00     0.003 A 
HETATM   15  C18 UNK     1      20.192  -1.768  30.416  1.00  0.00     0.001 A 
ENDBRANCH   3   5
BRANCH   2  16
HETATM   16  C1  UNK     1      18.718   6.313  32.333  1.00  0.00     0.047 A 
HETATM   17  C2  UNK     1      19.769   6.792  33.102  1.00  0.00    -0.031 A 
HETATM   18  C5  UNK     1      19.634   8.012  33.763  1.00  0.00     0.009 A 
HETATM   19  C8  UNK     1      18.449   8.740  33.648  1.00  0.00     0.001 A 
HETATM   20  C6  UNK     1      17.401   8.248  32.871  1.00  0.00     0.009 A 
HETATM   21  C3  UNK     1      17.536   7.027  32.210  1.00  0.00    -0.035 A 
HETATM   22  C11 UNK     1      16.394   6.527  31.384  1.00  0.00     0.050 C 
BRANCH  17  23
HETATM   23  C4  UNK     1      21.049   6.034  33.246  1.00  0.00     0.036 C 
HETATM   24  C12 UNK     1      21.940   6.168  32.014  1.00  0.00     0.010 C 
ENDBRANCH  17  23
ENDBRANCH   2  16
TORSDOF 3
ENDMDL
MODEL 9
REMARK VINA RESULT:      -8.5      4.613      7.845
REMARK  3 active torsions:
REMARK  status: ('A' for Active; 'I' for Inactive)
REMARK    1  A    between atoms: C1_5  and  N1_4 
REMARK       I    between atoms: C9_13  and  N1_4 
REMARK    2  A    between atoms: C2_6  and  C4_8 
REMARK    3  A    between atoms: C7_11  and  C9_13 
ROOT
HETATM    1  O2  UNK     1      23.145  -8.751  40.216  1.00  0.00    -0.267 OA
HETATM    2  N1  UNK     1      22.607  -8.239  37.981  1.00  0.00    -0.322 N 
HETATM    3  C9  UNK     1      23.377  -8.211  39.137  1.00  0.00     0.262 C 
HETATM    4  H4  UNK     1      22.997  -7.847  37.127  1.00  0.00     0.169 HD
ENDROOT
BRANCH   3   5
HETATM    5  C7  UNK     1      24.602  -7.420  38.966  1.00  0.00     0.108 A 
HETATM    6  C13 UNK     1      25.749  -8.109  38.923  1.00  0.00     0.037 A 
HETATM    7  C10 UNK     1      27.015  -7.413  38.756  1.00  0.00    -0.001 A 
HETATM    8  C14 UNK     1      27.013  -6.027  38.645  1.00  0.00     0.089 A 
HETATM    9  C16 UNK     1      28.236  -8.091  38.705  1.00  0.00     0.014 A 
HETATM   10  O1  UNK     1      25.803  -5.308  38.691  1.00  0.00    -0.274 OA
HETATM   11  C17 UNK     1      28.192  -5.301  38.484  1.00  0.00     0.038 A 
HETATM   12  C15 UNK     1      24.575  -5.945  38.849  1.00  0.00     0.304 A 
HETATM   13  O3  UNK     1      23.526  -5.310  38.890  1.00  0.00    -0.259 OA
HETATM   14  C19 UNK     1      29.404  -5.985  38.434  1.00  0.00     0.003 A 
HETATM   15  C18 UNK     1      29.427  -7.376  38.544  1.00  0.00     0.001 A 
ENDBRANCH   3   5
BRANCH   2  16
HETATM   16  C1  UNK     1      21.371  -8.901  37.784  1.00  0.00     0.047 A 
HETATM   17  C2  UNK     1      20.222  -8.385  38.364  1.00  0.00    -0.031 A 
HETATM   18  C5  UNK     1      19.004  -9.036  38.168  1.00  0.00     0.009 A 
HETATM   19  C8  UNK     1      18.950 -10.196  37.395  1.00  0.00     0.001 A 
HETATM   20  C6  UNK     1      20.114 -10.703  36.817  1.00  0.00     0.009 A 
HETATM   21  C3  UNK     1      21.331 -10.052  37.013  1.00  0.00    -0.035 A 
HETATM   22  C11 UNK     1      22.560 -10.621  36.379  1.00  0.00     0.050 C 
BRANCH  17  23
HETATM   23  C4  UNK     1      20.248  -7.145  39.199  1.00  0.00     0.036 C 
HETATM   24  C12 UNK     1      20.116  -5.880  38.357  1.00  0.00     0.010 C 
ENDBRANCH  17  23
ENDBRANCH   2  16
TORSDOF 3
ENDMDL
MODEL 10
REMARK VINA RESULT:      -8.4      6.322     12.014
REMARK  3 active torsions:
REMARK  status: ('A' for Active; 'I' for Inactive)
REMARK    1  A    between atoms: C1_5  and  N1_4 
REMARK       I    between atoms: C9_13  and  N1_4 
REMARK    2  A    between atoms: C2_6  and  C4_8 
REMARK    3  A    between atoms: C7_11  and  C9_13 
ROOT
HETATM    1  O2  UNK     1      18.969   5.970  31.922  1.00  0.00    -0.267 OA
HETATM    2  N1  UNK     1      17.185   6.090  33.454  1.00  0.00    -0.322 N 
HETATM    3  C9  UNK     1      18.177   5.462  32.713  1.00  0.00     0.262 C 
HETATM    4  H4  UNK     1      16.692   5.552  34.164  1.00  0.00     0.169 HD
ENDROOT
BRANCH   3   5
HETATM    5  C7  UNK     1      18.222   4.016  32.963  1.00  0.00     0.108 A 
HETATM    6  C13 UNK     1      18.317   3.641  34.244  1.00  0.00     0.037 A 
HETATM    7  C10 UNK     1      18.368   2.229  34.592  1.00  0.00    -0.001 A 
HETATM    8  C14 UNK     1      18.319   1.283  33.574  1.00  0.00     0.089 A 
HETATM    9  C16 UNK     1      18.465   1.791  35.915  1.00  0.00     0.014 A 
HETATM   10  O1  UNK     1      18.220   1.685  32.228  1.00  0.00    -0.274 OA
HETATM   11  C17 UNK     1      18.365  -0.085  33.840  1.00  0.00     0.038 A 
HETATM   12  C15 UNK     1      18.168   3.027  31.864  1.00  0.00     0.304 A 
HETATM   13  O3  UNK     1      18.084   3.368  30.688  1.00  0.00    -0.259 OA
HETATM   14  C19 UNK     1      18.462  -0.512  35.162  1.00  0.00     0.003 A 
HETATM   15  C18 UNK     1      18.513   0.423  36.197  1.00  0.00     0.001 A 
ENDBRANCH   3   5
BRANCH   2  16
HETATM   16  C1  UNK     1      16.857   7.468  33.465  1.00  0.00     0.047 A 
HETATM   17  C2  UNK     1      17.696   8.362  34.114  1.00  0.00    -0.031 A 
HETATM   18  C5  UNK     1      17.374   9.719  34.123  1.00  0.00     0.009 A 
HETATM   19  C8  UNK     1      16.217  10.166  33.484  1.00  0.00     0.001 A 
HETATM   20  C6  UNK     1      15.384   9.256  32.835  1.00  0.00     0.009 A 
HETATM   21  C3  UNK     1      15.705   7.899  32.826  1.00  0.00    -0.035 A 
HETATM   22  C11 UNK     1      14.791   6.948  32.121  1.00  0.00     0.050 C 
BRANCH  17  23
HETATM   23  C4  UNK     1      18.941   7.914  34.808  1.00  0.00     0.036 C 
HETATM   24  C12 UNK     1      20.119   8.847  34.540  1.00  0.00     0.010 C 
ENDBRANCH  17  23
ENDBRANCH   2  16
TORSDOF 3
ENDMDL
