MODEL 1
REMARK VINA RESULT:      -8.1      0.000      0.000
REMARK  2 active torsions:
REMARK  status: ('A' for Active; 'I' for Inactive)
REMARK    1  A    between atoms: C15_21  and  O5_5 
REMARK       I    between atoms: C7_13  and  N1_6 
REMARK    2  A    between atoms: C7_13  and  C8_14 
ROOT
HETATM    1  O3  UNK     1      11.690   6.706   6.432  1.00  0.00    -0.274 OA
HETATM    2  O4  UNK     1      13.953   7.030   6.423  1.00  0.00    -0.259 OA
HETATM    3  C8  UNK     1      12.996   6.266   8.452  1.00  0.00     0.108 A 
HETATM    4  C9  UNK     1      11.894   5.904   9.119  1.00  0.00     0.037 A 
HETATM    5  C10 UNK     1      10.598   5.925   8.458  1.00  0.00     0.002 A 
HETATM    6  C11 UNK     1      12.945   6.697   7.037  1.00  0.00     0.304 A 
HETATM    7  C12 UNK     1      10.526   6.326   7.128  1.00  0.00     0.089 A 
HETATM    8  C13 UNK     1       9.421   5.556   9.115  1.00  0.00     0.051 A 
HETATM    9  C14 UNK     1       9.316   6.369   6.438  1.00  0.00     0.041 A 
HETATM   10  C15 UNK     1       8.200   5.594   8.437  1.00  0.00     0.069 A 
HETATM   11  C16 UNK     1       8.148   5.999   7.100  1.00  0.00     0.039 A 
ENDROOT
BRANCH   3  12
HETATM   12  C7  UNK     1      14.263   6.212   9.209  1.00  0.00     0.260 C 
HETATM   13  O2  UNK     1      15.046   5.298   8.947  1.00  0.00    -0.267 OA
HETATM   14  N1  UNK     1      14.486   7.195  10.169  1.00  0.00    -0.343 N 
HETATM   15  C3  UNK     1      15.728   7.174  10.942  1.00  0.00     0.157 C 
HETATM   16  C4  UNK     1      13.561   8.264  10.563  1.00  0.00     0.157 C 
HETATM   17  C1  UNK     1      16.397   8.549  10.955  1.00  0.00     0.136 C 
HETATM   18  O1  UNK     1      15.465   9.558  11.365  1.00  0.00    -0.378 OA
HETATM   19  C5  UNK     1      17.067   8.899   9.628  1.00  0.00     0.041 C 
HETATM   20  C2  UNK     1      14.280   9.614  10.563  1.00  0.00     0.136 C 
HETATM   21  C6  UNK     1      13.388  10.705  11.142  1.00  0.00     0.041 C 
ENDBRANCH   3  12
BRANCH  10  22
HETATM   22  O5  UNK     1       7.054   5.233   9.079  1.00  0.00    -0.356 OA
HETATM   23  C17 UNK     1       7.069   3.993   9.783  1.00  0.00     0.210 C 
ENDBRANCH  10  22
TORSDOF 2
ENDMDL
MODEL 2
REMARK VINA RESULT:      -7.8      2.355      7.028
REMARK  2 active torsions:
REMARK  status: ('A' for Active; 'I' for Inactive)
REMARK    1  A    between atoms: C15_21  and  O5_5 
REMARK       I    between atoms: C7_13  and  N1_6 
REMARK    2  A    between atoms: C7_13  and  C8_14 
ROOT
HETATM    1  O3  UNK     1      13.995   6.965  10.591  1.00  0.00    -0.274 OA
HETATM    2  O4  UNK     1      12.321   5.421  10.390  1.00  0.00    -0.259 OA
HETATM    3  C8  UNK     1      12.534   6.994   8.630  1.00  0.00     0.108 A 
HETATM    4  C9  UNK     1      13.187   8.047   8.125  1.00  0.00     0.037 A 
HETATM    5  C10 UNK     1      14.308   8.629   8.847  1.00  0.00     0.002 A 
HETATM    6  C11 UNK     1      12.918   6.386   9.924  1.00  0.00     0.304 A 
HETATM    7  C12 UNK     1      14.686   8.073  10.065  1.00  0.00     0.089 A 
HETATM    8  C13 UNK     1      15.019   9.729   8.358  1.00  0.00     0.051 A 
HETATM    9  C14 UNK     1      15.751   8.584  10.806  1.00  0.00     0.041 A 
HETATM   10  C15 UNK     1      16.088  10.252   9.090  1.00  0.00     0.069 A 
HETATM   11  C16 UNK     1      16.454   9.680  10.312  1.00  0.00     0.039 A 
ENDROOT
BRANCH   3  12
HETATM   12  C7  UNK     1      11.411   6.476   7.824  1.00  0.00     0.260 C 
HETATM   13  O2  UNK     1      11.646   5.551   7.044  1.00  0.00    -0.267 OA
HETATM   14  N1  UNK     1      10.163   7.067   7.997  1.00  0.00    -0.343 N 
HETATM   15  C3  UNK     1       9.025   6.585   7.215  1.00  0.00     0.157 C 
HETATM   16  C4  UNK     1       9.845   8.209   8.862  1.00  0.00     0.157 C 
HETATM   17  C1  UNK     1       7.811   6.321   8.105  1.00  0.00     0.136 C 
HETATM   18  O1  UNK     1       7.523   7.467   8.916  1.00  0.00    -0.378 OA
HETATM   19  C5  UNK     1       7.950   5.051   8.943  1.00  0.00     0.041 C 
HETATM   20  C2  UNK     1       8.623   7.895   9.728  1.00  0.00     0.136 C 
HETATM   21  C6  UNK     1       8.170   9.129  10.498  1.00  0.00     0.041 C 
ENDBRANCH   3  12
BRANCH  10  22
HETATM   22  O5  UNK     1      16.779  11.323   8.611  1.00  0.00    -0.356 OA
HETATM   23  C17 UNK     1      16.154  12.094   7.588  1.00  0.00     0.210 C 
ENDBRANCH  10  22
TORSDOF 2
ENDMDL
MODEL 3
REMARK VINA RESULT:      -7.7     34.746     36.442
REMARK  2 active torsions:
REMARK  status: ('A' for Active; 'I' for Inactive)
REMARK    1  A    between atoms: C15_21  and  O5_5 
REMARK       I    between atoms: C7_13  and  N1_6 
REMARK    2  A    between atoms: C7_13  and  C8_14 
ROOT
HETATM    1  O3  UNK     1      30.053  -8.813  38.399  1.00  0.00    -0.274 OA
HETATM    2  O4  UNK     1      32.283  -8.414  38.101  1.00  0.00    -0.259 OA
HETATM    3  C8  UNK     1      30.852  -6.525  38.071  1.00  0.00     0.108 A 
HETATM    4  C9  UNK     1      29.606  -6.047  38.165  1.00  0.00     0.037 A 
HETATM    5  C10 UNK     1      28.489  -6.952  38.386  1.00  0.00     0.002 A 
HETATM    6  C11 UNK     1      31.142  -7.971  38.187  1.00  0.00     0.304 A 
HETATM    7  C12 UNK     1      28.738  -8.316  38.498  1.00  0.00     0.089 A 
HETATM    8  C13 UNK     1      27.171  -6.497  38.490  1.00  0.00     0.051 A 
HETATM    9  C14 UNK     1      27.713  -9.235  38.710  1.00  0.00     0.041 A 
HETATM   10  C15 UNK     1      26.132  -7.407  38.702  1.00  0.00     0.069 A 
HETATM   11  C16 UNK     1      26.403  -8.774  38.812  1.00  0.00     0.039 A 
ENDROOT
BRANCH   3  12
HETATM   12  C7  UNK     1      31.917  -5.528  37.846  1.00  0.00     0.260 C 
HETATM   13  O2  UNK     1      32.370  -4.942  38.831  1.00  0.00    -0.267 OA
HETATM   14  N1  UNK     1      32.338  -5.315  36.537  1.00  0.00    -0.343 N 
HETATM   15  C3  UNK     1      33.390  -4.333  36.271  1.00  0.00     0.157 C 
HETATM   16  C4  UNK     1      31.790  -5.937  35.326  1.00  0.00     0.157 C 
HETATM   17  C1  UNK     1      34.479  -4.916  35.370  1.00  0.00     0.136 C 
HETATM   18  O1  UNK     1      33.902  -5.493  34.192  1.00  0.00    -0.378 OA
HETATM   19  C5  UNK     1      35.391  -5.900  36.099  1.00  0.00     0.041 C 
HETATM   20  C2  UNK     1      32.919  -6.500  34.460  1.00  0.00     0.136 C 
HETATM   21  C6  UNK     1      32.385  -6.986  33.119  1.00  0.00     0.041 C 
ENDBRANCH   3  12
BRANCH  10  22
HETATM   22  O5  UNK     1      24.849  -6.962  38.803  1.00  0.00    -0.356 OA
HETATM   23  C17 UNK     1      23.819  -7.947  38.824  1.00  0.00     0.210 C 
ENDBRANCH  10  22
TORSDOF 2
ENDMDL
MODEL 4
REMARK VINA RESULT:      -7.6     32.571     35.402
REMARK  2 active torsions:
REMARK  status: ('A' for Active; 'I' for Inactive)
REMARK    1  A    between atoms: C15_21  and  O5_5 
REMARK       I    between atoms: C7_13  and  N1_6 
REMARK    2  A    between atoms: C7_13  and  C8_14 
ROOT
HETATM    1  O3  UNK     1      24.807  -5.449  38.731  1.00  0.00    -0.274 OA
HETATM    2  O4  UNK     1      22.542  -5.559  39.015  1.00  0.00    -0.259 OA
HETATM    3  C8  UNK     1      23.723  -7.613  39.079  1.00  0.00     0.108 A 
HETATM    4  C9  UNK     1      24.899  -8.246  39.001  1.00  0.00     0.037 A 
HETATM    5  C10 UNK     1      26.123  -7.493  38.777  1.00  0.00     0.002 A 
HETATM    6  C11 UNK     1      23.618  -6.143  38.944  1.00  0.00     0.304 A 
HETATM    7  C12 UNK     1      26.048  -6.110  38.647  1.00  0.00     0.089 A 
HETATM    8  C13 UNK     1      27.373  -8.112  38.688  1.00  0.00     0.051 A 
HETATM    9  C14 UNK     1      27.183  -5.330  38.431  1.00  0.00     0.041 A 
HETATM   10  C15 UNK     1      28.520  -7.343  38.471  1.00  0.00     0.069 A 
HETATM   11  C16 UNK     1      28.425  -5.955  38.343  1.00  0.00     0.039 A 
ENDROOT
BRANCH   3  12
HETATM   12  C7  UNK     1      22.538  -8.464  39.307  1.00  0.00     0.260 C 
HETATM   13  O2  UNK     1      22.284  -8.791  40.468  1.00  0.00    -0.267 OA
HETATM   14  N1  UNK     1      21.790  -8.844  38.197  1.00  0.00    -0.343 N 
HETATM   15  C3  UNK     1      20.610  -9.689  38.380  1.00  0.00     0.157 C 
HETATM   16  C4  UNK     1      22.085  -8.536  36.793  1.00  0.00     0.157 C 
HETATM   17  C1  UNK     1      19.399  -9.121  37.641  1.00  0.00     0.136 C 
HETATM   18  O1  UNK     1      19.725  -8.856  36.271  1.00  0.00    -0.378 OA
HETATM   19  C5  UNK     1      18.798  -7.898  38.331  1.00  0.00     0.041 C 
HETATM   20  C2  UNK     1      20.841  -7.975  36.099  1.00  0.00     0.136 C 
HETATM   21  C6  UNK     1      21.076  -7.821  34.603  1.00  0.00     0.041 C 
ENDBRANCH   3  12
BRANCH  10  22
HETATM   22  O5  UNK     1      29.737  -7.949  38.385  1.00  0.00    -0.356 OA
HETATM   23  C17 UNK     1      29.746  -9.363  38.202  1.00  0.00     0.210 C 
ENDBRANCH  10  22
TORSDOF 2
ENDMDL
MODEL 5
REMARK VINA RESULT:      -7.5     29.634     31.884
REMARK  2 active torsions:
REMARK  status: ('A' for Active; 'I' for Inactive)
REMARK    1  A    between atoms: C15_21  and  O5_5 
REMARK       I    between atoms: C7_13  and  N1_6 
REMARK    2  A    between atoms: C7_13  and  C8_14 
ROOT
HETATM    1  O3  UNK     1      20.417  -4.522  34.834  1.00  0.00    -0.274 OA
HETATM    2  O4  UNK     1      20.704  -6.772  34.551  1.00  0.00    -0.259 OA
HETATM    3  C8  UNK     1      19.104  -6.099  36.165  1.00  0.00     0.108 A 
HETATM    4  C9  UNK     1      18.481  -5.094  36.791  1.00  0.00     0.037 A 
HETATM    5  C10 UNK     1      18.803  -3.714  36.463  1.00  0.00     0.002 A 
HETATM    6  C11 UNK     1      20.130  -5.853  35.127  1.00  0.00     0.304 A 
HETATM    7  C12 UNK     1      19.765  -3.460  35.490  1.00  0.00     0.089 A 
HETATM    8  C13 UNK     1      18.178  -2.633  37.091  1.00  0.00     0.051 A 
HETATM    9  C14 UNK     1      20.119  -2.161  35.129  1.00  0.00     0.041 A 
HETATM   10  C15 UNK     1      18.524  -1.325  36.740  1.00  0.00     0.069 A 
HETATM   11  C16 UNK     1      19.492  -1.090  35.760  1.00  0.00     0.039 A 
ENDROOT
BRANCH   3  12
HETATM   12  C7  UNK     1      18.709  -7.463  36.568  1.00  0.00     0.260 C 
HETATM   13  O2  UNK     1      17.863  -8.039  35.883  1.00  0.00    -0.267 OA
HETATM   14  N1  UNK     1      19.316  -8.006  37.697  1.00  0.00    -0.343 N 
HETATM   15  C3  UNK     1      18.951  -9.354  38.131  1.00  0.00     0.157 C 
HETATM   16  C4  UNK     1      20.279  -7.340  38.582  1.00  0.00     0.157 C 
HETATM   17  C1  UNK     1      20.191 -10.209  38.393  1.00  0.00     0.136 C 
HETATM   18  O1  UNK     1      21.092  -9.531  39.277  1.00  0.00    -0.378 OA
HETATM   19  C5  UNK     1      20.884 -10.662  37.110  1.00  0.00     0.041 C 
HETATM   20  C2  UNK     1      21.496  -8.237  38.814  1.00  0.00     0.136 C 
HETATM   21  C6  UNK     1      22.419  -7.641  39.869  1.00  0.00     0.041 C 
ENDBRANCH   3  12
BRANCH  10  22
HETATM   22  O5  UNK     1      17.913  -0.274  37.354  1.00  0.00    -0.356 OA
HETATM   23  C17 UNK     1      17.985   0.991  36.700  1.00  0.00     0.210 C 
ENDBRANCH  10  22
TORSDOF 2
ENDMDL
MODEL 6
REMARK VINA RESULT:      -7.5     31.328     34.650
REMARK  2 active torsions:
REMARK  status: ('A' for Active; 'I' for Inactive)
REMARK    1  A    between atoms: C15_21  and  O5_5 
REMARK       I    between atoms: C7_13  and  N1_6 
REMARK    2  A    between atoms: C7_13  and  C8_14 
ROOT
HETATM    1  O3  UNK     1      36.069  -7.507  31.303  1.00  0.00    -0.274 OA
HETATM    2  O4  UNK     1      35.592  -8.037  29.132  1.00  0.00    -0.259 OA
HETATM    3  C8  UNK     1      33.887  -8.448  30.726  1.00  0.00     0.108 A 
HETATM    4  C9  UNK     1      33.496  -8.398  32.004  1.00  0.00     0.037 A 
HETATM    5  C10 UNK     1      34.396  -7.886  33.026  1.00  0.00     0.002 A 
HETATM    6  C11 UNK     1      35.230  -7.992  30.303  1.00  0.00     0.304 A 
HETATM    7  C12 UNK     1      35.664  -7.452  32.651  1.00  0.00     0.089 A 
HETATM    8  C13 UNK     1      34.031  -7.815  34.373  1.00  0.00     0.051 A 
HETATM    9  C14 UNK     1      36.573  -6.951  33.581  1.00  0.00     0.041 A 
HETATM   10  C15 UNK     1      34.933  -7.316  35.317  1.00  0.00     0.069 A 
HETATM   11  C16 UNK     1      36.201  -6.884  34.921  1.00  0.00     0.039 A 
ENDROOT
BRANCH   3  12
HETATM   12  C7  UNK     1      32.903  -8.984  29.764  1.00  0.00     0.260 C 
HETATM   13  O2  UNK     1      33.085 -10.126  29.338  1.00  0.00    -0.267 OA
HETATM   14  N1  UNK     1      31.839  -8.164  29.401  1.00  0.00    -0.343 N 
HETATM   15  C3  UNK     1      30.845  -8.657  28.448  1.00  0.00     0.157 C 
HETATM   16  C4  UNK     1      31.613  -6.778  29.828  1.00  0.00     0.157 C 
HETATM   17  C1  UNK     1      29.423  -8.430  28.961  1.00  0.00     0.136 C 
HETATM   18  O1  UNK     1      29.240  -7.062  29.347  1.00  0.00    -0.378 OA
HETATM   19  C5  UNK     1      29.031  -9.394  30.079  1.00  0.00     0.041 C 
HETATM   20  C2  UNK     1      30.178  -6.605  30.328  1.00  0.00     0.136 C 
HETATM   21  C6  UNK     1      29.872  -5.139  30.605  1.00  0.00     0.041 C 
ENDBRANCH   3  12
BRANCH  10  22
HETATM   22  O5  UNK     1      34.573  -7.248  36.629  1.00  0.00    -0.356 OA
HETATM   23  C17 UNK     1      34.488  -5.949  37.212  1.00  0.00     0.210 C 
ENDBRANCH  10  22
TORSDOF 2
ENDMDL
MODEL 7
REMARK VINA RESULT:      -7.5     34.070     36.308
REMARK  2 active torsions:
REMARK  status: ('A' for Active; 'I' for Inactive)
REMARK    1  A    between atoms: C15_21  and  O5_5 
REMARK       I    between atoms: C7_13  and  N1_6 
REMARK    2  A    between atoms: C7_13  and  C8_14 
ROOT
HETATM    1  O3  UNK     1      28.337  -5.262  39.252  1.00  0.00    -0.274 OA
HETATM    2  O4  UNK     1      29.930  -3.625  39.334  1.00  0.00    -0.259 OA
HETATM    3  C8  UNK     1      30.578  -5.692  38.371  1.00  0.00     0.108 A 
HETATM    4  C9  UNK     1      30.234  -6.938  38.028  1.00  0.00     0.037 A 
HETATM    5  C10 UNK     1      28.888  -7.424  38.287  1.00  0.00     0.002 A 
HETATM    6  C11 UNK     1      29.619  -4.768  39.017  1.00  0.00     0.304 A 
HETATM    7  C12 UNK     1      27.969  -6.573  38.893  1.00  0.00     0.089 A 
HETATM    8  C13 UNK     1      28.485  -8.719  37.947  1.00  0.00     0.051 A 
HETATM    9  C14 UNK     1      26.664  -6.978  39.169  1.00  0.00     0.041 A 
HETATM   10  C15 UNK     1      27.179  -9.139  38.217  1.00  0.00     0.069 A 
HETATM   11  C16 UNK     1      26.271  -8.269  38.826  1.00  0.00     0.039 A 
ENDROOT
BRANCH   3  12
HETATM   12  C7  UNK     1      31.966  -5.292  38.069  1.00  0.00     0.260 C 
HETATM   13  O2  UNK     1      32.739  -5.146  39.018  1.00  0.00    -0.267 OA
HETATM   14  N1  UNK     1      32.310  -5.102  36.734  1.00  0.00    -0.343 N 
HETATM   15  C3  UNK     1      33.675  -4.703  36.393  1.00  0.00     0.157 C 
HETATM   16  C4  UNK     1      31.415  -5.199  35.575  1.00  0.00     0.157 C 
HETATM   17  C1  UNK     1      34.251  -5.583  35.283  1.00  0.00     0.136 C 
HETATM   18  O1  UNK     1      33.356  -5.632  34.165  1.00  0.00    -0.378 OA
HETATM   19  C5  UNK     1      34.635  -6.979  35.769  1.00  0.00     0.041 C 
HETATM   20  C2  UNK     1      32.039  -6.086  34.495  1.00  0.00     0.136 C 
HETATM   21  C6  UNK     1      31.210  -6.052  33.218  1.00  0.00     0.041 C 
ENDBRANCH   3  12
BRANCH  10  22
HETATM   22  O5  UNK     1      26.789 -10.400  37.883  1.00  0.00    -0.356 OA
HETATM   23  C17 UNK     1      26.032 -10.550  36.684  1.00  0.00     0.210 C 
ENDBRANCH  10  22
TORSDOF 2
ENDMDL
MODEL 8
REMARK VINA RESULT:      -7.5     22.755     24.701
REMARK  2 active torsions:
REMARK  status: ('A' for Active; 'I' for Inactive)
REMARK    1  A    between atoms: C15_21  and  O5_5 
REMARK       I    between atoms: C7_13  and  N1_6 
REMARK    2  A    between atoms: C7_13  and  C8_14 
ROOT
HETATM    1  O3  UNK     1      18.612   4.925  30.448  1.00  0.00    -0.274 OA
HETATM    2  O4  UNK     1      18.455   7.129  31.032  1.00  0.00    -0.259 OA
HETATM    3  C8  UNK     1      18.341   5.551  32.796  1.00  0.00     0.108 A 
HETATM    4  C9  UNK     1      18.359   4.266  33.169  1.00  0.00     0.037 A 
HETATM    5  C10 UNK     1      18.507   3.216  32.174  1.00  0.00     0.002 A 
HETATM    6  C11 UNK     1      18.471   5.953  31.378  1.00  0.00     0.304 A 
HETATM    7  C12 UNK     1      18.630   3.571  30.834  1.00  0.00     0.089 A 
HETATM    8  C13 UNK     1      18.530   1.862  32.517  1.00  0.00     0.051 A 
HETATM    9  C14 UNK     1      18.775   2.613  29.832  1.00  0.00     0.041 A 
HETATM   10  C15 UNK     1      18.674   0.890  31.523  1.00  0.00     0.069 A 
HETATM   11  C16 UNK     1      18.797   1.266  30.182  1.00  0.00     0.039 A 
ENDROOT
BRANCH   3  12
HETATM   12  C7  UNK     1      18.185   6.542  33.879  1.00  0.00     0.260 C 
HETATM   13  O2  UNK     1      19.191   6.852  34.520  1.00  0.00    -0.267 OA
HETATM   14  N1  UNK     1      16.913   7.059  34.107  1.00  0.00    -0.343 N 
HETATM   15  C3  UNK     1      16.716   8.041  35.172  1.00  0.00     0.157 C 
HETATM   16  C4  UNK     1      15.675   6.677  33.417  1.00  0.00     0.157 C 
HETATM   17  C1  UNK     1      15.930   9.253  34.673  1.00  0.00     0.136 C 
HETATM   18  O1  UNK     1      14.720   8.836  34.026  1.00  0.00    -0.378 OA
HETATM   19  C5  UNK     1      16.760  10.178  33.786  1.00  0.00     0.041 C 
HETATM   20  C2  UNK     1      14.926   7.924  32.942  1.00  0.00     0.136 C 
HETATM   21  C6  UNK     1      13.556   7.557  32.387  1.00  0.00     0.041 C 
ENDBRANCH   3  12
BRANCH  10  22
HETATM   22  O5  UNK     1      18.697  -0.429  31.861  1.00  0.00    -0.356 OA
HETATM   23  C17 UNK     1      18.595  -0.746  33.247  1.00  0.00     0.210 C 
ENDBRANCH  10  22
TORSDOF 2
ENDMDL
MODEL 9
REMARK VINA RESULT:      -7.5     31.494     34.336
REMARK  2 active torsions:
REMARK  status: ('A' for Active; 'I' for Inactive)
REMARK    1  A    between atoms: C15_21  and  O5_5 
REMARK       I    between atoms: C7_13  and  N1_6 
REMARK    2  A    between atoms: C7_13  and  C8_14 
ROOT
HETATM    1  O3  UNK     1      33.873  -8.892  29.220  1.00  0.00    -0.274 OA
HETATM    2  O4  UNK     1      36.036  -8.776  29.947  1.00  0.00    -0.259 OA
HETATM    3  C8  UNK     1      34.441  -7.498  31.147  1.00  0.00     0.108 A 
HETATM    4  C9  UNK     1      33.165  -7.121  31.285  1.00  0.00     0.037 A 
HETATM    5  C10 UNK     1      32.149  -7.622  30.372  1.00  0.00     0.002 A 
HETATM    6  C11 UNK     1      34.867  -8.428  30.078  1.00  0.00     0.304 A 
HETATM    7  C12 UNK     1      32.528  -8.498  29.359  1.00  0.00     0.089 A 
HETATM    8  C13 UNK     1      30.805  -7.255  30.479  1.00  0.00     0.051 A 
HETATM    9  C14 UNK     1      31.604  -9.014  28.452  1.00  0.00     0.041 A 
HETATM   10  C15 UNK     1      29.867  -7.764  29.576  1.00  0.00     0.069 A 
HETATM   11  C16 UNK     1      30.267  -8.643  28.565  1.00  0.00     0.039 A 
ENDROOT
BRANCH   3  12
HETATM   12  C7  UNK     1      35.397  -6.935  32.121  1.00  0.00     0.260 C 
HETATM   13  O2  UNK     1      36.243  -6.145  31.699  1.00  0.00    -0.267 OA
HETATM   14  N1  UNK     1      35.280  -7.334  33.449  1.00  0.00    -0.343 N 
HETATM   15  C3  UNK     1      36.210  -6.800  34.444  1.00  0.00     0.157 C 
HETATM   16  C4  UNK     1      34.334  -8.317  33.990  1.00  0.00     0.157 C 
HETATM   17  C1  UNK     1      35.468  -6.280  35.675  1.00  0.00     0.136 C 
HETATM   18  O1  UNK     1      34.573  -7.277  36.182  1.00  0.00    -0.378 OA
HETATM   19  C5  UNK     1      34.758  -4.950  35.425  1.00  0.00     0.041 C 
HETATM   20  C2  UNK     1      33.623  -7.748  35.219  1.00  0.00     0.136 C 
HETATM   21  C6  UNK     1      32.774  -8.815  35.899  1.00  0.00     0.041 C 
ENDBRANCH   3  12
BRANCH  10  22
HETATM   22  O5  UNK     1      28.558  -7.405  29.682  1.00  0.00    -0.356 OA
HETATM   23  C17 UNK     1      27.651  -8.392  30.168  1.00  0.00     0.210 C 
ENDBRANCH  10  22
TORSDOF 2
ENDMDL
MODEL 10
REMARK VINA RESULT:      -7.4     27.937     30.203
REMARK  2 active torsions:
REMARK  status: ('A' for Active; 'I' for Inactive)
REMARK    1  A    between atoms: C15_21  and  O5_5 
REMARK       I    between atoms: C7_13  and  N1_6 
REMARK    2  A    between atoms: C7_13  and  C8_14 
ROOT
HETATM    1  O3  UNK     1      19.487  -1.758  34.103  1.00  0.00    -0.274 OA
HETATM    2  O4  UNK     1      20.976  -3.471  33.839  1.00  0.00    -0.259 OA
HETATM    3  C8  UNK     1      20.031  -3.207  35.996  1.00  0.00     0.108 A 
HETATM    4  C9  UNK     1      19.202  -2.523  36.793  1.00  0.00     0.037 A 
HETATM    5  C10 UNK     1      18.453  -1.390  36.272  1.00  0.00     0.002 A 
HETATM    6  C11 UNK     1      20.217  -2.847  34.573  1.00  0.00     0.304 A 
HETATM    7  C12 UNK     1      18.613  -1.033  34.937  1.00  0.00     0.089 A 
HETATM    8  C13 UNK     1      17.578  -0.646  37.068  1.00  0.00     0.051 A 
HETATM    9  C14 UNK     1      17.925   0.042  34.376  1.00  0.00     0.041 A 
HETATM   10  C15 UNK     1      16.881   0.435  36.520  1.00  0.00     0.069 A 
HETATM   11  C16 UNK     1      17.055   0.777  35.176  1.00  0.00     0.039 A 
ENDROOT
BRANCH   3  12
HETATM   12  C7  UNK     1      20.746  -4.339  36.617  1.00  0.00     0.260 C 
HETATM   13  O2  UNK     1      21.729  -4.080  37.314  1.00  0.00    -0.267 OA
HETATM   14  N1  UNK     1      20.267  -5.622  36.372  1.00  0.00    -0.343 N 
HETATM   15  C3  UNK     1      20.950  -6.770  36.967  1.00  0.00     0.157 C 
HETATM   16  C4  UNK     1      19.144  -5.988  35.501  1.00  0.00     0.157 C 
HETATM   17  C1  UNK     1      19.960  -7.711  37.655  1.00  0.00     0.136 C 
HETATM   18  O1  UNK     1      18.893  -8.058  36.763  1.00  0.00    -0.378 OA
HETATM   19  C5  UNK     1      19.438  -7.160  38.981  1.00  0.00     0.041 C 
HETATM   20  C2  UNK     1      18.187  -6.930  36.235  1.00  0.00     0.136 C 
HETATM   21  C6  UNK     1      17.117  -7.461  35.291  1.00  0.00     0.041 C 
ENDBRANCH   3  12
BRANCH  10  22
HETATM   22  O5  UNK     1      16.028   1.157  37.298  1.00  0.00    -0.356 OA
HETATM   23  C17 UNK     1      14.657   1.183  36.907  1.00  0.00     0.210 C 
ENDBRANCH  10  22
TORSDOF 2
ENDMDL
