MODEL 1
REMARK VINA RESULT:      -8.1      0.000      0.000
REMARK  9 active torsions:
REMARK  status: ('A' for Active; 'I' for Inactive)
REMARK    1  A    between atoms: C2_9  and  O1_1 
REMARK    2  A    between atoms: C3_10  and  O2_2 
REMARK    3  A    between atoms: C4_11  and  O3_3 
REMARK    4  A    between atoms: C13_20  and  O4_4 
REMARK    5  A    between atoms: C19_26  and  O4_4 
REMARK       I    between atoms: C20_27  and  N1_7 
REMARK    6  A    between atoms: C1_8  and  C7_14 
REMARK    7  A    between atoms: C7_14  and  C9_16 
REMARK    8  A    between atoms: C10_17  and  C8_15 
REMARK    9  A    between atoms: C19_26  and  C20_27 
ROOT
HETATM    1  C9  UNK     1      19.008   3.858  30.107  1.00  0.00     0.056 C 
HETATM    2  C10 UNK     1      19.362   5.163  30.134  1.00  0.00     0.015 C 
ENDROOT
BRANCH   1   3
HETATM    3  C7  UNK     1      18.300   3.246  31.266  1.00  0.00     0.182 C 
HETATM    4  O5  UNK     1      17.451   3.848  31.914  1.00  0.00    -0.288 OA
BRANCH   3   5
HETATM    5  C1  UNK     1      18.629   1.842  31.612  1.00  0.00     0.019 A 
HETATM    6  C5  UNK     1      19.222   1.012  30.660  1.00  0.00     0.055 A 
HETATM    7  C3  UNK     1      19.532  -0.309  30.983  1.00  0.00     0.105 A 
HETATM    8  C2  UNK     1      19.247  -0.800  32.258  1.00  0.00     0.135 A 
HETATM    9  C4  UNK     1      18.653   0.030  33.209  1.00  0.00     0.105 A 
HETATM   10  C6  UNK     1      18.345   1.352  32.885  1.00  0.00     0.055 A 
BRANCH   7  11
HETATM   11  O2  UNK     1      20.114  -1.109  30.046  1.00  0.00    -0.353 OA
HETATM   12  C17 UNK     1      20.204  -0.592  28.721  1.00  0.00     0.210 C 
ENDBRANCH   7  11
BRANCH   8  13
HETATM   13  O1  UNK     1      19.548  -2.091  32.574  1.00  0.00    -0.351 OA
HETATM   14  C16 UNK     1      20.889  -2.364  32.975  1.00  0.00     0.210 C 
ENDBRANCH   8  13
BRANCH   9  15
HETATM   15  O3  UNK     1      18.372  -0.437  34.458  1.00  0.00    -0.353 OA
HETATM   16  C18 UNK     1      16.995  -0.606  34.791  1.00  0.00     0.210 C 
ENDBRANCH   9  15
ENDBRANCH   3   5
ENDBRANCH   1   3
BRANCH   2  17
HETATM   17  C8  UNK     1      19.108   6.078  31.236  1.00  0.00    -0.036 A 
HETATM   18  C11 UNK     1      17.937   6.836  31.257  1.00  0.00     0.014 A 
HETATM   19  C14 UNK     1      17.693   7.712  32.315  1.00  0.00     0.037 A 
HETATM   20  C13 UNK     1      18.620   7.830  33.351  1.00  0.00     0.069 A 
HETATM   21  C15 UNK     1      19.790   7.072  33.329  1.00  0.00     0.037 A 
HETATM   22  C12 UNK     1      20.034   6.196  32.272  1.00  0.00     0.014 A 
BRANCH  20  23
HETATM   23  O4  UNK     1      18.381   8.685  34.383  1.00  0.00    -0.342 OA
BRANCH  23  24
HETATM   24  C19 UNK     1      17.768   9.933  34.063  1.00  0.00     0.278 C 
BRANCH  24  25
HETATM   25  C20 UNK     1      18.832  10.996  33.923  1.00  0.00     0.239 C 
HETATM   26  O6  UNK     1      18.671  12.044  33.305  1.00  0.00    -0.271 OA
HETATM   27  N1  UNK     1      20.002  10.655  34.568  1.00  0.00    -0.368 N 
HETATM   28  H20 UNK     1      20.109   9.780  35.072  1.00  0.00     0.159 HD
HETATM   29  H21 UNK     1      20.804  11.277  34.558  1.00  0.00     0.159 HD
ENDBRANCH  24  25
ENDBRANCH  23  24
ENDBRANCH  20  23
ENDBRANCH   2  17
TORSDOF 9
ENDMDL
MODEL 2
REMARK VINA RESULT:      -8.1      3.075      8.226
REMARK  9 active torsions:
REMARK  status: ('A' for Active; 'I' for Inactive)
REMARK    1  A    between atoms: C2_9  and  O1_1 
REMARK    2  A    between atoms: C3_10  and  O2_2 
REMARK    3  A    between atoms: C4_11  and  O3_3 
REMARK    4  A    between atoms: C13_20  and  O4_4 
REMARK    5  A    between atoms: C19_26  and  O4_4 
REMARK       I    between atoms: C20_27  and  N1_7 
REMARK    6  A    between atoms: C1_8  and  C7_14 
REMARK    7  A    between atoms: C7_14  and  C9_16 
REMARK    8  A    between atoms: C10_17  and  C8_15 
REMARK    9  A    between atoms: C19_26  and  C20_27 
ROOT
HETATM    1  C9  UNK     1      19.039   5.137  29.436  1.00  0.00     0.056 C 
HETATM    2  C10 UNK     1      18.538   3.881  29.429  1.00  0.00     0.015 C 
ENDROOT
BRANCH   1   3
HETATM    3  C7  UNK     1      19.712   5.671  30.653  1.00  0.00     0.182 C 
HETATM    4  O5  UNK     1      20.884   5.430  30.919  1.00  0.00    -0.288 OA
BRANCH   3   5
HETATM    5  C1  UNK     1      18.922   6.554  31.545  1.00  0.00     0.019 A 
HETATM    6  C5  UNK     1      19.474   7.008  32.743  1.00  0.00     0.055 A 
HETATM    7  C3  UNK     1      18.731   7.837  33.583  1.00  0.00     0.105 A 
HETATM    8  C2  UNK     1      17.435   8.210  33.226  1.00  0.00     0.135 A 
HETATM    9  C4  UNK     1      16.882   7.754  32.029  1.00  0.00     0.105 A 
HETATM   10  C6  UNK     1      17.627   6.926  31.188  1.00  0.00     0.055 A 
BRANCH   7  11
HETATM   11  O2  UNK     1      19.283   8.277  34.749  1.00  0.00    -0.353 OA
HETATM   12  C17 UNK     1      20.294   9.277  34.649  1.00  0.00     0.210 C 
ENDBRANCH   7  11
BRANCH   8  13
HETATM   13  O1  UNK     1      16.707   9.018  34.048  1.00  0.00    -0.351 OA
HETATM   14  C16 UNK     1      16.849  10.425  33.862  1.00  0.00     0.210 C 
ENDBRANCH   8  13
BRANCH   9  15
HETATM   15  O3  UNK     1      15.618   8.113  31.668  1.00  0.00    -0.353 OA
HETATM   16  C18 UNK     1      14.573   7.189  31.965  1.00  0.00     0.210 C 
ENDBRANCH   9  15
ENDBRANCH   3   5
ENDBRANCH   1   3
BRANCH   2  17
HETATM   17  C8  UNK     1      18.593   2.950  30.545  1.00  0.00    -0.036 A 
HETATM   18  C11 UNK     1      19.132   1.676  30.364  1.00  0.00     0.014 A 
HETATM   19  C14 UNK     1      19.186   0.783  31.435  1.00  0.00     0.037 A 
HETATM   20  C13 UNK     1      18.701   1.166  32.686  1.00  0.00     0.069 A 
HETATM   21  C15 UNK     1      18.162   2.439  32.866  1.00  0.00     0.037 A 
HETATM   22  C12 UNK     1      18.108   3.331  31.796  1.00  0.00     0.014 A 
BRANCH  20  23
HETATM   23  O4  UNK     1      18.754   0.295  33.731  1.00  0.00    -0.342 OA
BRANCH  23  24
HETATM   24  C19 UNK     1      17.990   0.624  34.890  1.00  0.00     0.278 C 
BRANCH  24  25
HETATM   25  C20 UNK     1      16.640  -0.049  34.811  1.00  0.00     0.239 C 
HETATM   26  O6  UNK     1      15.610   0.528  34.472  1.00  0.00    -0.271 OA
HETATM   27  N1  UNK     1      16.696  -1.381  35.161  1.00  0.00    -0.368 N 
HETATM   28  H20 UNK     1      17.562  -1.833  35.439  1.00  0.00     0.159 HD
HETATM   29  H21 UNK     1      15.862  -1.958  35.153  1.00  0.00     0.159 HD
ENDBRANCH  24  25
ENDBRANCH  23  24
ENDBRANCH  20  23
ENDBRANCH   2  17
TORSDOF 9
ENDMDL
MODEL 3
REMARK VINA RESULT:      -8.0      3.078      8.155
REMARK  9 active torsions:
REMARK  status: ('A' for Active; 'I' for Inactive)
REMARK    1  A    between atoms: C2_9  and  O1_1 
REMARK    2  A    between atoms: C3_10  and  O2_2 
REMARK    3  A    between atoms: C4_11  and  O3_3 
REMARK    4  A    between atoms: C13_20  and  O4_4 
REMARK    5  A    between atoms: C19_26  and  O4_4 
REMARK       I    between atoms: C20_27  and  N1_7 
REMARK    6  A    between atoms: C1_8  and  C7_14 
REMARK    7  A    between atoms: C7_14  and  C9_16 
REMARK    8  A    between atoms: C10_17  and  C8_15 
REMARK    9  A    between atoms: C19_26  and  C20_27 
ROOT
HETATM    1  C9  UNK     1      19.063   5.076  29.471  1.00  0.00     0.056 C 
HETATM    2  C10 UNK     1      18.542   3.828  29.508  1.00  0.00     0.015 C 
ENDROOT
BRANCH   1   3
HETATM    3  C7  UNK     1      19.727   5.650  30.675  1.00  0.00     0.182 C 
HETATM    4  O5  UNK     1      20.904   5.439  30.943  1.00  0.00    -0.288 OA
BRANCH   3   5
HETATM    5  C1  UNK     1      18.920   6.534  31.550  1.00  0.00     0.019 A 
HETATM    6  C5  UNK     1      17.631   6.905  31.167  1.00  0.00     0.055 A 
HETATM    7  C3  UNK     1      16.872   7.738  31.989  1.00  0.00     0.105 A 
HETATM    8  C2  UNK     1      17.402   8.199  33.194  1.00  0.00     0.135 A 
HETATM    9  C4  UNK     1      18.691   7.829  33.577  1.00  0.00     0.105 A 
HETATM   10  C6  UNK     1      19.450   6.995  32.754  1.00  0.00     0.055 A 
BRANCH   7  11
HETATM   11  O2  UNK     1      15.613   8.091  31.605  1.00  0.00    -0.353 OA
HETATM   12  C17 UNK     1      14.554   7.209  31.970  1.00  0.00     0.210 C 
ENDBRANCH   7  11
BRANCH   8  13
HETATM   13  O1  UNK     1      16.661   9.014  33.997  1.00  0.00    -0.351 OA
HETATM   14  C16 UNK     1      16.856  10.419  33.849  1.00  0.00     0.210 C 
ENDBRANCH   8  13
BRANCH   9  15
HETATM   15  O3  UNK     1      19.220   8.271  34.752  1.00  0.00    -0.353 OA
HETATM   16  C18 UNK     1      20.271   9.232  34.669  1.00  0.00     0.210 C 
ENDBRANCH   9  15
ENDBRANCH   3   5
ENDBRANCH   1   3
BRANCH   2  17
HETATM   17  C8  UNK     1      18.566   2.944  30.662  1.00  0.00    -0.036 A 
HETATM   18  C11 UNK     1      18.084   3.390  31.893  1.00  0.00     0.014 A 
HETATM   19  C14 UNK     1      18.105   2.540  32.999  1.00  0.00     0.037 A 
HETATM   20  C13 UNK     1      18.609   1.245  32.874  1.00  0.00     0.069 A 
HETATM   21  C15 UNK     1      19.090   0.800  31.644  1.00  0.00     0.037 A 
HETATM   22  C12 UNK     1      19.069   1.649  30.538  1.00  0.00     0.014 A 
BRANCH  20  23
HETATM   23  O4  UNK     1      18.629   0.417  33.953  1.00  0.00    -0.342 OA
BRANCH  23  24
HETATM   24  C19 UNK     1      17.744   0.730  35.029  1.00  0.00     0.278 C 
BRANCH  24  25
HETATM   25  C20 UNK     1      16.448  -0.025  34.852  1.00  0.00     0.239 C 
HETATM   26  O6  UNK     1      15.365   0.374  35.270  1.00  0.00    -0.271 OA
HETATM   27  N1  UNK     1      16.621  -1.210  34.169  1.00  0.00    -0.368 N 
HETATM   28  H20 UNK     1      17.528  -1.517  33.834  1.00  0.00     0.159 HD
HETATM   29  H21 UNK     1      15.833  -1.821  33.977  1.00  0.00     0.159 HD
ENDBRANCH  24  25
ENDBRANCH  23  24
ENDBRANCH  20  23
ENDBRANCH   2  17
TORSDOF 9
ENDMDL
MODEL 4
REMARK VINA RESULT:      -8.0      1.474      3.074
REMARK  9 active torsions:
REMARK  status: ('A' for Active; 'I' for Inactive)
REMARK    1  A    between atoms: C2_9  and  O1_1 
REMARK    2  A    between atoms: C3_10  and  O2_2 
REMARK    3  A    between atoms: C4_11  and  O3_3 
REMARK    4  A    between atoms: C13_20  and  O4_4 
REMARK    5  A    between atoms: C19_26  and  O4_4 
REMARK       I    between atoms: C20_27  and  N1_7 
REMARK    6  A    between atoms: C1_8  and  C7_14 
REMARK    7  A    between atoms: C7_14  and  C9_16 
REMARK    8  A    between atoms: C10_17  and  C8_15 
REMARK    9  A    between atoms: C19_26  and  C20_27 
ROOT
HETATM    1  C9  UNK     1      19.061   4.105  30.194  1.00  0.00     0.056 C 
HETATM    2  C10 UNK     1      19.276   5.439  30.251  1.00  0.00     0.015 C 
ENDROOT
BRANCH   1   3
HETATM    3  C7  UNK     1      18.317   3.416  31.285  1.00  0.00     0.182 C 
HETATM    4  O5  UNK     1      17.444   3.970  31.942  1.00  0.00    -0.288 OA
BRANCH   3   5
HETATM    5  C1  UNK     1      18.643   1.993  31.548  1.00  0.00     0.019 A 
HETATM    6  C5  UNK     1      18.324   1.421  32.779  1.00  0.00     0.055 A 
HETATM    7  C3  UNK     1      18.631   0.083  33.028  1.00  0.00     0.105 A 
HETATM    8  C2  UNK     1      19.258  -0.682  32.044  1.00  0.00     0.135 A 
HETATM    9  C4  UNK     1      19.578  -0.110  30.812  1.00  0.00     0.105 A 
HETATM   10  C6  UNK     1      19.269   1.228  30.565  1.00  0.00     0.055 A 
BRANCH   7  11
HETATM   11  O2  UNK     1      18.312  -0.464  34.234  1.00  0.00    -0.353 OA
HETATM   12  C17 UNK     1      16.960  -0.332  34.667  1.00  0.00     0.210 C 
ENDBRANCH   7  11
BRANCH   8  13
HETATM   13  O1  UNK     1      19.560  -1.989  32.287  1.00  0.00    -0.351 OA
HETATM   14  C16 UNK     1      20.868  -2.269  32.781  1.00  0.00     0.210 C 
ENDBRANCH   8  13
BRANCH   9  15
HETATM   15  O3  UNK     1      20.188  -0.847  29.843  1.00  0.00    -0.353 OA
HETATM   16  C18 UNK     1      19.763  -0.630  28.499  1.00  0.00     0.210 C 
ENDBRANCH   9  15
ENDBRANCH   3   5
ENDBRANCH   1   3
BRANCH   2  17
HETATM   17  C8  UNK     1      18.832   6.315  31.323  1.00  0.00    -0.036 A 
HETATM   18  C11 UNK     1      19.621   6.478  32.462  1.00  0.00     0.014 A 
HETATM   19  C14 UNK     1      19.196   7.320  33.490  1.00  0.00     0.037 A 
HETATM   20  C13 UNK     1      17.982   7.998  33.379  1.00  0.00     0.069 A 
HETATM   21  C15 UNK     1      17.193   7.834  32.241  1.00  0.00     0.037 A 
HETATM   22  C12 UNK     1      17.618   6.993  31.213  1.00  0.00     0.014 A 
BRANCH  20  23
HETATM   23  O4  UNK     1      17.567   8.819  34.382  1.00  0.00    -0.342 OA
BRANCH  23  24
HETATM   24  C19 UNK     1      16.692   9.888  34.026  1.00  0.00     0.278 C 
BRANCH  24  25
HETATM   25  C20 UNK     1      15.475   9.862  34.920  1.00  0.00     0.239 C 
HETATM   26  O6  UNK     1      15.244  10.708  35.780  1.00  0.00    -0.271 OA
HETATM   27  N1  UNK     1      14.657   8.783  34.661  1.00  0.00    -0.368 N 
HETATM   28  H20 UNK     1      14.873   8.098  33.945  1.00  0.00     0.159 HD
HETATM   29  H21 UNK     1      13.801   8.639  35.188  1.00  0.00     0.159 HD
ENDBRANCH  24  25
ENDBRANCH  23  24
ENDBRANCH  20  23
ENDBRANCH   2  17
TORSDOF 9
ENDMDL
MODEL 5
REMARK VINA RESULT:      -7.8      4.411      9.575
REMARK  9 active torsions:
REMARK  status: ('A' for Active; 'I' for Inactive)
REMARK    1  A    between atoms: C2_9  and  O1_1 
REMARK    2  A    between atoms: C3_10  and  O2_2 
REMARK    3  A    between atoms: C4_11  and  O3_3 
REMARK    4  A    between atoms: C13_20  and  O4_4 
REMARK    5  A    between atoms: C19_26  and  O4_4 
REMARK       I    between atoms: C20_27  and  N1_7 
REMARK    6  A    between atoms: C1_8  and  C7_14 
REMARK    7  A    between atoms: C7_14  and  C9_16 
REMARK    8  A    between atoms: C10_17  and  C8_15 
REMARK    9  A    between atoms: C19_26  and  C20_27 
ROOT
HETATM    1  C9  UNK     1      17.085   1.741  36.403  1.00  0.00     0.056 C 
HETATM    2  C10 UNK     1      16.873   0.445  36.727  1.00  0.00     0.015 C 
ENDROOT
BRANCH   1   3
HETATM    3  C7  UNK     1      18.387   2.165  35.815  1.00  0.00     0.182 C 
HETATM    4  O5  UNK     1      19.461   1.944  36.361  1.00  0.00    -0.288 OA
BRANCH   3   5
HETATM    5  C1  UNK     1      18.357   2.854  34.502  1.00  0.00     0.019 A 
HETATM    6  C5  UNK     1      18.436   4.245  34.443  1.00  0.00     0.055 A 
HETATM    7  C3  UNK     1      18.407   4.894  33.209  1.00  0.00     0.105 A 
HETATM    8  C2  UNK     1      18.297   4.150  32.034  1.00  0.00     0.135 A 
HETATM    9  C4  UNK     1      18.217   2.759  32.092  1.00  0.00     0.105 A 
HETATM   10  C6  UNK     1      18.247   2.111  33.328  1.00  0.00     0.055 A 
BRANCH   7  11
HETATM   11  O2  UNK     1      18.488   6.253  33.165  1.00  0.00    -0.353 OA
HETATM   12  C17 UNK     1      19.729   6.840  33.549  1.00  0.00     0.210 C 
ENDBRANCH   7  11
BRANCH   8  13
HETATM   13  O1  UNK     1      18.267   4.784  30.827  1.00  0.00    -0.351 OA
HETATM   14  C16 UNK     1      19.523   5.111  30.236  1.00  0.00     0.210 C 
ENDBRANCH   8  13
BRANCH   9  15
HETATM   15  O3  UNK     1      18.111   2.022  30.952  1.00  0.00    -0.353 OA
HETATM   16  C18 UNK     1      19.172   1.112  30.668  1.00  0.00     0.210 C 
ENDBRANCH   9  15
ENDBRANCH   3   5
ENDBRANCH   1   3
BRANCH   2  17
HETATM   17  C8  UNK     1      17.834  -0.632  36.551  1.00  0.00    -0.036 A 
HETATM   18  C11 UNK     1      18.301  -1.337  37.660  1.00  0.00     0.014 A 
HETATM   19  C14 UNK     1      19.222  -2.372  37.491  1.00  0.00     0.037 A 
HETATM   20  C13 UNK     1      19.675  -2.700  36.213  1.00  0.00     0.069 A 
HETATM   21  C15 UNK     1      19.208  -1.995  35.105  1.00  0.00     0.037 A 
HETATM   22  C12 UNK     1      18.287  -0.961  35.274  1.00  0.00     0.014 A 
BRANCH  20  23
HETATM   23  O4  UNK     1      20.573  -3.710  36.049  1.00  0.00    -0.342 OA
BRANCH  23  24
HETATM   24  C19 UNK     1      20.146  -5.023  36.409  1.00  0.00     0.278 C 
BRANCH  24  25
HETATM   25  C20 UNK     1      20.895  -5.475  37.640  1.00  0.00     0.239 C 
HETATM   26  O6  UNK     1      22.117  -5.432  37.748  1.00  0.00    -0.271 OA
HETATM   27  N1  UNK     1      20.051  -5.942  38.626  1.00  0.00    -0.368 N 
HETATM   28  H20 UNK     1      19.043  -5.968  38.509  1.00  0.00     0.159 HD
HETATM   29  H21 UNK     1      20.418  -6.279  39.510  1.00  0.00     0.159 HD
ENDBRANCH  24  25
ENDBRANCH  23  24
ENDBRANCH  20  23
ENDBRANCH   2  17
TORSDOF 9
ENDMDL
MODEL 6
REMARK VINA RESULT:      -7.7     14.797     17.500
REMARK  9 active torsions:
REMARK  status: ('A' for Active; 'I' for Inactive)
REMARK    1  A    between atoms: C2_9  and  O1_1 
REMARK    2  A    between atoms: C3_10  and  O2_2 
REMARK    3  A    between atoms: C4_11  and  O3_3 
REMARK    4  A    between atoms: C13_20  and  O4_4 
REMARK    5  A    between atoms: C19_26  and  O4_4 
REMARK       I    between atoms: C20_27  and  N1_7 
REMARK    6  A    between atoms: C1_8  and  C7_14 
REMARK    7  A    between atoms: C7_14  and  C9_16 
REMARK    8  A    between atoms: C10_17  and  C8_15 
REMARK    9  A    between atoms: C19_26  and  C20_27 
ROOT
HETATM    1  C9  UNK     1      27.492  -7.317  30.866  1.00  0.00     0.056 C 
HETATM    2  C10 UNK     1      28.010  -8.394  30.232  1.00  0.00     0.015 C 
ENDROOT
BRANCH   1   3
HETATM    3  C7  UNK     1      28.384  -6.219  31.333  1.00  0.00     0.182 C 
HETATM    4  O5  UNK     1      28.699  -5.275  30.617  1.00  0.00    -0.288 OA
BRANCH   3   5
HETATM    5  C1  UNK     1      28.871  -6.276  32.733  1.00  0.00     0.019 A 
HETATM    6  C5  UNK     1      30.213  -6.021  33.014  1.00  0.00     0.055 A 
HETATM    7  C3  UNK     1      30.672  -6.075  34.330  1.00  0.00     0.105 A 
HETATM    8  C2  UNK     1      29.788  -6.385  35.364  1.00  0.00     0.135 A 
HETATM    9  C4  UNK     1      28.446  -6.641  35.083  1.00  0.00     0.105 A 
HETATM   10  C6  UNK     1      27.988  -6.585  33.766  1.00  0.00     0.055 A 
BRANCH   7  11
HETATM   11  O2  UNK     1      31.985  -5.822  34.592  1.00  0.00    -0.353 OA
HETATM   12  C17 UNK     1      32.381  -4.453  34.648  1.00  0.00     0.210 C 
ENDBRANCH   7  11
BRANCH   8  13
HETATM   13  O1  UNK     1      30.237  -6.440  36.650  1.00  0.00    -0.351 OA
HETATM   14  C16 UNK     1      30.072  -5.266  37.443  1.00  0.00     0.210 C 
ENDBRANCH   8  13
BRANCH   9  15
HETATM   15  O3  UNK     1      27.573  -6.943  36.084  1.00  0.00    -0.353 OA
HETATM   16  C18 UNK     1      27.399  -8.324  36.397  1.00  0.00     0.210 C 
ENDBRANCH   9  15
ENDBRANCH   3   5
ENDBRANCH   1   3
BRANCH   2  17
HETATM   17  C8  UNK     1      29.420  -8.599  29.943  1.00  0.00    -0.036 A 
HETATM   18  C11 UNK     1      29.974  -8.085  28.771  1.00  0.00     0.014 A 
HETATM   19  C14 UNK     1      31.328  -8.281  28.495  1.00  0.00     0.037 A 
HETATM   20  C13 UNK     1      32.127  -8.990  29.392  1.00  0.00     0.069 A 
HETATM   21  C15 UNK     1      31.573  -9.504  30.564  1.00  0.00     0.037 A 
HETATM   22  C12 UNK     1      30.220  -9.309  30.839  1.00  0.00     0.014 A 
BRANCH  20  23
HETATM   23  O4  UNK     1      33.447  -9.180  29.123  1.00  0.00    -0.342 OA
BRANCH  23  24
HETATM   24  C19 UNK     1      34.382  -8.437  29.904  1.00  0.00     0.278 C 
BRANCH  24  25
HETATM   25  C20 UNK     1      35.158  -7.503  29.005  1.00  0.00     0.239 C 
HETATM   26  O6  UNK     1      35.429  -7.753  27.834  1.00  0.00    -0.271 OA
HETATM   27  N1  UNK     1      35.528  -6.342  29.650  1.00  0.00    -0.368 N 
HETATM   28  H20 UNK     1      35.292  -6.161  30.621  1.00  0.00     0.159 HD
HETATM   29  H21 UNK     1      36.055  -5.622  29.167  1.00  0.00     0.159 HD
ENDBRANCH  24  25
ENDBRANCH  23  24
ENDBRANCH  20  23
ENDBRANCH   2  17
TORSDOF 9
ENDMDL
MODEL 7
REMARK VINA RESULT:      -7.7     14.783     17.628
REMARK  9 active torsions:
REMARK  status: ('A' for Active; 'I' for Inactive)
REMARK    1  A    between atoms: C2_9  and  O1_1 
REMARK    2  A    between atoms: C3_10  and  O2_2 
REMARK    3  A    between atoms: C4_11  and  O3_3 
REMARK    4  A    between atoms: C13_20  and  O4_4 
REMARK    5  A    between atoms: C19_26  and  O4_4 
REMARK       I    between atoms: C20_27  and  N1_7 
REMARK    6  A    between atoms: C1_8  and  C7_14 
REMARK    7  A    between atoms: C7_14  and  C9_16 
REMARK    8  A    between atoms: C10_17  and  C8_15 
REMARK    9  A    between atoms: C19_26  and  C20_27 
ROOT
HETATM    1  C9  UNK     1      27.420  -7.437  30.825  1.00  0.00     0.056 C 
HETATM    2  C10 UNK     1      27.972  -8.521  30.235  1.00  0.00     0.015 C 
ENDROOT
BRANCH   1   3
HETATM    3  C7  UNK     1      28.273  -6.282  31.223  1.00  0.00     0.182 C 
HETATM    4  O5  UNK     1      28.525  -5.354  30.463  1.00  0.00    -0.288 OA
BRANCH   3   5
HETATM    5  C1  UNK     1      28.800  -6.261  32.609  1.00  0.00     0.019 A 
HETATM    6  C5  UNK     1      27.971  -6.609  33.675  1.00  0.00     0.055 A 
HETATM    7  C3  UNK     1      28.465  -6.589  34.979  1.00  0.00     0.105 A 
HETATM    8  C2  UNK     1      29.789  -6.220  35.217  1.00  0.00     0.135 A 
HETATM    9  C4  UNK     1      30.619  -5.871  34.151  1.00  0.00     0.105 A 
HETATM   10  C6  UNK     1      30.124  -5.892  32.846  1.00  0.00     0.055 A 
BRANCH   7  11
HETATM   11  O2  UNK     1      27.646  -6.933  36.012  1.00  0.00    -0.353 OA
HETATM   12  C17 UNK     1      27.537  -8.322  36.316  1.00  0.00     0.210 C 
ENDBRANCH   7  11
BRANCH   8  13
HETATM   13  O1  UNK     1      30.273  -6.198  36.491  1.00  0.00    -0.351 OA
HETATM   14  C16 UNK     1      30.084  -4.995  37.233  1.00  0.00     0.210 C 
ENDBRANCH   8  13
BRANCH   9  15
HETATM   15  O3  UNK     1      31.914  -5.510  34.369  1.00  0.00    -0.353 OA
HETATM   16  C18 UNK     1      32.920  -6.452  34.000  1.00  0.00     0.210 C 
ENDBRANCH   9  15
ENDBRANCH   3   5
ENDBRANCH   1   3
BRANCH   2  17
HETATM   17  C8  UNK     1      29.385  -8.684  29.933  1.00  0.00    -0.036 A 
HETATM   18  C11 UNK     1      30.238  -9.257  30.877  1.00  0.00     0.014 A 
HETATM   19  C14 UNK     1      31.594  -9.415  30.587  1.00  0.00     0.037 A 
HETATM   20  C13 UNK     1      32.095  -8.999  29.353  1.00  0.00     0.069 A 
HETATM   21  C15 UNK     1      31.242  -8.426  28.410  1.00  0.00     0.037 A 
HETATM   22  C12 UNK     1      29.888  -8.269  28.701  1.00  0.00     0.014 A 
BRANCH  20  23
HETATM   23  O4  UNK     1      33.417  -9.154  29.070  1.00  0.00    -0.342 OA
BRANCH  23  24
HETATM   24  C19 UNK     1      34.344  -8.438  29.885  1.00  0.00     0.278 C 
BRANCH  24  25
HETATM   25  C20 UNK     1      35.148  -7.493  29.024  1.00  0.00     0.239 C 
HETATM   26  O6  UNK     1      35.422  -7.710  27.848  1.00  0.00    -0.271 OA
HETATM   27  N1  UNK     1      35.538  -6.362  29.710  1.00  0.00    -0.368 N 
HETATM   28  H20 UNK     1      35.298  -6.208  30.683  1.00  0.00     0.159 HD
HETATM   29  H21 UNK     1      36.085  -5.639  29.254  1.00  0.00     0.159 HD
ENDBRANCH  24  25
ENDBRANCH  23  24
ENDBRANCH  20  23
ENDBRANCH   2  17
TORSDOF 9
ENDMDL
MODEL 8
REMARK VINA RESULT:      -7.6     15.354     18.469
REMARK  9 active torsions:
REMARK  status: ('A' for Active; 'I' for Inactive)
REMARK    1  A    between atoms: C2_9  and  O1_1 
REMARK    2  A    between atoms: C3_10  and  O2_2 
REMARK    3  A    between atoms: C4_11  and  O3_3 
REMARK    4  A    between atoms: C13_20  and  O4_4 
REMARK    5  A    between atoms: C19_26  and  O4_4 
REMARK       I    between atoms: C20_27  and  N1_7 
REMARK    6  A    between atoms: C1_8  and  C7_14 
REMARK    7  A    between atoms: C7_14  and  C9_16 
REMARK    8  A    between atoms: C10_17  and  C8_15 
REMARK    9  A    between atoms: C19_26  and  C20_27 
ROOT
HETATM    1  C9  UNK     1      31.413  -3.881  37.503  1.00  0.00     0.056 C 
HETATM    2  C10 UNK     1      31.760  -3.653  36.216  1.00  0.00     0.015 C 
ENDROOT
BRANCH   1   3
HETATM    3  C7  UNK     1      31.861  -5.123  38.194  1.00  0.00     0.182 C 
HETATM    4  O5  UNK     1      32.957  -5.219  38.734  1.00  0.00    -0.288 OA
BRANCH   3   5
HETATM    5  C1  UNK     1      30.913  -6.262  38.245  1.00  0.00     0.019 A 
HETATM    6  C5  UNK     1      31.367  -7.557  37.998  1.00  0.00     0.055 A 
HETATM    7  C3  UNK     1      30.477  -8.630  38.044  1.00  0.00     0.105 A 
HETATM    8  C2  UNK     1      29.131  -8.406  38.336  1.00  0.00     0.135 A 
HETATM    9  C4  UNK     1      28.676  -7.110  38.581  1.00  0.00     0.105 A 
HETATM   10  C6  UNK     1      29.568  -6.038  38.536  1.00  0.00     0.055 A 
BRANCH   7  11
HETATM   11  O2  UNK     1      30.934  -9.891  37.804  1.00  0.00    -0.353 OA
HETATM   12  C17 UNK     1      31.540 -10.128  36.535  1.00  0.00     0.210 C 
ENDBRANCH   7  11
BRANCH   8  13
HETATM   13  O1  UNK     1      28.259  -9.453  38.379  1.00  0.00    -0.351 OA
HETATM   14  C16 UNK     1      28.067 -10.083  39.644  1.00  0.00     0.210 C 
ENDBRANCH   8  13
BRANCH   9  15
HETATM   15  O3  UNK     1      27.365  -6.879  38.869  1.00  0.00    -0.353 OA
HETATM   16  C18 UNK     1      26.880  -5.553  38.660  1.00  0.00     0.210 C 
ENDBRANCH   9  15
ENDBRANCH   3   5
ENDBRANCH   1   3
BRANCH   2  17
HETATM   17  C8  UNK     1      32.568  -4.540  35.395  1.00  0.00    -0.036 A 
HETATM   18  C11 UNK     1      31.962  -5.576  34.683  1.00  0.00     0.014 A 
HETATM   19  C14 UNK     1      32.737  -6.427  33.894  1.00  0.00     0.037 A 
HETATM   20  C13 UNK     1      34.118  -6.241  33.819  1.00  0.00     0.069 A 
HETATM   21  C15 UNK     1      34.723  -5.206  34.531  1.00  0.00     0.037 A 
HETATM   22  C12 UNK     1      33.948  -4.356  35.319  1.00  0.00     0.014 A 
BRANCH  20  23
HETATM   23  O4  UNK     1      34.874  -7.071  33.049  1.00  0.00    -0.342 OA
BRANCH  23  24
HETATM   24  C19 UNK     1      36.288  -6.884  33.088  1.00  0.00     0.278 C 
BRANCH  24  25
HETATM   25  C20 UNK     1      36.945  -8.127  33.642  1.00  0.00     0.239 C 
HETATM   26  O6  UNK     1      37.341  -9.056  32.944  1.00  0.00    -0.271 OA
HETATM   27  N1  UNK     1      37.047  -8.098  35.016  1.00  0.00    -0.368 N 
HETATM   28  H20 UNK     1      36.710  -7.317  35.569  1.00  0.00     0.159 HD
HETATM   29  H21 UNK     1      37.469  -8.868  35.524  1.00  0.00     0.159 HD
ENDBRANCH  24  25
ENDBRANCH  23  24
ENDBRANCH  20  23
ENDBRANCH   2  17
TORSDOF 9
ENDMDL
MODEL 9
REMARK VINA RESULT:      -7.6      5.296      8.704
REMARK  9 active torsions:
REMARK  status: ('A' for Active; 'I' for Inactive)
REMARK    1  A    between atoms: C2_9  and  O1_1 
REMARK    2  A    between atoms: C3_10  and  O2_2 
REMARK    3  A    between atoms: C4_11  and  O3_3 
REMARK    4  A    between atoms: C13_20  and  O4_4 
REMARK    5  A    between atoms: C19_26  and  O4_4 
REMARK       I    between atoms: C20_27  and  N1_7 
REMARK    6  A    between atoms: C1_8  and  C7_14 
REMARK    7  A    between atoms: C7_14  and  C9_16 
REMARK    8  A    between atoms: C10_17  and  C8_15 
REMARK    9  A    between atoms: C19_26  and  C20_27 
ROOT
HETATM    1  C9  UNK     1      18.939  -2.360  37.905  1.00  0.00     0.056 C 
HETATM    2  C10 UNK     1      18.105  -1.359  37.541  1.00  0.00     0.015 C 
ENDROOT
BRANCH   1   3
HETATM    3  C7  UNK     1      20.019  -2.811  36.982  1.00  0.00     0.182 C 
HETATM    4  O5  UNK     1      20.737  -2.028  36.373  1.00  0.00    -0.288 OA
BRANCH   3   5
HETATM    5  C1  UNK     1      20.233  -4.272  36.837  1.00  0.00     0.019 A 
HETATM    6  C5  UNK     1      21.247  -4.902  37.558  1.00  0.00     0.055 A 
HETATM    7  C3  UNK     1      21.450  -6.275  37.421  1.00  0.00     0.105 A 
HETATM    8  C2  UNK     1      20.639  -7.017  36.562  1.00  0.00     0.135 A 
HETATM    9  C4  UNK     1      19.626  -6.387  35.840  1.00  0.00     0.105 A 
HETATM   10  C6  UNK     1      19.423  -5.013  35.978  1.00  0.00     0.055 A 
BRANCH   7  11
HETATM   11  O2  UNK     1      22.442  -6.879  38.134  1.00  0.00    -0.353 OA
HETATM   12  C17 UNK     1      22.260  -6.973  39.545  1.00  0.00     0.210 C 
ENDBRANCH   7  11
BRANCH   8  13
HETATM   13  O1  UNK     1      20.839  -8.359  36.426  1.00  0.00    -0.351 OA
HETATM   14  C16 UNK     1      20.144  -9.211  37.335  1.00  0.00     0.210 C 
ENDBRANCH   8  13
BRANCH   9  15
HETATM   15  O3  UNK     1      18.827  -7.101  34.999  1.00  0.00    -0.353 OA
HETATM   16  C18 UNK     1      17.494  -7.359  35.436  1.00  0.00     0.210 C 
ENDBRANCH   9  15
ENDBRANCH   3   5
ENDBRANCH   1   3
BRANCH   2  17
HETATM   17  C8  UNK     1      18.157  -0.641  36.278  1.00  0.00    -0.036 A 
HETATM   18  C11 UNK     1      17.774  -1.278  35.098  1.00  0.00     0.014 A 
HETATM   19  C14 UNK     1      17.822  -0.589  33.885  1.00  0.00     0.037 A 
HETATM   20  C13 UNK     1      18.254   0.737  33.855  1.00  0.00     0.069 A 
HETATM   21  C15 UNK     1      18.636   1.374  35.035  1.00  0.00     0.037 A 
HETATM   22  C12 UNK     1      18.588   0.685  36.246  1.00  0.00     0.014 A 
BRANCH  20  23
HETATM   23  O4  UNK     1      18.300   1.410  32.672  1.00  0.00    -0.342 OA
BRANCH  23  24
HETATM   24  C19 UNK     1      19.009   0.790  31.600  1.00  0.00     0.278 C 
BRANCH  24  25
HETATM   25  C20 UNK     1      18.639   1.459  30.298  1.00  0.00     0.239 C 
HETATM   26  O6  UNK     1      17.584   2.060  30.117  1.00  0.00    -0.271 OA
HETATM   27  N1  UNK     1      19.619   1.317  29.339  1.00  0.00    -0.368 N 
HETATM   28  H20 UNK     1      20.483   0.814  29.515  1.00  0.00     0.159 HD
HETATM   29  H21 UNK     1      19.505   1.718  28.413  1.00  0.00     0.159 HD
ENDBRANCH  24  25
ENDBRANCH  23  24
ENDBRANCH  20  23
ENDBRANCH   2  17
TORSDOF 9
ENDMDL
MODEL 10
REMARK VINA RESULT:      -7.6     23.062     25.226
REMARK  9 active torsions:
REMARK  status: ('A' for Active; 'I' for Inactive)
REMARK    1  A    between atoms: C2_9  and  O1_1 
REMARK    2  A    between atoms: C3_10  and  O2_2 
REMARK    3  A    between atoms: C4_11  and  O3_3 
REMARK    4  A    between atoms: C13_20  and  O4_4 
REMARK    5  A    between atoms: C19_26  and  O4_4 
REMARK       I    between atoms: C20_27  and  N1_7 
REMARK    6  A    between atoms: C1_8  and  C7_14 
REMARK    7  A    between atoms: C7_14  and  C9_16 
REMARK    8  A    between atoms: C10_17  and  C8_15 
REMARK    9  A    between atoms: C19_26  and  C20_27 
ROOT
HETATM    1  C9  UNK     1       8.832   6.277   7.232  1.00  0.00     0.056 C 
HETATM    2  C10 UNK     1      10.125   6.519   6.919  1.00  0.00     0.015 C 
ENDROOT
BRANCH   1   3
HETATM    3  C7  UNK     1       8.467   5.773   8.586  1.00  0.00     0.182 C 
HETATM    4  O5  UNK     1       8.688   4.622   8.944  1.00  0.00    -0.288 OA
BRANCH   3   5
HETATM    5  C1  UNK     1       7.842   6.730   9.531  1.00  0.00     0.019 A 
HETATM    6  C5  UNK     1       8.410   7.989   9.725  1.00  0.00     0.055 A 
HETATM    7  C3  UNK     1       7.824   8.889  10.614  1.00  0.00     0.105 A 
HETATM    8  C2  UNK     1       6.669   8.530  11.309  1.00  0.00     0.135 A 
HETATM    9  C4  UNK     1       6.101   7.271  11.117  1.00  0.00     0.105 A 
HETATM   10  C6  UNK     1       6.688   6.371  10.226  1.00  0.00     0.055 A 
BRANCH   7  11
HETATM   11  O2  UNK     1       8.387  10.117  10.793  1.00  0.00    -0.353 OA
HETATM   12  C17 UNK     1       9.793  10.221  10.577  1.00  0.00     0.210 C 
ENDBRANCH   7  11
BRANCH   8  13
HETATM   13  O1  UNK     1       6.097   9.409  12.180  1.00  0.00    -0.351 OA
HETATM   14  C16 UNK     1       5.043  10.226  11.675  1.00  0.00     0.210 C 
ENDBRANCH   8  13
BRANCH   9  15
HETATM   15  O3  UNK     1       4.973   6.908  11.788  1.00  0.00    -0.353 OA
HETATM   16  C18 UNK     1       4.918   5.574  12.291  1.00  0.00     0.210 C 
ENDBRANCH   9  15
ENDBRANCH   3   5
ENDBRANCH   1   3
BRANCH   2  17
HETATM   17  C8  UNK     1      11.254   6.329   7.816  1.00  0.00    -0.036 A 
HETATM   18  C11 UNK     1      11.614   7.339   8.709  1.00  0.00     0.014 A 
HETATM   19  C14 UNK     1      12.696   7.155   9.570  1.00  0.00     0.037 A 
HETATM   20  C13 UNK     1      13.418   5.962   9.537  1.00  0.00     0.069 A 
HETATM   21  C15 UNK     1      13.059   4.953   8.644  1.00  0.00     0.037 A 
HETATM   22  C12 UNK     1      11.977   5.137   7.784  1.00  0.00     0.014 A 
BRANCH  20  23
HETATM   23  O4  UNK     1      14.473   5.783  10.378  1.00  0.00    -0.342 OA
BRANCH  23  24
HETATM   24  C19 UNK     1      15.776   5.796   9.796  1.00  0.00     0.278 C 
BRANCH  24  25
HETATM   25  C20 UNK     1      16.557   6.972  10.333  1.00  0.00     0.239 C 
HETATM   26  O6  UNK     1      16.074   7.833  11.063  1.00  0.00    -0.271 OA
HETATM   27  N1  UNK     1      17.869   6.969   9.909  1.00  0.00    -0.368 N 
HETATM   28  H20 UNK     1      18.242   6.244   9.304  1.00  0.00     0.159 HD
HETATM   29  H21 UNK     1      18.511   7.701  10.194  1.00  0.00     0.159 HD
ENDBRANCH  24  25
ENDBRANCH  23  24
ENDBRANCH  20  23
ENDBRANCH   2  17
TORSDOF 9
ENDMDL
