MODEL 1
REMARK VINA RESULT:     -10.1      0.000      0.000
REMARK  4 active torsions:
REMARK  status: ('A' for Active; 'I' for Inactive)
REMARK    1  A    between atoms: C12_21  and  O3_6 
REMARK       I    between atoms: C14_23  and  N1_8 
REMARK    2  A    between atoms: C9_18  and  N1_8 
REMARK    3  A    between atoms: C3_12  and  C8_17 
REMARK    4  A    between atoms: C13_22  and  C14_23 
ROOT
HETATM    1  N2  UNK     1      21.286  -2.460  33.511  1.00  0.00    -0.191 NA
HETATM    2  C8  UNK     1      18.753  -1.114  35.502  1.00  0.00     0.045 C 
HETATM    3  C13 UNK     1      19.625  -2.142  35.472  1.00  0.00     0.113 C 
HETATM    4  C19 UNK     1      20.539  -2.314  34.389  1.00  0.00     0.105 C 
ENDROOT
BRANCH   3   5
HETATM    5  C14 UNK     1      19.584  -3.110  36.636  1.00  0.00     0.266 C 
HETATM    6  O4  UNK     1      19.377  -2.701  37.777  1.00  0.00    -0.267 OA
HETATM    7  N1  UNK     1      19.800  -4.433  36.268  1.00  0.00    -0.320 N 
HETATM    8  H5  UNK     1      19.959  -4.649  35.288  1.00  0.00     0.169 HD
BRANCH   7   9
HETATM    9  C9  UNK     1      19.823  -5.571  37.114  1.00  0.00     0.070 A 
HETATM   10  C12 UNK     1      18.766  -6.463  37.100  1.00  0.00     0.095 A 
HETATM   11  C16 UNK     1      18.803  -7.579  37.936  1.00  0.00     0.041 A 
HETATM   12  C18 UNK     1      19.899  -7.785  38.776  1.00  0.00     0.026 A 
HETATM   13  C17 UNK     1      20.956  -6.875  38.777  1.00  0.00     0.036 A 
HETATM   14  C15 UNK     1      20.919  -5.760  37.940  1.00  0.00     0.056 A 
HETATM   15 Cl3  UNK     1      22.308  -7.130  39.812  1.00  0.00    -0.084 Cl
BRANCH  10  16
HETATM   16  O3  UNK     1      17.686  -6.281  36.288  1.00  0.00    -0.354 OA
HETATM   17  C20 UNK     1      17.351  -7.350  35.405  1.00  0.00     0.210 C 
ENDBRANCH  10  16
ENDBRANCH   7   9
ENDBRANCH   3   5
BRANCH   2  18
HETATM   18  C3  UNK     1      18.610  -0.081  34.512  1.00  0.00     0.039 A 
HETATM   19  C4  UNK     1      18.516   1.348  34.919  1.00  0.00     0.197 A 
HETATM   20  C1  UNK     1      18.373   2.331  33.829  1.00  0.00     0.052 A 
HETATM   21  O2  UNK     1      18.555   1.701  36.091  1.00  0.00    -0.286 OA
HETATM   22  C2  UNK     1      18.334   1.881  32.509  1.00  0.00     0.111 A 
HETATM   23  C5  UNK     1      18.277   3.696  34.109  1.00  0.00     0.042 A 
HETATM   24  O1  UNK     1      18.424   0.555  32.176  1.00  0.00    -0.319 OA
HETATM   25  C6  UNK     1      18.199   2.794  31.462  1.00  0.00     0.070 A 
HETATM   26  C7  UNK     1      18.557  -0.351  33.201  1.00  0.00     0.158 A 
HETATM   27  C11 UNK     1      18.104   4.158  31.741  1.00  0.00     0.050 A 
HETATM   28 Cl1  UNK     1      18.146   2.279  29.815  1.00  0.00    -0.081 Cl
HETATM   29  C10 UNK     1      18.143   4.608  33.060  1.00  0.00     0.036 A 
HETATM   30 Cl2  UNK     1      18.022   6.293  33.397  1.00  0.00    -0.084 Cl
ENDBRANCH   2  18
TORSDOF 4
ENDMDL
MODEL 2
REMARK VINA RESULT:     -10.0      6.115      8.462
REMARK  4 active torsions:
REMARK  status: ('A' for Active; 'I' for Inactive)
REMARK    1  A    between atoms: C12_21  and  O3_6 
REMARK       I    between atoms: C14_23  and  N1_8 
REMARK    2  A    between atoms: C9_18  and  N1_8 
REMARK    3  A    between atoms: C3_12  and  C8_17 
REMARK    4  A    between atoms: C13_22  and  C14_23 
ROOT
HETATM    1  N2  UNK     1      19.576   5.713  29.866  1.00  0.00    -0.191 NA
HETATM    2  C8  UNK     1      17.837   4.772  32.743  1.00  0.00     0.045 C 
HETATM    3  C13 UNK     1      18.471   4.234  31.682  1.00  0.00     0.113 C 
HETATM    4  C19 UNK     1      19.080   5.053  30.683  1.00  0.00     0.105 C 
ENDROOT
BRANCH   3   5
HETATM    5  C14 UNK     1      18.502   2.723  31.595  1.00  0.00     0.266 C 
HETATM    6  O4  UNK     1      17.772   2.044  32.314  1.00  0.00    -0.267 OA
HETATM    7  N1  UNK     1      19.408   2.237  30.658  1.00  0.00    -0.320 N 
HETATM    8  H5  UNK     1      19.957   2.900  30.119  1.00  0.00     0.169 HD
BRANCH   7   9
HETATM    9  C9  UNK     1      19.674   0.882  30.337  1.00  0.00     0.070 A 
HETATM   10  C12 UNK     1      19.419   0.412  29.061  1.00  0.00     0.095 A 
HETATM   11  C16 UNK     1      19.686  -0.923  28.759  1.00  0.00     0.041 A 
HETATM   12  C18 UNK     1      20.205  -1.769  29.739  1.00  0.00     0.026 A 
HETATM   13  C17 UNK     1      20.456  -1.279  31.021  1.00  0.00     0.036 A 
HETATM   14  C15 UNK     1      20.188   0.056  31.323  1.00  0.00     0.056 A 
HETATM   15 Cl3  UNK     1      21.096  -2.324  32.230  1.00  0.00    -0.084 Cl
BRANCH  10  16
HETATM   16  O3  UNK     1      18.912   1.222  28.087  1.00  0.00    -0.354 OA
HETATM   17  C20 UNK     1      17.547   1.616  28.219  1.00  0.00     0.210 C 
ENDBRANCH  10  16
ENDBRANCH   7   9
ENDBRANCH   3   5
BRANCH   2  18
HETATM   18  C3  UNK     1      17.680   6.172  33.031  1.00  0.00     0.039 A 
HETATM   19  C4  UNK     1      16.370   6.845  32.816  1.00  0.00     0.197 A 
HETATM   20  C1  UNK     1      16.311   8.282  33.142  1.00  0.00     0.052 A 
HETATM   21  O2  UNK     1      15.386   6.249  32.396  1.00  0.00    -0.286 OA
HETATM   22  C2  UNK     1      17.457   8.918  33.620  1.00  0.00     0.111 A 
HETATM   23  C5  UNK     1      15.125   9.002  32.976  1.00  0.00     0.042 A 
HETATM   24  O1  UNK     1      18.646   8.261  33.803  1.00  0.00    -0.319 OA
HETATM   25  C6  UNK     1      17.424  10.277  33.934  1.00  0.00     0.070 A 
HETATM   26  C7  UNK     1      18.688   6.922  33.496  1.00  0.00     0.158 A 
HETATM   27  C11 UNK     1      16.240  10.997  33.769  1.00  0.00     0.050 A 
HETATM   28 Cl1  UNK     1      18.820  11.102  34.528  1.00  0.00    -0.081 Cl
HETATM   29  C10 UNK     1      15.094  10.362  33.291  1.00  0.00     0.036 A 
HETATM   30 Cl2  UNK     1      13.638  11.258  33.088  1.00  0.00    -0.084 Cl
ENDBRANCH   2  18
TORSDOF 4
ENDMDL
MODEL 3
REMARK VINA RESULT:      -9.8      5.809     11.265
REMARK  4 active torsions:
REMARK  status: ('A' for Active; 'I' for Inactive)
REMARK    1  A    between atoms: C12_21  and  O3_6 
REMARK       I    between atoms: C14_23  and  N1_8 
REMARK    2  A    between atoms: C9_18  and  N1_8 
REMARK    3  A    between atoms: C3_12  and  C8_17 
REMARK    4  A    between atoms: C13_22  and  C14_23 
ROOT
HETATM    1  N2  UNK     1      20.881   5.953  31.579  1.00  0.00    -0.191 NA
HETATM    2  C8  UNK     1      17.622   4.727  31.334  1.00  0.00     0.045 C 
HETATM    3  C13 UNK     1      18.293   5.877  31.544  1.00  0.00     0.113 C 
HETATM    4  C19 UNK     1      19.721   5.915  31.562  1.00  0.00     0.105 C 
ENDROOT
BRANCH   3   5
HETATM    5  C14 UNK     1      17.464   7.125  31.765  1.00  0.00     0.266 C 
HETATM    6  O4  UNK     1      16.955   7.710  30.812  1.00  0.00    -0.267 OA
HETATM    7  N1  UNK     1      17.364   7.497  33.101  1.00  0.00    -0.320 N 
HETATM    8  H5  UNK     1      17.830   6.929  33.804  1.00  0.00     0.169 HD
BRANCH   7   9
HETATM    9  C9  UNK     1      16.664   8.607  33.637  1.00  0.00     0.070 A 
HETATM   10  C12 UNK     1      15.312   8.505  33.909  1.00  0.00     0.095 A 
HETATM   11  C16 UNK     1      14.636   9.604  34.437  1.00  0.00     0.041 A 
HETATM   12  C18 UNK     1      15.325  10.792  34.686  1.00  0.00     0.026 A 
HETATM   13  C17 UNK     1      16.689  10.878  34.407  1.00  0.00     0.036 A 
HETATM   14  C15 UNK     1      17.364   9.778  33.878  1.00  0.00     0.056 A 
HETATM   15 Cl3  UNK     1      17.538  12.343  34.715  1.00  0.00    -0.084 Cl
BRANCH  10  16
HETATM   16  O3  UNK     1      14.619   7.354  33.673  1.00  0.00    -0.354 OA
HETATM   17  C20 UNK     1      13.807   7.316  32.500  1.00  0.00     0.210 C 
ENDBRANCH  10  16
ENDBRANCH   7   9
ENDBRANCH   3   5
BRANCH   2  18
HETATM   18  C3  UNK     1      18.195   3.428  31.105  1.00  0.00     0.039 A 
HETATM   19  C4  UNK     1      18.288   2.438  32.212  1.00  0.00     0.197 A 
HETATM   20  C1  UNK     1      18.890   1.134  31.876  1.00  0.00     0.052 A 
HETATM   21  O2  UNK     1      17.889   2.678  33.345  1.00  0.00    -0.286 OA
HETATM   22  C2  UNK     1      19.329   0.905  30.572  1.00  0.00     0.111 A 
HETATM   23  C5  UNK     1      19.021   0.138  32.847  1.00  0.00     0.042 A 
HETATM   24  O1  UNK     1      19.225   1.845  29.580  1.00  0.00    -0.319 OA
HETATM   25  C6  UNK     1      19.902  -0.322  30.232  1.00  0.00     0.070 A 
HETATM   26  C7  UNK     1      18.662   3.055  29.906  1.00  0.00     0.158 A 
HETATM   27  C11 UNK     1      20.033  -1.317  31.200  1.00  0.00     0.050 A 
HETATM   28 Cl1  UNK     1      20.458  -0.645  28.630  1.00  0.00    -0.081 Cl
HETATM   29  C10 UNK     1      19.594  -1.088  32.504  1.00  0.00     0.036 A 
HETATM   30 Cl2  UNK     1      19.762  -2.321  33.695  1.00  0.00    -0.084 Cl
ENDBRANCH   2  18
TORSDOF 4
ENDMDL
MODEL 4
REMARK VINA RESULT:      -9.5      6.166     11.803
REMARK  4 active torsions:
REMARK  status: ('A' for Active; 'I' for Inactive)
REMARK    1  A    between atoms: C12_21  and  O3_6 
REMARK       I    between atoms: C14_23  and  N1_8 
REMARK    2  A    between atoms: C9_18  and  N1_8 
REMARK    3  A    between atoms: C3_12  and  C8_17 
REMARK    4  A    between atoms: C13_22  and  C14_23 
ROOT
HETATM    1  N2  UNK     1      20.947   6.108  32.602  1.00  0.00    -0.191 NA
HETATM    2  C8  UNK     1      17.580   5.267  32.225  1.00  0.00     0.045 C 
HETATM    3  C13 UNK     1      18.378   6.343  32.380  1.00  0.00     0.113 C 
HETATM    4  C19 UNK     1      19.795   6.209  32.501  1.00  0.00     0.105 C 
ENDROOT
BRANCH   3   5
HETATM    5  C14 UNK     1      17.703   7.697  32.424  1.00  0.00     0.266 C 
HETATM    6  O4  UNK     1      17.087   8.117  31.447  1.00  0.00    -0.267 OA
HETATM    7  N1  UNK     1      17.863   8.360  33.636  1.00  0.00    -0.320 N 
HETATM    8  H5  UNK     1      18.395   7.907  34.375  1.00  0.00     0.169 HD
BRANCH   7   9
HETATM    9  C9  UNK     1      17.357   9.634  33.996  1.00  0.00     0.070 A 
HETATM   10  C12 UNK     1      16.070   9.752  34.489  1.00  0.00     0.095 A 
HETATM   11  C16 UNK     1      15.586  11.012  34.841  1.00  0.00     0.041 A 
HETATM   12  C18 UNK     1      16.398  12.137  34.692  1.00  0.00     0.026 A 
HETATM   13  C17 UNK     1      17.693  12.000  34.194  1.00  0.00     0.036 A 
HETATM   14  C15 UNK     1      18.177  10.740  33.843  1.00  0.00     0.056 A 
HETATM   15 Cl3  UNK     1      18.695  13.389  34.012  1.00  0.00    -0.084 Cl
BRANCH  10  16
HETATM   16  O3  UNK     1      15.259   8.666  34.642  1.00  0.00    -0.354 OA
HETATM   17  C20 UNK     1      14.245   8.472  33.657  1.00  0.00     0.210 C 
ENDBRANCH  10  16
ENDBRANCH   7   9
ENDBRANCH   3   5
BRANCH   2  18
HETATM   18  C3  UNK     1      17.996   3.892  32.159  1.00  0.00     0.039 A 
HETATM   19  C4  UNK     1      18.559   3.334  30.899  1.00  0.00     0.197 A 
HETATM   20  C1  UNK     1      18.957   1.914  30.933  1.00  0.00     0.052 A 
HETATM   21  O2  UNK     1      18.691   4.005  29.884  1.00  0.00    -0.286 OA
HETATM   22  C2  UNK     1      18.788   1.189  32.113  1.00  0.00     0.111 A 
HETATM   23  C5  UNK     1      19.497   1.298  29.801  1.00  0.00     0.042 A 
HETATM   24  O1  UNK     1      18.265   1.742  33.253  1.00  0.00    -0.319 OA
HETATM   25  C6  UNK     1      19.159  -0.155  32.167  1.00  0.00     0.070 A 
HETATM   26  C7  UNK     1      17.898   3.065  33.208  1.00  0.00     0.158 A 
HETATM   27  C11 UNK     1      19.698  -0.771  31.037  1.00  0.00     0.050 A 
HETATM   28 Cl1  UNK     1      18.966  -1.088  33.607  1.00  0.00    -0.081 Cl
HETATM   29  C10 UNK     1      19.866  -0.047  29.858  1.00  0.00     0.036 A 
HETATM   30 Cl2  UNK     1      20.530  -0.814  28.466  1.00  0.00    -0.084 Cl
ENDBRANCH   2  18
TORSDOF 4
ENDMDL
MODEL 5
REMARK VINA RESULT:      -9.2      6.583     10.335
REMARK  4 active torsions:
REMARK  status: ('A' for Active; 'I' for Inactive)
REMARK    1  A    between atoms: C12_21  and  O3_6 
REMARK       I    between atoms: C14_23  and  N1_8 
REMARK    2  A    between atoms: C9_18  and  N1_8 
REMARK    3  A    between atoms: C3_12  and  C8_17 
REMARK    4  A    between atoms: C13_22  and  C14_23 
ROOT
HETATM    1  N2  UNK     1      16.375   8.085  30.755  1.00  0.00    -0.191 NA
HETATM    2  C8  UNK     1      17.723   7.662  33.948  1.00  0.00     0.045 C 
HETATM    3  C13 UNK     1      17.702   7.073  32.735  1.00  0.00     0.113 C 
HETATM    4  C19 UNK     1      16.969   7.635  31.646  1.00  0.00     0.105 C 
ENDROOT
BRANCH   3   5
HETATM    5  C14 UNK     1      18.486   5.787  32.584  1.00  0.00     0.266 C 
HETATM    6  O4  UNK     1      19.704   5.778  32.750  1.00  0.00    -0.267 OA
HETATM    7  N1  UNK     1      17.699   4.690  32.252  1.00  0.00    -0.320 N 
HETATM    8  H5  UNK     1      16.697   4.822  32.143  1.00  0.00     0.169 HD
BRANCH   7   9
HETATM    9  C9  UNK     1      18.124   3.354  32.042  1.00  0.00     0.070 A 
HETATM   10  C12 UNK     1      18.251   2.493  33.117  1.00  0.00     0.095 A 
HETATM   11  C16 UNK     1      18.669   1.181  32.896  1.00  0.00     0.041 A 
HETATM   12  C18 UNK     1      18.956   0.750  31.600  1.00  0.00     0.026 A 
HETATM   13  C17 UNK     1      18.823   1.632  30.527  1.00  0.00     0.036 A 
HETATM   14  C15 UNK     1      18.405   2.943  30.749  1.00  0.00     0.056 A 
HETATM   15 Cl3  UNK     1      19.176   1.099  28.929  1.00  0.00    -0.084 Cl
BRANCH  10  16
HETATM   16  O3  UNK     1      17.976   2.893  34.392  1.00  0.00    -0.354 OA
HETATM   17  C20 UNK     1      18.496   2.089  35.449  1.00  0.00     0.210 C 
ENDBRANCH  10  16
ENDBRANCH   7   9
ENDBRANCH   3   5
BRANCH   2  18
HETATM   18  C3  UNK     1      17.054   8.879  34.323  1.00  0.00     0.039 A 
HETATM   19  C4  UNK     1      17.683  10.200  34.051  1.00  0.00     0.197 A 
HETATM   20  C1  UNK     1      16.917  11.388  34.471  1.00  0.00     0.052 A 
HETATM   21  O2  UNK     1      18.774  10.310  33.506  1.00  0.00    -0.286 OA
HETATM   22  C2  UNK     1      15.677  11.215  35.087  1.00  0.00     0.111 A 
HETATM   23  C5  UNK     1      17.422  12.673  34.258  1.00  0.00     0.042 A 
HETATM   24  O1  UNK     1      15.134   9.978  35.321  1.00  0.00    -0.319 OA
HETATM   25  C6  UNK     1      14.936  12.325  35.493  1.00  0.00     0.070 A 
HETATM   26  C7  UNK     1      15.857   8.880  34.923  1.00  0.00     0.158 A 
HETATM   27  C11 UNK     1      15.439  13.609  35.281  1.00  0.00     0.050 A 
HETATM   28 Cl1  UNK     1      13.398  12.154  36.259  1.00  0.00    -0.081 Cl
HETATM   29  C10 UNK     1      16.679  13.783  34.666  1.00  0.00     0.036 A 
HETATM   30 Cl2  UNK     1      17.295  15.371  34.409  1.00  0.00    -0.084 Cl
ENDBRANCH   2  18
TORSDOF 4
ENDMDL
MODEL 6
REMARK VINA RESULT:      -9.2      6.626     10.244
REMARK  4 active torsions:
REMARK  status: ('A' for Active; 'I' for Inactive)
REMARK    1  A    between atoms: C12_21  and  O3_6 
REMARK       I    between atoms: C14_23  and  N1_8 
REMARK    2  A    between atoms: C9_18  and  N1_8 
REMARK    3  A    between atoms: C3_12  and  C8_17 
REMARK    4  A    between atoms: C13_22  and  C14_23 
ROOT
HETATM    1  N2  UNK     1      16.383   7.982  30.659  1.00  0.00    -0.191 NA
HETATM    2  C8  UNK     1      18.232   7.775  33.613  1.00  0.00     0.045 C 
HETATM    3  C13 UNK     1      17.997   7.089  32.476  1.00  0.00     0.113 C 
HETATM    4  C19 UNK     1      17.107   7.585  31.476  1.00  0.00     0.105 C 
ENDROOT
BRANCH   3   5
HETATM    5  C14 UNK     1      18.716   5.766  32.313  1.00  0.00     0.266 C 
HETATM    6  O4  UNK     1      19.944   5.720  32.333  1.00  0.00    -0.267 OA
HETATM    7  N1  UNK     1      17.859   4.684  32.146  1.00  0.00    -0.320 N 
HETATM    8  H5  UNK     1      16.856   4.849  32.149  1.00  0.00     0.169 HD
BRANCH   7   9
HETATM    9  C9  UNK     1      18.213   3.323  31.970  1.00  0.00     0.070 A 
HETATM   10  C12 UNK     1      18.245   2.472  33.061  1.00  0.00     0.095 A 
HETATM   11  C16 UNK     1      18.594   1.134  32.873  1.00  0.00     0.041 A 
HETATM   12  C18 UNK     1      18.907   0.668  31.595  1.00  0.00     0.026 A 
HETATM   13  C17 UNK     1      18.868   1.540  30.507  1.00  0.00     0.036 A 
HETATM   14  C15 UNK     1      18.520   2.877  30.695  1.00  0.00     0.056 A 
HETATM   15 Cl3  UNK     1      19.253   0.964  28.931  1.00  0.00    -0.084 Cl
BRANCH  10  16
HETATM   16  O3  UNK     1      17.945   2.906  34.318  1.00  0.00    -0.354 OA
HETATM   17  C20 UNK     1      18.649   2.298  35.399  1.00  0.00     0.210 C 
ENDBRANCH  10  16
ENDBRANCH   7   9
ENDBRANCH   3   5
BRANCH   2  18
HETATM   18  C3  UNK     1      17.663   9.043  33.983  1.00  0.00     0.039 A 
HETATM   19  C4  UNK     1      16.268   9.124  34.496  1.00  0.00     0.197 A 
HETATM   20  C1  UNK     1      15.778  10.469  34.851  1.00  0.00     0.052 A 
HETATM   21  O2  UNK     1      15.556   8.136  34.625  1.00  0.00    -0.286 OA
HETATM   22  C2  UNK     1      16.625  11.566  34.688  1.00  0.00     0.111 A 
HETATM   23  C5  UNK     1      14.482  10.649  35.342  1.00  0.00     0.042 A 
HETATM   24  O1  UNK     1      17.904  11.448  34.211  1.00  0.00    -0.319 OA
HETATM   25  C6  UNK     1      16.181  12.848  35.017  1.00  0.00     0.070 A 
HETATM   26  C7  UNK     1      18.349  10.190  33.885  1.00  0.00     0.158 A 
HETATM   27  C11 UNK     1      14.888  13.028  35.508  1.00  0.00     0.050 A 
HETATM   28 Cl1  UNK     1      17.198  14.231  34.830  1.00  0.00    -0.081 Cl
HETATM   29  C10 UNK     1      14.041  11.932  35.670  1.00  0.00     0.036 A 
HETATM   30 Cl2  UNK     1      12.445  12.163  36.274  1.00  0.00    -0.084 Cl
ENDBRANCH   2  18
TORSDOF 4
ENDMDL
MODEL 7
REMARK VINA RESULT:      -9.1      1.642      2.615
REMARK  4 active torsions:
REMARK  status: ('A' for Active; 'I' for Inactive)
REMARK    1  A    between atoms: C12_21  and  O3_6 
REMARK       I    between atoms: C14_23  and  N1_8 
REMARK    2  A    between atoms: C9_18  and  N1_8 
REMARK    3  A    between atoms: C3_12  and  C8_17 
REMARK    4  A    between atoms: C13_22  and  C14_23 
ROOT
HETATM    1  N2  UNK     1      22.331  -1.711  35.154  1.00  0.00    -0.191 NA
HETATM    2  C8  UNK     1      18.880  -2.126  35.482  1.00  0.00     0.045 C 
HETATM    3  C13 UNK     1      20.041  -2.743  35.782  1.00  0.00     0.113 C 
HETATM    4  C19 UNK     1      21.302  -2.170  35.434  1.00  0.00     0.105 C 
ENDROOT
BRANCH   3   5
HETATM    5  C14 UNK     1      19.944  -4.075  36.497  1.00  0.00     0.266 C 
HETATM    6  O4  UNK     1      19.988  -4.126  37.724  1.00  0.00    -0.267 OA
HETATM    7  N1  UNK     1      19.811  -5.160  35.637  1.00  0.00    -0.320 N 
HETATM    8  H5  UNK     1      19.785  -4.990  34.636  1.00  0.00     0.169 HD
BRANCH   7   9
HETATM    9  C9  UNK     1      19.696  -6.529  35.988  1.00  0.00     0.070 A 
HETATM   10  C12 UNK     1      18.447  -7.085  36.196  1.00  0.00     0.095 A 
HETATM   11  C16 UNK     1      18.349  -8.434  36.539  1.00  0.00     0.041 A 
HETATM   12  C18 UNK     1      19.504  -9.206  36.670  1.00  0.00     0.026 A 
HETATM   13  C17 UNK     1      20.756  -8.628  36.455  1.00  0.00     0.036 A 
HETATM   14  C15 UNK     1      20.853  -7.280  36.112  1.00  0.00     0.056 A 
HETATM   15 Cl3  UNK     1      22.180  -9.582  36.615  1.00  0.00    -0.084 Cl
BRANCH  10  16
HETATM   16  O3  UNK     1      17.305  -6.349  36.075  1.00  0.00    -0.354 OA
HETATM   17  C20 UNK     1      16.198  -6.974  35.429  1.00  0.00     0.210 C 
ENDBRANCH  10  16
ENDBRANCH   7   9
ENDBRANCH   3   5
BRANCH   2  18
HETATM   18  C3  UNK     1      18.728  -0.864  34.809  1.00  0.00     0.039 A 
HETATM   19  C4  UNK     1      18.842  -0.781  33.327  1.00  0.00     0.197 A 
HETATM   20  C1  UNK     1      18.668   0.557  32.731  1.00  0.00     0.052 A 
HETATM   21  O2  UNK     1      19.064  -1.762  32.628  1.00  0.00    -0.286 OA
HETATM   22  C2  UNK     1      18.415   1.645  33.566  1.00  0.00     0.111 A 
HETATM   23  C5  UNK     1      18.756   0.738  31.348  1.00  0.00     0.042 A 
HETATM   24  O1  UNK     1      18.319   1.526  34.928  1.00  0.00    -0.319 OA
HETATM   25  C6  UNK     1      18.248   2.920  33.024  1.00  0.00     0.070 A 
HETATM   26  C7  UNK     1      18.482   0.274  35.471  1.00  0.00     0.158 A 
HETATM   27  C11 UNK     1      18.335   3.102  31.643  1.00  0.00     0.050 A 
HETATM   28 Cl1  UNK     1      17.934   4.293  34.023  1.00  0.00    -0.081 Cl
HETATM   29  C10 UNK     1      18.589   2.014  30.808  1.00  0.00     0.036 A 
HETATM   30 Cl2  UNK     1      18.697   2.247  29.105  1.00  0.00    -0.084 Cl
ENDBRANCH   2  18
TORSDOF 4
ENDMDL
MODEL 8
REMARK VINA RESULT:      -9.1      6.128     11.896
REMARK  4 active torsions:
REMARK  status: ('A' for Active; 'I' for Inactive)
REMARK    1  A    between atoms: C12_21  and  O3_6 
REMARK       I    between atoms: C14_23  and  N1_8 
REMARK    2  A    between atoms: C9_18  and  N1_8 
REMARK    3  A    between atoms: C3_12  and  C8_17 
REMARK    4  A    between atoms: C13_22  and  C14_23 
ROOT
HETATM    1  N2  UNK     1      20.943   6.064  32.557  1.00  0.00    -0.191 NA
HETATM    2  C8  UNK     1      17.573   5.216  32.225  1.00  0.00     0.045 C 
HETATM    3  C13 UNK     1      18.371   6.293  32.368  1.00  0.00     0.113 C 
HETATM    4  C19 UNK     1      19.789   6.162  32.472  1.00  0.00     0.105 C 
ENDROOT
BRANCH   3   5
HETATM    5  C14 UNK     1      17.693   7.646  32.421  1.00  0.00     0.266 C 
HETATM    6  O4  UNK     1      17.086   8.075  31.443  1.00  0.00    -0.267 OA
HETATM    7  N1  UNK     1      17.841   8.295  33.642  1.00  0.00    -0.320 N 
HETATM    8  H5  UNK     1      18.366   7.836  34.380  1.00  0.00     0.169 HD
BRANCH   7   9
HETATM    9  C9  UNK     1      17.330   9.565  34.011  1.00  0.00     0.070 A 
HETATM   10  C12 UNK     1      18.161  10.671  34.008  1.00  0.00     0.095 A 
HETATM   11  C16 UNK     1      17.644  11.915  34.372  1.00  0.00     0.041 A 
HETATM   12  C18 UNK     1      16.302  12.033  34.734  1.00  0.00     0.026 A 
HETATM   13  C17 UNK     1      15.478  10.907  34.731  1.00  0.00     0.036 A 
HETATM   14  C15 UNK     1      15.995   9.664  34.367  1.00  0.00     0.056 A 
HETATM   15 Cl3  UNK     1      13.822  11.054  35.177  1.00  0.00    -0.084 Cl
BRANCH  10  16
HETATM   16  O3  UNK     1      19.476  10.578  33.658  1.00  0.00    -0.354 OA
HETATM   17  C20 UNK     1      20.359   9.988  34.611  1.00  0.00     0.210 C 
ENDBRANCH  10  16
ENDBRANCH   7   9
ENDBRANCH   3   5
BRANCH   2  18
HETATM   18  C3  UNK     1      17.991   3.841  32.153  1.00  0.00     0.039 A 
HETATM   19  C4  UNK     1      18.557   3.288  30.892  1.00  0.00     0.197 A 
HETATM   20  C1  UNK     1      18.957   1.870  30.921  1.00  0.00     0.052 A 
HETATM   21  O2  UNK     1      18.690   3.964  29.880  1.00  0.00    -0.286 OA
HETATM   22  C2  UNK     1      18.788   1.139  32.097  1.00  0.00     0.111 A 
HETATM   23  C5  UNK     1      19.500   1.259  29.787  1.00  0.00     0.042 A 
HETATM   24  O1  UNK     1      18.261   1.687  33.239  1.00  0.00    -0.319 OA
HETATM   25  C6  UNK     1      19.160  -0.205  32.147  1.00  0.00     0.070 A 
HETATM   26  C7  UNK     1      17.893   3.010  33.199  1.00  0.00     0.158 A 
HETATM   27  C11 UNK     1      19.702  -0.815  31.016  1.00  0.00     0.050 A 
HETATM   28 Cl1  UNK     1      18.966  -1.144  33.583  1.00  0.00    -0.081 Cl
HETATM   29  C10 UNK     1      19.871  -0.086  29.839  1.00  0.00     0.036 A 
HETATM   30 Cl2  UNK     1      20.538  -0.847  28.446  1.00  0.00    -0.084 Cl
ENDBRANCH   2  18
TORSDOF 4
ENDMDL
MODEL 9
REMARK VINA RESULT:      -8.9      5.844     11.650
REMARK  4 active torsions:
REMARK  status: ('A' for Active; 'I' for Inactive)
REMARK    1  A    between atoms: C12_21  and  O3_6 
REMARK       I    between atoms: C14_23  and  N1_8 
REMARK    2  A    between atoms: C9_18  and  N1_8 
REMARK    3  A    between atoms: C3_12  and  C8_17 
REMARK    4  A    between atoms: C13_22  and  C14_23 
ROOT
HETATM    1  N2  UNK     1      21.006   5.984  31.891  1.00  0.00    -0.191 NA
HETATM    2  C8  UNK     1      17.711   4.964  31.350  1.00  0.00     0.045 C 
HETATM    3  C13 UNK     1      18.430   6.067  31.642  1.00  0.00     0.113 C 
HETATM    4  C19 UNK     1      19.850   6.017  31.778  1.00  0.00     0.105 C 
ENDROOT
BRANCH   3   5
HETATM    5  C14 UNK     1      17.660   7.358  31.825  1.00  0.00     0.266 C 
HETATM    6  O4  UNK     1      16.920   7.771  30.934  1.00  0.00    -0.267 OA
HETATM    7  N1  UNK     1      17.889   7.974  33.050  1.00  0.00    -0.320 N 
HETATM    8  H5  UNK     1      18.524   7.532  33.709  1.00  0.00     0.169 HD
BRANCH   7   9
HETATM    9  C9  UNK     1      17.324   9.184  33.525  1.00  0.00     0.070 A 
HETATM   10  C12 UNK     1      18.147  10.249  33.847  1.00  0.00     0.095 A 
HETATM   11  C16 UNK     1      17.578  11.435  34.312  1.00  0.00     0.041 A 
HETATM   12  C18 UNK     1      16.193  11.537  34.450  1.00  0.00     0.026 A 
HETATM   13  C17 UNK     1      15.379  10.453  34.120  1.00  0.00     0.036 A 
HETATM   14  C15 UNK     1      15.948   9.268  33.655  1.00  0.00     0.056 A 
HETATM   15 Cl3  UNK     1      13.670  10.580  34.289  1.00  0.00    -0.084 Cl
BRANCH  10  16
HETATM   16  O3  UNK     1      19.502  10.171  33.722  1.00  0.00    -0.354 OA
HETATM   17  C20 UNK     1      20.188   9.309  34.629  1.00  0.00     0.210 C 
ENDBRANCH  10  16
ENDBRANCH   7   9
ENDBRANCH   3   5
BRANCH   2  18
HETATM   18  C3  UNK     1      18.224   3.637  31.138  1.00  0.00     0.039 A 
HETATM   19  C4  UNK     1      18.268   2.656  32.257  1.00  0.00     0.197 A 
HETATM   20  C1  UNK     1      18.809   1.322  31.937  1.00  0.00     0.052 A 
HETATM   21  O2  UNK     1      17.877   2.928  33.385  1.00  0.00    -0.286 OA
HETATM   22  C2  UNK     1      19.241   1.057  30.638  1.00  0.00     0.111 A 
HETATM   23  C5  UNK     1      18.890   0.332  32.920  1.00  0.00     0.042 A 
HETATM   24  O1  UNK     1      19.185   1.990  29.635  1.00  0.00    -0.319 OA
HETATM   25  C6  UNK     1      19.757  -0.198  30.313  1.00  0.00     0.070 A 
HETATM   26  C7  UNK     1      18.678   3.229  29.945  1.00  0.00     0.158 A 
HETATM   27  C11 UNK     1      19.838  -1.188  31.294  1.00  0.00     0.050 A 
HETATM   28 Cl1  UNK     1      20.303  -0.566  28.717  1.00  0.00    -0.081 Cl
HETATM   29  C10 UNK     1      19.407  -0.924  32.593  1.00  0.00     0.036 A 
HETATM   30 Cl2  UNK     1      19.512  -2.149  33.799  1.00  0.00    -0.084 Cl
ENDBRANCH   2  18
TORSDOF 4
ENDMDL
MODEL 10
REMARK VINA RESULT:      -8.8     27.514     28.898
REMARK  4 active torsions:
REMARK  status: ('A' for Active; 'I' for Inactive)
REMARK    1  A    between atoms: C12_21  and  O3_6 
REMARK       I    between atoms: C14_23  and  N1_8 
REMARK    2  A    between atoms: C9_18  and  N1_8 
REMARK    3  A    between atoms: C3_12  and  C8_17 
REMARK    4  A    between atoms: C13_22  and  C14_23 
ROOT
HETATM    1  N2  UNK     1      11.895   6.185   5.878  1.00  0.00    -0.191 NA
HETATM    2  C8  UNK     1      11.322   6.573   9.300  1.00  0.00     0.045 C 
HETATM    3  C13 UNK     1      10.702   6.160   8.176  1.00  0.00     0.113 C 
HETATM    4  C19 UNK     1      11.363   6.175   6.911  1.00  0.00     0.105 C 
ENDROOT
BRANCH   3   5
HETATM    5  C14 UNK     1       9.270   5.688   8.317  1.00  0.00     0.266 C 
HETATM    6  O4  UNK     1       8.594   5.448   7.319  1.00  0.00    -0.267 OA
HETATM    7  N1  UNK     1       8.849   5.573   9.637  1.00  0.00    -0.320 N 
HETATM    8  H5  UNK     1       9.504   5.799  10.381  1.00  0.00     0.169 HD
BRANCH   7   9
HETATM    9  C9  UNK     1       7.576   5.158  10.104  1.00  0.00     0.070 A 
HETATM   10  C12 UNK     1       6.720   6.078  10.682  1.00  0.00     0.095 A 
HETATM   11  C16 UNK     1       5.470   5.655  11.135  1.00  0.00     0.041 A 
HETATM   12  C18 UNK     1       5.096   4.318  11.004  1.00  0.00     0.026 A 
HETATM   13  C17 UNK     1       5.972   3.404  10.418  1.00  0.00     0.036 A 
HETATM   14  C15 UNK     1       7.222   3.826   9.965  1.00  0.00     0.056 A 
HETATM   15 Cl3  UNK     1       5.509   1.754  10.255  1.00  0.00    -0.084 Cl
BRANCH  10  16
HETATM   16  O3  UNK     1       7.066   7.389  10.821  1.00  0.00    -0.354 OA
HETATM   17  C20 UNK     1       6.003   8.323  11.005  1.00  0.00     0.210 C 
ENDBRANCH  10  16
ENDBRANCH   7   9
ENDBRANCH   3   5
BRANCH   2  18
HETATM   18  C3  UNK     1      12.670   7.063   9.406  1.00  0.00     0.039 A 
HETATM   19  C4  UNK     1      12.998   8.461   9.017  1.00  0.00     0.197 A 
HETATM   20  C1  UNK     1      14.408   8.868   9.164  1.00  0.00     0.052 A 
HETATM   21  O2  UNK     1      12.153   9.243   8.600  1.00  0.00    -0.286 OA
HETATM   22  C2  UNK     1      15.336   7.944   9.645  1.00  0.00     0.111 A 
HETATM   23  C5  UNK     1      14.816  10.161   8.827  1.00  0.00     0.042 A 
HETATM   24  O1  UNK     1      14.992   6.663   9.991  1.00  0.00    -0.319 OA
HETATM   25  C6  UNK     1      16.675   8.307   9.792  1.00  0.00     0.070 A 
HETATM   26  C7  UNK     1      13.675   6.296   9.850  1.00  0.00     0.158 A 
HETATM   27  C11 UNK     1      17.083   9.598   9.455  1.00  0.00     0.050 A 
HETATM   28 Cl1  UNK     1      17.854   7.193  10.383  1.00  0.00    -0.081 Cl
HETATM   29  C10 UNK     1      16.156  10.523   8.974  1.00  0.00     0.036 A 
HETATM   30 Cl2  UNK     1      16.667  12.114   8.559  1.00  0.00    -0.084 Cl
ENDBRANCH   2  18
TORSDOF 4
ENDMDL
