MODEL 1
REMARK VINA RESULT:      -8.0      0.000      0.000
REMARK  5 active torsions:
REMARK  status: ('A' for Active; 'I' for Inactive)
REMARK    1  A    between atoms: C16_20  and  O2_2 
REMARK    2  A    between atoms: C18_22  and  O3_3 
REMARK    3  A    between atoms: C20_24  and  O3_3 
REMARK    4  A    between atoms: C7_11  and  C9_13 
REMARK    5  A    between atoms: C14_18  and  C18_22 
ROOT
HETATM    1  C9  UNK     1      19.679  -2.461  36.547  1.00  0.00    -0.035 A 
HETATM    2  C12 UNK     1      19.798  -2.263  35.172  1.00  0.00     0.023 A 
HETATM    3  C14 UNK     1      18.840  -1.515  34.489  1.00  0.00     0.000 A 
HETATM    4  C15 UNK     1      18.601  -1.908  37.240  1.00  0.00     0.014 A 
HETATM    5  C16 UNK     1      17.762  -0.963  35.181  1.00  0.00     0.076 A 
HETATM    6  C17 UNK     1      17.643  -1.160  36.557  1.00  0.00     0.038 A 
ENDROOT
BRANCH   1   7
HETATM    7  C7  UNK     1      20.689  -3.250  37.269  1.00  0.00     0.022 C 
HETATM    8  C4  UNK     1      20.627  -4.566  37.510  1.00  0.00    -0.006 C 
HETATM    9  C2  UNK     1      21.687  -5.324  38.250  1.00  0.00     0.047 C 
HETATM   10  C6  UNK     1      19.443  -5.330  37.017  1.00  0.00     0.189 C 
HETATM   11  C1  UNK     1      22.033  -6.619  37.524  1.00  0.00     0.044 C 
HETATM   12  C3  UNK     1      20.796  -7.432  37.255  1.00  0.00    -0.044 A 
HETATM   13  C5  UNK     1      19.561  -6.810  37.004  1.00  0.00     0.021 A 
HETATM   14  C8  UNK     1      20.879  -8.831  37.196  1.00  0.00     0.008 A 
HETATM   15  C10 UNK     1      18.428  -7.583  36.719  1.00  0.00     0.016 A 
HETATM   16  C13 UNK     1      18.524  -8.974  36.679  1.00  0.00     0.001 A 
HETATM   17  C11 UNK     1      19.748  -9.597  36.915  1.00  0.00     0.001 A 
HETATM   18  O1  UNK     1      18.415  -4.781  36.642  1.00  0.00    -0.287 OA
ENDBRANCH   1   7
BRANCH   3  19
HETATM   19  C18 UNK     1      18.984  -1.314  33.016  1.00  0.00     0.220 C 
BRANCH  19  20
HETATM   20  O3  UNK     1      20.301  -1.668  32.619  1.00  0.00    -0.317 OA
BRANCH  20  21
HETATM   21  C20 UNK     1      20.678  -1.255  31.371  1.00  0.00     0.255 C 
HETATM   22  O4  UNK     1      21.101  -0.145  31.076  1.00  0.00    -0.266 OA
HETATM   23  C21 UNK     1      20.498  -2.372  30.388  1.00  0.00     0.126 C 
ENDBRANCH  20  21
ENDBRANCH  19  20
ENDBRANCH   3  19
BRANCH   5  24
HETATM   24  O2  UNK     1      16.818  -0.229  34.529  1.00  0.00    -0.355 OA
HETATM   25  C19 UNK     1      15.709   0.232  35.300  1.00  0.00     0.210 C 
ENDBRANCH   5  24
TORSDOF 5
ENDMDL
MODEL 2
REMARK VINA RESULT:      -7.9     27.718     29.816
REMARK  5 active torsions:
REMARK  status: ('A' for Active; 'I' for Inactive)
REMARK    1  A    between atoms: C16_20  and  O2_2 
REMARK    2  A    between atoms: C18_22  and  O3_3 
REMARK    3  A    between atoms: C20_24  and  O3_3 
REMARK    4  A    between atoms: C7_11  and  C9_13 
REMARK    5  A    between atoms: C14_18  and  C18_22 
ROOT
HETATM    1  C9  UNK     1      10.063   5.928   8.285  1.00  0.00    -0.035 A 
HETATM    2  C12 UNK     1       9.484   5.275   9.373  1.00  0.00     0.023 A 
HETATM    3  C14 UNK     1       8.186   5.597   9.770  1.00  0.00     0.000 A 
HETATM    4  C15 UNK     1       9.343   6.903   7.593  1.00  0.00     0.014 A 
HETATM    5  C16 UNK     1       7.467   6.572   9.079  1.00  0.00     0.076 A 
HETATM    6  C17 UNK     1       8.045   7.224   7.990  1.00  0.00     0.038 A 
ENDROOT
BRANCH   1   7
HETATM    7  C7  UNK     1      11.432   5.589   7.866  1.00  0.00     0.022 C 
HETATM    8  C4  UNK     1      12.555   6.144   8.340  1.00  0.00    -0.006 C 
HETATM    9  C2  UNK     1      13.927   5.760   7.878  1.00  0.00     0.047 C 
HETATM   10  C6  UNK     1      12.444   7.203   9.386  1.00  0.00     0.189 C 
HETATM   11  C1  UNK     1      14.864   5.570   9.065  1.00  0.00     0.044 C 
HETATM   12  C3  UNK     1      14.851   6.780   9.961  1.00  0.00    -0.044 A 
HETATM   13  C5  UNK     1      13.689   7.553  10.117  1.00  0.00     0.021 A 
HETATM   14  C8  UNK     1      15.997   7.114  10.697  1.00  0.00     0.008 A 
HETATM   15  C10 UNK     1      13.685   8.654  10.983  1.00  0.00     0.016 A 
HETATM   16  C13 UNK     1      14.838   8.983  11.696  1.00  0.00     0.001 A 
HETATM   17  C11 UNK     1      15.991   8.214  11.555  1.00  0.00     0.001 A 
HETATM   18  O1  UNK     1      11.389   7.771   9.640  1.00  0.00    -0.287 OA
ENDBRANCH   1   7
BRANCH   3  19
HETATM   19  C18 UNK     1       7.582   4.888  10.937  1.00  0.00     0.220 C 
BRANCH  19  20
HETATM   20  O3  UNK     1       7.078   3.629  10.514  1.00  0.00    -0.317 OA
BRANCH  20  21
HETATM   21  C20 UNK     1       5.742   3.422  10.725  1.00  0.00     0.255 C 
HETATM   22  O4  UNK     1       4.857   4.259  10.615  1.00  0.00    -0.266 OA
HETATM   23  C21 UNK     1       5.504   1.995  11.119  1.00  0.00     0.126 C 
ENDBRANCH  20  21
ENDBRANCH  19  20
ENDBRANCH   3  19
BRANCH   5  24
HETATM   24  O2  UNK     1       6.198   6.898   9.453  1.00  0.00    -0.355 OA
HETATM   25  C19 UNK     1       6.048   8.003  10.341  1.00  0.00     0.210 C 
ENDBRANCH   5  24
TORSDOF 5
ENDMDL
MODEL 3
REMARK VINA RESULT:      -7.9      7.011     12.304
REMARK  5 active torsions:
REMARK  status: ('A' for Active; 'I' for Inactive)
REMARK    1  A    between atoms: C16_20  and  O2_2 
REMARK    2  A    between atoms: C18_22  and  O3_3 
REMARK    3  A    between atoms: C20_24  and  O3_3 
REMARK    4  A    between atoms: C7_11  and  C9_13 
REMARK    5  A    between atoms: C14_18  and  C18_22 
ROOT
HETATM    1  C9  UNK     1      19.061   5.413  32.144  1.00  0.00    -0.035 A 
HETATM    2  C12 UNK     1      18.686   4.330  32.938  1.00  0.00     0.023 A 
HETATM    3  C14 UNK     1      18.365   3.109  32.344  1.00  0.00     0.000 A 
HETATM    4  C15 UNK     1      19.116   5.276  30.756  1.00  0.00     0.014 A 
HETATM    5  C16 UNK     1      18.419   2.971  30.958  1.00  0.00     0.076 A 
HETATM    6  C17 UNK     1      18.795   4.055  30.164  1.00  0.00     0.038 A 
ENDROOT
BRANCH   1   7
HETATM    7  C7  UNK     1      19.400   6.702  32.769  1.00  0.00     0.022 C 
HETATM    8  C4  UNK     1      18.542   7.699  33.018  1.00  0.00    -0.006 C 
HETATM    9  C2  UNK     1      18.940   8.994  33.659  1.00  0.00     0.047 C 
HETATM   10  C6  UNK     1      17.108   7.522  32.643  1.00  0.00     0.189 C 
HETATM   11  C1  UNK     1      17.952   9.382  34.753  1.00  0.00     0.044 C 
HETATM   12  C3  UNK     1      16.541   9.384  34.229  1.00  0.00    -0.044 A 
HETATM   13  C5  UNK     1      16.140   8.487  33.225  1.00  0.00     0.021 A 
HETATM   14  C8  UNK     1      15.592  10.254  34.785  1.00  0.00     0.008 A 
HETATM   15  C10 UNK     1      14.814   8.478  32.776  1.00  0.00     0.016 A 
HETATM   16  C13 UNK     1      13.885   9.361  33.327  1.00  0.00     0.001 A 
HETATM   17  C11 UNK     1      14.272  10.246  34.331  1.00  0.00     0.001 A 
HETATM   18  O1  UNK     1      16.729   6.633  31.890  1.00  0.00    -0.287 OA
ENDBRANCH   1   7
BRANCH   3  19
HETATM   19  C18 UNK     1      17.965   1.959  33.210  1.00  0.00     0.220 C 
BRANCH  19  20
HETATM   20  O3  UNK     1      18.067   2.341  34.575  1.00  0.00    -0.317 OA
BRANCH  20  21
HETATM   21  C20 UNK     1      18.517   1.373  35.431  1.00  0.00     0.255 C 
HETATM   22  O4  UNK     1      19.129   0.362  35.117  1.00  0.00    -0.266 OA
HETATM   23  C21 UNK     1      18.148   1.728  36.840  1.00  0.00     0.126 C 
ENDBRANCH  20  21
ENDBRANCH  19  20
ENDBRANCH   3  19
BRANCH   5  24
HETATM   24  O2  UNK     1      18.109   1.786  30.362  1.00  0.00    -0.355 OA
HETATM   25  C19 UNK     1      18.101   1.759  28.937  1.00  0.00     0.210 C 
ENDBRANCH   5  24
TORSDOF 5
ENDMDL
MODEL 4
REMARK VINA RESULT:      -7.7     10.247     12.414
REMARK  5 active torsions:
REMARK  status: ('A' for Active; 'I' for Inactive)
REMARK    1  A    between atoms: C16_20  and  O2_2 
REMARK    2  A    between atoms: C18_22  and  O3_3 
REMARK    3  A    between atoms: C20_24  and  O3_3 
REMARK    4  A    between atoms: C7_11  and  C9_13 
REMARK    5  A    between atoms: C14_18  and  C18_22 
ROOT
HETATM    1  C9  UNK     1      28.713  -6.860  34.659  1.00  0.00    -0.035 A 
HETATM    2  C12 UNK     1      29.884  -6.210  35.045  1.00  0.00     0.023 A 
HETATM    3  C14 UNK     1      30.548  -6.599  36.209  1.00  0.00     0.000 A 
HETATM    4  C15 UNK     1      28.205  -7.902  35.437  1.00  0.00     0.014 A 
HETATM    5  C16 UNK     1      30.040  -7.640  36.986  1.00  0.00     0.076 A 
HETATM    6  C17 UNK     1      28.868  -8.291  36.600  1.00  0.00     0.038 A 
ENDROOT
BRANCH   1   7
HETATM    7  C7  UNK     1      28.013  -6.449  33.432  1.00  0.00     0.022 C 
HETATM    8  C4  UNK     1      28.161  -7.007  32.224  1.00  0.00    -0.006 C 
HETATM    9  C2  UNK     1      27.421  -6.550  31.004  1.00  0.00     0.047 C 
HETATM   10  C6  UNK     1      29.111  -8.148  32.073  1.00  0.00     0.189 C 
HETATM   11  C1  UNK     1      26.857  -7.740  30.236  1.00  0.00     0.044 C 
HETATM   12  C3  UNK     1      27.933  -8.748  29.938  1.00  0.00    -0.044 A 
HETATM   13  C5  UNK     1      29.006  -8.946  30.824  1.00  0.00     0.021 A 
HETATM   14  C8  UNK     1      27.843  -9.546  28.788  1.00  0.00     0.008 A 
HETATM   15  C10 UNK     1      29.978  -9.914  30.549  1.00  0.00     0.016 A 
HETATM   16  C13 UNK     1      29.883 -10.689  29.393  1.00  0.00     0.001 A 
HETATM   17  C11 UNK     1      28.816 -10.507  28.515  1.00  0.00     0.001 A 
HETATM   18  O1  UNK     1      29.947  -8.426  32.924  1.00  0.00    -0.287 OA
ENDBRANCH   1   7
BRANCH   3  19
HETATM   19  C18 UNK     1      31.800  -5.891  36.608  1.00  0.00     0.220 C 
BRANCH  19  20
HETATM   20  O3  UNK     1      31.476  -4.594  37.087  1.00  0.00    -0.317 OA
BRANCH  20  21
HETATM   21  C20 UNK     1      32.107  -3.553  36.462  1.00  0.00     0.255 C 
HETATM   22  O4  UNK     1      31.787  -2.374  36.525  1.00  0.00    -0.266 OA
HETATM   23  C21 UNK     1      33.270  -4.066  35.668  1.00  0.00     0.126 C 
ENDBRANCH  20  21
ENDBRANCH  19  20
ENDBRANCH   3  19
BRANCH   5  24
HETATM   24  O2  UNK     1      30.675  -8.034  38.125  1.00  0.00    -0.355 OA
HETATM   25  C19 UNK     1      31.332  -9.299  38.097  1.00  0.00     0.210 C 
ENDBRANCH   5  24
TORSDOF 5
ENDMDL
MODEL 5
REMARK VINA RESULT:      -7.7      1.902      3.442
REMARK  5 active torsions:
REMARK  status: ('A' for Active; 'I' for Inactive)
REMARK    1  A    between atoms: C16_20  and  O2_2 
REMARK    2  A    between atoms: C18_22  and  O3_3 
REMARK    3  A    between atoms: C20_24  and  O3_3 
REMARK    4  A    between atoms: C7_11  and  C9_13 
REMARK    5  A    between atoms: C14_18  and  C18_22 
ROOT
HETATM    1  C9  UNK     1      20.460  -3.338  36.948  1.00  0.00    -0.035 A 
HETATM    2  C12 UNK     1      19.455  -2.627  37.604  1.00  0.00     0.023 A 
HETATM    3  C14 UNK     1      18.594  -1.805  36.877  1.00  0.00     0.000 A 
HETATM    4  C15 UNK     1      20.602  -3.228  35.564  1.00  0.00     0.014 A 
HETATM    5  C16 UNK     1      18.737  -1.694  35.495  1.00  0.00     0.076 A 
HETATM    6  C17 UNK     1      19.741  -2.406  34.838  1.00  0.00     0.038 A 
ENDROOT
BRANCH   1   7
HETATM    7  C7  UNK     1      21.368  -4.205  37.714  1.00  0.00     0.022 C 
HETATM    8  C4  UNK     1      21.193  -5.513  37.944  1.00  0.00    -0.006 C 
HETATM    9  C2  UNK     1      22.152  -6.352  38.732  1.00  0.00     0.047 C 
HETATM   10  C6  UNK     1      19.979  -6.181  37.389  1.00  0.00     0.189 C 
HETATM   11  C1  UNK     1      22.432  -7.669  38.017  1.00  0.00     0.044 C 
HETATM   12  C3  UNK     1      21.150  -8.383  37.681  1.00  0.00    -0.044 A 
HETATM   13  C5  UNK     1      19.981  -7.666  37.374  1.00  0.00     0.021 A 
HETATM   14  C8  UNK     1      21.128  -9.783  37.619  1.00  0.00     0.008 A 
HETATM   15  C10 UNK     1      18.808  -8.347  37.028  1.00  0.00     0.016 A 
HETATM   16  C13 UNK     1      18.797  -9.741  36.985  1.00  0.00     0.001 A 
HETATM   17  C11 UNK     1      19.956 -10.459  37.278  1.00  0.00     0.001 A 
HETATM   18  O1  UNK     1      19.016  -5.552  36.966  1.00  0.00    -0.287 OA
ENDBRANCH   1   7
BRANCH   3  19
HETATM   19  C18 UNK     1      17.525  -1.050  37.596  1.00  0.00     0.220 C 
BRANCH  19  20
HETATM   20  O3  UNK     1      18.079   0.130  38.161  1.00  0.00    -0.317 OA
BRANCH  20  21
HETATM   21  C20 UNK     1      17.875   1.282  37.453  1.00  0.00     0.255 C 
HETATM   22  O4  UNK     1      18.739   2.068  37.091  1.00  0.00    -0.266 OA
HETATM   23  C21 UNK     1      16.412   1.455  37.174  1.00  0.00     0.126 C 
ENDBRANCH  20  21
ENDBRANCH  19  20
ENDBRANCH   3  19
BRANCH   5  24
HETATM   24  O2  UNK     1      17.904  -0.897  34.769  1.00  0.00    -0.355 OA
HETATM   25  C19 UNK     1      18.485  -0.157  33.698  1.00  0.00     0.210 C 
ENDBRANCH   5  24
TORSDOF 5
ENDMDL
MODEL 6
REMARK VINA RESULT:      -7.6     10.066     12.279
REMARK  5 active torsions:
REMARK  status: ('A' for Active; 'I' for Inactive)
REMARK    1  A    between atoms: C16_20  and  O2_2 
REMARK    2  A    between atoms: C18_22  and  O3_3 
REMARK    3  A    between atoms: C20_24  and  O3_3 
REMARK    4  A    between atoms: C7_11  and  C9_13 
REMARK    5  A    between atoms: C14_18  and  C18_22 
ROOT
HETATM    1  C9  UNK     1      30.145  -7.906  36.652  1.00  0.00    -0.035 A 
HETATM    2  C12 UNK     1      31.226  -7.054  36.426  1.00  0.00     0.023 A 
HETATM    3  C14 UNK     1      31.419  -5.941  37.244  1.00  0.00     0.000 A 
HETATM    4  C15 UNK     1      29.259  -7.646  37.699  1.00  0.00     0.014 A 
HETATM    5  C16 UNK     1      30.534  -5.681  38.289  1.00  0.00     0.076 A 
HETATM    6  C17 UNK     1      29.454  -6.534  38.517  1.00  0.00     0.038 A 
ENDROOT
BRANCH   1   7
HETATM    7  C7  UNK     1      29.940  -9.080  35.790  1.00  0.00     0.022 C 
HETATM    8  C4  UNK     1      29.274  -9.090  34.628  1.00  0.00    -0.006 C 
HETATM    9  C2  UNK     1      29.095 -10.316  33.786  1.00  0.00     0.047 C 
HETATM   10  C6  UNK     1      28.676  -7.815  34.134  1.00  0.00     0.189 C 
HETATM   11  C1  UNK     1      29.384 -10.013  32.320  1.00  0.00     0.044 C 
HETATM   12  C3  UNK     1      28.574  -8.837  31.843  1.00  0.00    -0.044 A 
HETATM   13  C5  UNK     1      28.245  -7.784  32.713  1.00  0.00     0.021 A 
HETATM   14  C8  UNK     1      28.185  -8.758  30.498  1.00  0.00     0.008 A 
HETATM   15  C10 UNK     1      27.522  -6.681  32.243  1.00  0.00     0.016 A 
HETATM   16  C13 UNK     1      27.129  -6.624  30.906  1.00  0.00     0.001 A 
HETATM   17  C11 UNK     1      27.461  -7.659  30.034  1.00  0.00     0.001 A 
HETATM   18  O1  UNK     1      28.535  -6.832  34.852  1.00  0.00    -0.287 OA
ENDBRANCH   1   7
BRANCH   3  19
HETATM   19  C18 UNK     1      32.581  -5.039  36.986  1.00  0.00     0.220 C 
BRANCH  19  20
HETATM   20  O3  UNK     1      32.972  -5.152  35.625  1.00  0.00    -0.317 OA
BRANCH  20  21
HETATM   21  C20 UNK     1      34.260  -4.789  35.343  1.00  0.00     0.255 C 
HETATM   22  O4  UNK     1      34.611  -3.966  34.509  1.00  0.00    -0.266 OA
HETATM   23  C21 UNK     1      35.208  -5.555  36.216  1.00  0.00     0.126 C 
ENDBRANCH  20  21
ENDBRANCH  19  20
ENDBRANCH   3  19
BRANCH   5  24
HETATM   24  O2  UNK     1      30.709  -4.599  39.098  1.00  0.00    -0.355 OA
HETATM   25  C19 UNK     1      29.550  -3.830  39.412  1.00  0.00     0.210 C 
ENDBRANCH   5  24
TORSDOF 5
ENDMDL
MODEL 7
REMARK VINA RESULT:      -7.6      9.942     12.455
REMARK  5 active torsions:
REMARK  status: ('A' for Active; 'I' for Inactive)
REMARK    1  A    between atoms: C16_20  and  O2_2 
REMARK    2  A    between atoms: C18_22  and  O3_3 
REMARK    3  A    between atoms: C20_24  and  O3_3 
REMARK    4  A    between atoms: C7_11  and  C9_13 
REMARK    5  A    between atoms: C14_18  and  C18_22 
ROOT
HETATM    1  C9  UNK     1      28.775  -6.774  34.526  1.00  0.00    -0.035 A 
HETATM    2  C12 UNK     1      28.295  -7.821  35.312  1.00  0.00     0.023 A 
HETATM    3  C14 UNK     1      28.972  -8.187  36.476  1.00  0.00     0.000 A 
HETATM    4  C15 UNK     1      29.932  -6.091  34.905  1.00  0.00     0.014 A 
HETATM    5  C16 UNK     1      30.128  -7.505  36.854  1.00  0.00     0.076 A 
HETATM    6  C17 UNK     1      30.608  -6.457  36.068  1.00  0.00     0.038 A 
ENDROOT
BRANCH   1   7
HETATM    7  C7  UNK     1      28.062  -6.387  33.299  1.00  0.00     0.022 C 
HETATM    8  C4  UNK     1      28.192  -6.973  32.101  1.00  0.00    -0.006 C 
HETATM    9  C2  UNK     1      27.439  -6.540  30.880  1.00  0.00     0.047 C 
HETATM   10  C6  UNK     1      29.135  -8.122  31.965  1.00  0.00     0.189 C 
HETATM   11  C1  UNK     1      26.860  -7.744  30.147  1.00  0.00     0.044 C 
HETATM   12  C3  UNK     1      27.928  -8.764  29.859  1.00  0.00    -0.044 A 
HETATM   13  C5  UNK     1      29.010  -8.947  30.736  1.00  0.00     0.021 A 
HETATM   14  C8  UNK     1      27.819  -9.587  28.729  1.00  0.00     0.008 A 
HETATM   15  C10 UNK     1      29.975  -9.927  30.471  1.00  0.00     0.016 A 
HETATM   16  C13 UNK     1      29.861 -10.728  29.334  1.00  0.00     0.001 A 
HETATM   17  C11 UNK     1      28.785 -10.560  28.465  1.00  0.00     0.001 A 
HETATM   18  O1  UNK     1      29.980  -8.385  32.811  1.00  0.00    -0.287 OA
ENDBRANCH   1   7
BRANCH   3  19
HETATM   19  C18 UNK     1      28.443  -9.310  37.305  1.00  0.00     0.220 C 
BRANCH  19  20
HETATM   20  O3  UNK     1      27.345  -8.848  38.079  1.00  0.00    -0.317 OA
BRANCH  20  21
HETATM   21  C20 UNK     1      27.603  -8.622  39.403  1.00  0.00     0.255 C 
HETATM   22  O4  UNK     1      27.840  -7.537  39.916  1.00  0.00    -0.266 OA
HETATM   23  C21 UNK     1      27.555  -9.916  40.159  1.00  0.00     0.126 C 
ENDBRANCH  20  21
ENDBRANCH  19  20
ENDBRANCH   3  19
BRANCH   5  24
HETATM   24  O2  UNK     1      30.801  -7.849  37.987  1.00  0.00    -0.355 OA
HETATM   25  C19 UNK     1      32.081  -8.456  37.823  1.00  0.00     0.210 C 
ENDBRANCH   5  24
TORSDOF 5
ENDMDL
MODEL 8
REMARK VINA RESULT:      -7.6      9.088     14.429
REMARK  5 active torsions:
REMARK  status: ('A' for Active; 'I' for Inactive)
REMARK    1  A    between atoms: C16_20  and  O2_2 
REMARK    2  A    between atoms: C18_22  and  O3_3 
REMARK    3  A    between atoms: C20_24  and  O3_3 
REMARK    4  A    between atoms: C7_11  and  C9_13 
REMARK    5  A    between atoms: C14_18  and  C18_22 
ROOT
HETATM    1  C9  UNK     1      16.294   7.415  32.934  1.00  0.00    -0.035 A 
HETATM    2  C12 UNK     1      16.916   6.304  33.504  1.00  0.00     0.023 A 
HETATM    3  C14 UNK     1      17.826   5.554  32.758  1.00  0.00     0.000 A 
HETATM    4  C15 UNK     1      16.583   7.777  31.617  1.00  0.00     0.014 A 
HETATM    5  C16 UNK     1      18.114   5.916  31.443  1.00  0.00     0.076 A 
HETATM    6  C17 UNK     1      17.493   7.027  30.872  1.00  0.00     0.038 A 
ENDROOT
BRANCH   1   7
HETATM    7  C7  UNK     1      15.335   8.206  33.720  1.00  0.00     0.022 C 
HETATM    8  C4  UNK     1      15.548   9.436  34.206  1.00  0.00    -0.006 C 
HETATM    9  C2  UNK     1      14.534  10.199  35.002  1.00  0.00     0.047 C 
HETATM   10  C6  UNK     1      16.864  10.090  33.946  1.00  0.00     0.189 C 
HETATM   11  C1  UNK     1      14.433  11.638  34.510  1.00  0.00     0.044 C 
HETATM   12  C3  UNK     1      15.787  12.295  34.481  1.00  0.00    -0.044 A 
HETATM   13  C5  UNK     1      16.946  11.551  34.203  1.00  0.00     0.021 A 
HETATM   14  C8  UNK     1      15.895  13.679  34.679  1.00  0.00     0.008 A 
HETATM   15  C10 UNK     1      18.193  12.186  34.144  1.00  0.00     0.016 A 
HETATM   16  C13 UNK     1      18.287  13.561  34.358  1.00  0.00     0.001 A 
HETATM   17  C11 UNK     1      17.140  14.307  34.624  1.00  0.00     0.001 A 
HETATM   18  O1  UNK     1      17.841   9.470  33.545  1.00  0.00    -0.287 OA
ENDBRANCH   1   7
BRANCH   3  19
HETATM   19  C18 UNK     1      18.482   4.369  33.385  1.00  0.00     0.220 C 
BRANCH  19  20
HETATM   20  O3  UNK     1      17.795   3.188  32.991  1.00  0.00    -0.317 OA
BRANCH  20  21
HETATM   21  C20 UNK     1      18.163   2.041  33.640  1.00  0.00     0.255 C 
HETATM   22  O4  UNK     1      18.265   0.931  33.139  1.00  0.00    -0.266 OA
HETATM   23  C21 UNK     1      18.430   2.337  35.086  1.00  0.00     0.126 C 
ENDBRANCH  20  21
ENDBRANCH  19  20
ENDBRANCH   3  19
BRANCH   5  24
HETATM   24  O2  UNK     1      19.000   5.195  30.701  1.00  0.00    -0.355 OA
HETATM   25  C19 UNK     1      20.167   5.875  30.242  1.00  0.00     0.210 C 
ENDBRANCH   5  24
TORSDOF 5
ENDMDL
MODEL 9
REMARK VINA RESULT:      -7.6     27.469     30.179
REMARK  5 active torsions:
REMARK  status: ('A' for Active; 'I' for Inactive)
REMARK    1  A    between atoms: C16_20  and  O2_2 
REMARK    2  A    between atoms: C18_22  and  O3_3 
REMARK    3  A    between atoms: C20_24  and  O3_3 
REMARK    4  A    between atoms: C7_11  and  C9_13 
REMARK    5  A    between atoms: C14_18  and  C18_22 
ROOT
HETATM    1  C9  UNK     1      13.213   9.803  10.436  1.00  0.00    -0.035 A 
HETATM    2  C12 UNK     1      13.899   8.640  10.785  1.00  0.00     0.023 A 
HETATM    3  C14 UNK     1      15.288   8.587  10.669  1.00  0.00     0.000 A 
HETATM    4  C15 UNK     1      13.918  10.915   9.972  1.00  0.00     0.014 A 
HETATM    5  C16 UNK     1      15.992   9.698  10.205  1.00  0.00     0.076 A 
HETATM    6  C17 UNK     1      15.306  10.862   9.856  1.00  0.00     0.038 A 
ENDROOT
BRANCH   1   7
HETATM    7  C7  UNK     1      11.748   9.859  10.557  1.00  0.00     0.022 C 
HETATM    8  C4  UNK     1      10.872   9.273   9.730  1.00  0.00    -0.006 C 
HETATM    9  C2  UNK     1       9.386   9.361   9.901  1.00  0.00     0.047 C 
HETATM   10  C6  UNK     1      11.394   8.487   8.574  1.00  0.00     0.189 C 
HETATM   11  C1  UNK     1       8.741   7.990   9.730  1.00  0.00     0.044 C 
HETATM   12  C3  UNK     1       9.156   7.356   8.431  1.00  0.00    -0.044 A 
HETATM   13  C5  UNK     1      10.430   7.591   7.885  1.00  0.00     0.021 A 
HETATM   14  C8  UNK     1       8.286   6.474   7.775  1.00  0.00     0.008 A 
HETATM   15  C10 UNK     1      10.813   6.963   6.693  1.00  0.00     0.016 A 
HETATM   16  C13 UNK     1       9.930   6.100   6.045  1.00  0.00     0.001 A 
HETATM   17  C11 UNK     1       8.669   5.853   6.585  1.00  0.00     0.001 A 
HETATM   18  O1  UNK     1      12.556   8.567   8.193  1.00  0.00    -0.287 OA
ENDBRANCH   1   7
BRANCH   3  19
HETATM   19  C18 UNK     1      16.006   7.334  11.047  1.00  0.00     0.220 C 
BRANCH  19  20
HETATM   20  O3  UNK     1      15.153   6.218  10.827  1.00  0.00    -0.317 OA
BRANCH  20  21
HETATM   21  C20 UNK     1      15.368   5.524   9.668  1.00  0.00     0.255 C 
HETATM   22  O4  UNK     1      16.423   5.010   9.322  1.00  0.00    -0.266 OA
HETATM   23  C21 UNK     1      14.107   5.478   8.860  1.00  0.00     0.126 C 
ENDBRANCH  20  21
ENDBRANCH  19  20
ENDBRANCH   3  19
BRANCH   5  24
HETATM   24  O2  UNK     1      17.348   9.665  10.087  1.00  0.00    -0.355 OA
HETATM   25  C19 UNK     1      18.030  10.917  10.075  1.00  0.00     0.210 C 
ENDBRANCH   5  24
TORSDOF 5
ENDMDL
MODEL 10
REMARK VINA RESULT:      -7.5     10.214     12.744
REMARK  5 active torsions:
REMARK  status: ('A' for Active; 'I' for Inactive)
REMARK    1  A    between atoms: C16_20  and  O2_2 
REMARK    2  A    between atoms: C18_22  and  O3_3 
REMARK    3  A    between atoms: C20_24  and  O3_3 
REMARK    4  A    between atoms: C7_11  and  C9_13 
REMARK    5  A    between atoms: C14_18  and  C18_22 
ROOT
HETATM    1  C9  UNK     1      28.484  -7.250  35.023  1.00  0.00    -0.035 A 
HETATM    2  C12 UNK     1      28.982  -6.597  36.149  1.00  0.00     0.023 A 
HETATM    3  C14 UNK     1      29.199  -7.309  37.330  1.00  0.00     0.000 A 
HETATM    4  C15 UNK     1      28.203  -8.616  35.075  1.00  0.00     0.014 A 
HETATM    5  C16 UNK     1      28.917  -8.673  37.382  1.00  0.00     0.076 A 
HETATM    6  C17 UNK     1      28.419  -9.327  36.255  1.00  0.00     0.038 A 
ENDROOT
BRANCH   1   7
HETATM    7  C7  UNK     1      28.255  -6.500  33.778  1.00  0.00     0.022 C 
HETATM    8  C4  UNK     1      29.147  -6.329  32.793  1.00  0.00    -0.006 C 
HETATM    9  C2  UNK     1      28.861  -5.555  31.542  1.00  0.00     0.047 C 
HETATM   10  C6  UNK     1      30.500  -6.940  32.938  1.00  0.00     0.189 C 
HETATM   11  C1  UNK     1      29.341  -6.318  30.313  1.00  0.00     0.044 C 
HETATM   12  C3  UNK     1      30.786  -6.713  30.454  1.00  0.00    -0.044 A 
HETATM   13  C5  UNK     1      31.334  -7.018  31.711  1.00  0.00     0.021 A 
HETATM   14  C8  UNK     1      31.591  -6.835  29.312  1.00  0.00     0.008 A 
HETATM   15  C10 UNK     1      32.671  -7.419  31.819  1.00  0.00     0.016 A 
HETATM   16  C13 UNK     1      33.463  -7.521  30.675  1.00  0.00     0.001 A 
HETATM   17  C11 UNK     1      32.924  -7.231  29.423  1.00  0.00     0.001 A 
HETATM   18  O1  UNK     1      30.923  -7.359  34.009  1.00  0.00    -0.287 OA
ENDBRANCH   1   7
BRANCH   3  19
HETATM   19  C18 UNK     1      29.733  -6.593  38.526  1.00  0.00     0.220 C 
BRANCH  19  20
HETATM   20  O3  UNK     1      28.882  -5.497  38.838  1.00  0.00    -0.317 OA
BRANCH  20  21
HETATM   21  C20 UNK     1      29.509  -4.303  39.064  1.00  0.00     0.255 C 
HETATM   22  O4  UNK     1      29.508  -3.676  40.114  1.00  0.00    -0.266 OA
HETATM   23  C21 UNK     1      30.215  -3.854  37.820  1.00  0.00     0.126 C 
ENDBRANCH  20  21
ENDBRANCH  19  20
ENDBRANCH   3  19
BRANCH   5  24
HETATM   24  O2  UNK     1      29.124  -9.383  38.527  1.00  0.00    -0.355 OA
HETATM   25  C19 UNK     1      27.966  -9.813  39.241  1.00  0.00     0.210 C 
ENDBRANCH   5  24
TORSDOF 5
ENDMDL
