MODEL 1
REMARK VINA RESULT:      -7.3      0.000      0.000
REMARK  2 active torsions:
REMARK  status: ('A' for Active; 'I' for Inactive)
REMARK    1  A    between atoms: C3_7  and  N1_3 
REMARK    2  A    between atoms: C2_6  and  C3_7 
ROOT
HETATM    1  O1  UNK     1      28.536  -5.526  39.514  1.00  0.00    -0.275 OA
HETATM    2  O2  UNK     1      29.158  -3.332  39.677  1.00  0.00    -0.260 OA
HETATM    3  C1  UNK     1      30.064  -7.128  38.482  1.00  0.00     0.012 A 
HETATM    4  C2  UNK     1      31.023  -6.036  38.265  1.00  0.00    -0.021 A 
HETATM    5  C4  UNK     1      30.298  -8.457  38.104  1.00  0.00    -0.048 A 
HETATM    6  C5  UNK     1      28.848  -6.837  39.102  1.00  0.00     0.091 A 
HETATM    7  C6  UNK     1      28.134  -9.129  38.963  1.00  0.00    -0.059 A 
HETATM    8  C7  UNK     1      29.340  -9.449  38.342  1.00  0.00     0.014 A 
HETATM    9  C8  UNK     1      27.881  -7.815  39.346  1.00  0.00     0.045 A 
HETATM   10  C9  UNK     1      30.698  -4.799  38.667  1.00  0.00     0.092 A 
HETATM   11  C10 UNK     1      31.544  -8.945  37.434  1.00  0.00     0.049 C 
HETATM   12  C11 UNK     1      29.420  -4.476  39.322  1.00  0.00     0.288 A 
HETATM   13  C12 UNK     1      27.118 -10.190  39.215  1.00  0.00     0.048 C 
ENDROOT
BRANCH   4  14
HETATM   14  C3  UNK     1      32.357  -6.236  37.604  1.00  0.00     0.168 C 
BRANCH  14  15
HETATM   15  N1  UNK     1      32.408  -5.588  36.303  1.00  0.00    -0.346 N 
HETATM   16  C13 UNK     1      31.586  -5.847  35.252  1.00  0.00     0.111 A 
HETATM   17  C15 UNK     1      32.019  -4.996  34.262  1.00  0.00     0.135 A 
HETATM   18  N2  UNK     1      33.078  -4.235  34.691  1.00  0.00    -0.255 NA
HETATM   19  C14 UNK     1      33.286  -4.618  35.930  1.00  0.00     0.209 A 
ENDBRANCH  14  15
ENDBRANCH   4  14
TORSDOF 2
ENDMDL
MODEL 2
REMARK VINA RESULT:      -7.3     16.683     18.091
REMARK  2 active torsions:
REMARK  status: ('A' for Active; 'I' for Inactive)
REMARK    1  A    between atoms: C3_7  and  N1_3 
REMARK    2  A    between atoms: C2_6  and  C3_7 
ROOT
HETATM    1  O1  UNK     1      18.008   2.574  33.144  1.00  0.00    -0.275 OA
HETATM    2  O2  UNK     1      17.998   3.019  35.387  1.00  0.00    -0.260 OA
HETATM    3  C1  UNK     1      18.759   4.298  31.586  1.00  0.00     0.012 A 
HETATM    4  C2  UNK     1      18.998   5.191  32.728  1.00  0.00    -0.021 A 
HETATM    5  C4  UNK     1      18.996   4.659  30.253  1.00  0.00    -0.048 A 
HETATM    6  C5  UNK     1      18.270   3.014  31.831  1.00  0.00     0.091 A 
HETATM    7  C6  UNK     1      18.258   2.481  29.487  1.00  0.00    -0.059 A 
HETATM    8  C7  UNK     1      18.747   3.757  29.212  1.00  0.00     0.014 A 
HETATM    9  C8  UNK     1      18.016   2.103  30.805  1.00  0.00     0.045 A 
HETATM   10  C9  UNK     1      18.739   4.745  33.966  1.00  0.00     0.092 A 
HETATM   11  C10 UNK     1      19.520   5.988  29.810  1.00  0.00     0.049 C 
HETATM   12  C11 UNK     1      18.223   3.394  34.241  1.00  0.00     0.288 A 
HETATM   13  C12 UNK     1      17.996   1.524  28.374  1.00  0.00     0.048 C 
ENDROOT
BRANCH   4  14
HETATM   14  C3  UNK     1      19.518   6.592  32.579  1.00  0.00     0.168 C 
BRANCH  14  15
HETATM   15  N1  UNK     1      18.484   7.576  32.864  1.00  0.00    -0.346 N 
HETATM   16  C13 UNK     1      18.509   8.487  33.872  1.00  0.00     0.111 A 
HETATM   17  C15 UNK     1      17.330   9.182  33.732  1.00  0.00     0.135 A 
HETATM   18  N2  UNK     1      16.600   8.712  32.669  1.00  0.00    -0.255 NA
HETATM   19  C14 UNK     1      17.329   7.741  32.165  1.00  0.00     0.209 A 
ENDBRANCH  14  15
ENDBRANCH   4  14
TORSDOF 2
ENDMDL
MODEL 3
REMARK VINA RESULT:      -7.3     34.225     36.110
REMARK  2 active torsions:
REMARK  status: ('A' for Active; 'I' for Inactive)
REMARK    1  A    between atoms: C3_7  and  N1_3 
REMARK    2  A    between atoms: C2_6  and  C3_7 
ROOT
HETATM    1  O1  UNK     1      16.510   6.054   9.845  1.00  0.00    -0.275 OA
HETATM    2  O2  UNK     1      15.919   3.846   9.783  1.00  0.00    -0.260 OA
HETATM    3  C1  UNK     1      14.766   7.761   9.750  1.00  0.00     0.012 A 
HETATM    4  C2  UNK     1      13.759   6.694   9.672  1.00  0.00    -0.021 A 
HETATM    5  C4  UNK     1      14.454   9.127   9.746  1.00  0.00    -0.048 A 
HETATM    6  C5  UNK     1      16.113   7.406   9.834  1.00  0.00     0.091 A 
HETATM    7  C6  UNK     1      16.801   9.708   9.906  1.00  0.00    -0.059 A 
HETATM    8  C7  UNK     1      15.464  10.093   9.823  1.00  0.00     0.014 A 
HETATM    9  C8  UNK     1      17.132   8.357   9.911  1.00  0.00     0.045 A 
HETATM   10  C9  UNK     1      14.166   5.416   9.684  1.00  0.00     0.092 A 
HETATM   11  C10 UNK     1      13.067   9.684   9.663  1.00  0.00     0.049 C 
HETATM   12  C11 UNK     1      15.583   5.026   9.773  1.00  0.00     0.288 A 
HETATM   13  C12 UNK     1      17.872  10.742   9.990  1.00  0.00     0.048 C 
ENDROOT
BRANCH   4  14
HETATM   14  C3  UNK     1      12.285   6.962   9.573  1.00  0.00     0.168 C 
BRANCH  14  15
HETATM   15  N1  UNK     1      11.760   6.575   8.273  1.00  0.00    -0.346 N 
HETATM   16  C13 UNK     1      12.336   6.838   7.071  1.00  0.00     0.111 A 
HETATM   17  C15 UNK     1      11.479   6.278   6.152  1.00  0.00     0.135 A 
HETATM   18  N2  UNK     1      10.406   5.689   6.770  1.00  0.00    -0.255 NA
HETATM   19  C14 UNK     1      10.608   5.885   8.053  1.00  0.00     0.209 A 
ENDBRANCH  14  15
ENDBRANCH   4  14
TORSDOF 2
ENDMDL
MODEL 4
REMARK VINA RESULT:      -7.3     18.773     20.540
REMARK  2 active torsions:
REMARK  status: ('A' for Active; 'I' for Inactive)
REMARK    1  A    between atoms: C3_7  and  N1_3 
REMARK    2  A    between atoms: C2_6  and  C3_7 
ROOT
HETATM    1  O1  UNK     1      14.745   8.681  32.712  1.00  0.00    -0.275 OA
HETATM    2  O2  UNK     1      13.641   6.873  31.852  1.00  0.00    -0.260 OA
HETATM    3  C1  UNK     1      17.069   8.435  33.424  1.00  0.00     0.012 A 
HETATM    4  C2  UNK     1      17.016   7.022  33.024  1.00  0.00    -0.021 A 
HETATM    5  C4  UNK     1      18.205   9.048  33.970  1.00  0.00    -0.048 A 
HETATM    6  C5  UNK     1      15.928   9.222  33.255  1.00  0.00     0.091 A 
HETATM    7  C6  UNK     1      17.033  11.161  34.148  1.00  0.00    -0.059 A 
HETATM    8  C7  UNK     1      18.186  10.401  34.329  1.00  0.00     0.014 A 
HETATM    9  C8  UNK     1      15.894  10.572  33.608  1.00  0.00     0.045 A 
HETATM   10  C9  UNK     1      15.876   6.536  32.511  1.00  0.00     0.092 A 
HETATM   11  C10 UNK     1      19.509   8.357  34.217  1.00  0.00     0.049 C 
HETATM   12  C11 UNK     1      14.665   7.353  32.326  1.00  0.00     0.288 A 
HETATM   13  C12 UNK     1      17.020  12.602  34.531  1.00  0.00     0.048 C 
ENDROOT
BRANCH   4  14
HETATM   14  C3  UNK     1      18.181   6.085  33.167  1.00  0.00     0.168 C 
BRANCH  14  15
HETATM   15  N1  UNK     1      18.631   5.595  31.873  1.00  0.00    -0.346 N 
HETATM   16  C13 UNK     1      18.492   4.325  31.410  1.00  0.00     0.111 A 
HETATM   17  C15 UNK     1      19.063   4.353  30.160  1.00  0.00     0.135 A 
HETATM   18  N2  UNK     1      19.541   5.604  29.861  1.00  0.00    -0.255 NA
HETATM   19  C14 UNK     1      19.262   6.332  30.919  1.00  0.00     0.209 A 
ENDBRANCH  14  15
ENDBRANCH   4  14
TORSDOF 2
ENDMDL
MODEL 5
REMARK VINA RESULT:      -7.3      1.108      1.567
REMARK  2 active torsions:
REMARK  status: ('A' for Active; 'I' for Inactive)
REMARK    1  A    between atoms: C3_7  and  N1_3 
REMARK    2  A    between atoms: C2_6  and  C3_7 
ROOT
HETATM    1  O1  UNK     1      28.693  -5.543  39.724  1.00  0.00    -0.275 OA
HETATM    2  O2  UNK     1      29.431  -3.387  39.905  1.00  0.00    -0.260 OA
HETATM    3  C1  UNK     1      29.485  -6.927  37.874  1.00  0.00     0.012 A 
HETATM    4  C2  UNK     1      30.289  -5.791  37.401  1.00  0.00    -0.021 A 
HETATM    5  C4  UNK     1      29.450  -8.174  37.236  1.00  0.00    -0.048 A 
HETATM    6  C5  UNK     1      28.711  -6.766  39.023  1.00  0.00     0.091 A 
HETATM    7  C6  UNK     1      27.898  -9.025  38.891  1.00  0.00    -0.059 A 
HETATM    8  C7  UNK     1      28.661  -9.215  37.741  1.00  0.00     0.014 A 
HETATM    9  C8  UNK     1      27.919  -7.794  39.540  1.00  0.00     0.045 A 
HETATM   10  C9  UNK     1      30.252  -4.640  38.088  1.00  0.00     0.092 A 
HETATM   11  C10 UNK     1      30.217  -8.520  35.999  1.00  0.00     0.049 C 
HETATM   12  C11 UNK     1      29.440  -4.455  39.302  1.00  0.00     0.288 A 
HETATM   13  C12 UNK     1      27.061 -10.137  39.426  1.00  0.00     0.048 C 
ENDROOT
BRANCH   4  14
HETATM   14  C3  UNK     1      31.154  -5.852  36.174  1.00  0.00     0.168 C 
BRANCH  14  15
HETATM   15  N1  UNK     1      32.566  -5.891  36.521  1.00  0.00    -0.346 N 
HETATM   16  C13 UNK     1      33.138  -6.710  37.443  1.00  0.00     0.111 A 
HETATM   17  C15 UNK     1      34.473  -6.379  37.411  1.00  0.00     0.135 A 
HETATM   18  N2  UNK     1      34.716  -5.385  36.497  1.00  0.00    -0.255 NA
HETATM   19  C14 UNK     1      33.540  -5.114  35.976  1.00  0.00     0.209 A 
ENDBRANCH  14  15
ENDBRANCH   4  14
TORSDOF 2
ENDMDL
MODEL 6
REMARK VINA RESULT:      -7.2     15.091     16.386
REMARK  2 active torsions:
REMARK  status: ('A' for Active; 'I' for Inactive)
REMARK    1  A    between atoms: C3_7  and  N1_3 
REMARK    2  A    between atoms: C2_6  and  C3_7 
ROOT
HETATM    1  O1  UNK     1      18.849   0.570  33.333  1.00  0.00    -0.275 OA
HETATM    2  O2  UNK     1      18.257   1.216  35.445  1.00  0.00    -0.260 OA
HETATM    3  C1  UNK     1      18.664   2.170  31.497  1.00  0.00     0.012 A 
HETATM    4  C2  UNK     1      18.167   3.171  32.452  1.00  0.00    -0.021 A 
HETATM    5  C4  UNK     1      18.834   2.418  30.128  1.00  0.00    -0.048 A 
HETATM    6  C5  UNK     1      18.990   0.899  31.970  1.00  0.00     0.091 A 
HETATM    7  C6  UNK     1      19.630   0.156  29.774  1.00  0.00    -0.059 A 
HETATM    8  C7  UNK     1      19.313   1.418  29.274  1.00  0.00     0.014 A 
HETATM    9  C8  UNK     1      19.469  -0.110  31.131  1.00  0.00     0.045 A 
HETATM   10  C9  UNK     1      18.043   2.830  33.742  1.00  0.00     0.092 A 
HETATM   11  C10 UNK     1      18.537   3.720  29.455  1.00  0.00     0.049 C 
HETATM   12  C11 UNK     1      18.383   1.492  34.256  1.00  0.00     0.288 A 
HETATM   13  C12 UNK     1      20.142  -0.904  28.860  1.00  0.00     0.048 C 
ENDROOT
BRANCH   4  14
HETATM   14  C3  UNK     1      17.783   4.567  32.051  1.00  0.00     0.168 C 
BRANCH  14  15
HETATM   15  N1  UNK     1      18.654   5.555  32.667  1.00  0.00    -0.346 N 
HETATM   16  C13 UNK     1      18.356   6.312  33.756  1.00  0.00     0.111 A 
HETATM   17  C15 UNK     1      19.478   7.082  33.954  1.00  0.00     0.135 A 
HETATM   18  N2  UNK     1      20.440   6.809  33.013  1.00  0.00    -0.255 NA
HETATM   19  C14 UNK     1      19.908   5.879  32.251  1.00  0.00     0.209 A 
ENDBRANCH  14  15
ENDBRANCH   4  14
TORSDOF 2
ENDMDL
MODEL 7
REMARK VINA RESULT:      -7.1     19.242     20.999
REMARK  2 active torsions:
REMARK  status: ('A' for Active; 'I' for Inactive)
REMARK    1  A    between atoms: C3_7  and  N1_3 
REMARK    2  A    between atoms: C2_6  and  C3_7 
ROOT
HETATM    1  O1  UNK     1      15.915   6.529  31.322  1.00  0.00    -0.275 OA
HETATM    2  O2  UNK     1      13.665   6.887  31.515  1.00  0.00    -0.260 OA
HETATM    3  C1  UNK     1      17.413   7.371  33.059  1.00  0.00     0.012 A 
HETATM    4  C2  UNK     1      16.245   7.911  33.769  1.00  0.00    -0.021 A 
HETATM    5  C4  UNK     1      18.730   7.493  33.521  1.00  0.00    -0.048 A 
HETATM    6  C5  UNK     1      17.210   6.696  31.855  1.00  0.00     0.091 A 
HETATM    7  C6  UNK     1      19.564   6.285  31.593  1.00  0.00    -0.059 A 
HETATM    8  C7  UNK     1      19.797   6.954  32.793  1.00  0.00     0.014 A 
HETATM    9  C8  UNK     1      18.263   6.153  31.117  1.00  0.00     0.045 A 
HETATM   10  C9  UNK     1      15.026   7.737  33.239  1.00  0.00     0.092 A 
HETATM   11  C10 UNK     1      19.127   8.181  34.789  1.00  0.00     0.049 C 
HETATM   12  C11 UNK     1      14.795   7.027  31.970  1.00  0.00     0.288 A 
HETATM   13  C12 UNK     1      20.704   5.711  30.823  1.00  0.00     0.048 C 
ENDROOT
BRANCH   4  14
HETATM   14  C3  UNK     1      16.348   8.658  35.068  1.00  0.00     0.168 C 
BRANCH  14  15
HETATM   15  N1  UNK     1      15.943  10.047  34.917  1.00  0.00    -0.346 N 
HETATM   16  C13 UNK     1      14.804  10.602  35.410  1.00  0.00     0.111 A 
HETATM   17  C15 UNK     1      14.868  11.918  35.014  1.00  0.00     0.135 A 
HETATM   18  N2  UNK     1      16.011  12.165  34.296  1.00  0.00    -0.255 NA
HETATM   19  C14 UNK     1      16.639  11.011  34.258  1.00  0.00     0.209 A 
ENDBRANCH  14  15
ENDBRANCH   4  14
TORSDOF 2
ENDMDL
MODEL 8
REMARK VINA RESULT:      -7.0     15.383     16.935
REMARK  2 active torsions:
REMARK  status: ('A' for Active; 'I' for Inactive)
REMARK    1  A    between atoms: C3_7  and  N1_3 
REMARK    2  A    between atoms: C2_6  and  C3_7 
ROOT
HETATM    1  O1  UNK     1      18.299   3.270  34.248  1.00  0.00    -0.275 OA
HETATM    2  O2  UNK     1      17.707   1.068  34.417  1.00  0.00    -0.260 OA
HETATM    3  C1  UNK     1      18.667   4.243  32.038  1.00  0.00     0.012 A 
HETATM    4  C2  UNK     1      18.351   2.938  31.439  1.00  0.00    -0.021 A 
HETATM    5  C4  UNK     1      19.004   5.381  31.293  1.00  0.00    -0.048 A 
HETATM    6  C5  UNK     1      18.631   4.367  33.427  1.00  0.00     0.091 A 
HETATM    7  C6  UNK     1      19.250   6.687  33.319  1.00  0.00    -0.059 A 
HETATM    8  C7  UNK     1      19.294   6.593  31.929  1.00  0.00     0.014 A 
HETATM    9  C8  UNK     1      18.917   5.569  34.077  1.00  0.00     0.045 A 
HETATM   10  C9  UNK     1      18.039   1.913  32.245  1.00  0.00     0.092 A 
HETATM   11  C10 UNK     1      19.088   5.427  29.800  1.00  0.00     0.049 C 
HETATM   12  C11 UNK     1      17.997   2.028  33.712  1.00  0.00     0.288 A 
HETATM   13  C12 UNK     1      19.557   7.982  33.991  1.00  0.00     0.048 C 
ENDROOT
BRANCH   4  14
HETATM   14  C3  UNK     1      18.364   2.692  29.957  1.00  0.00     0.168 C 
BRANCH  14  15
HETATM   15  N1  UNK     1      19.065   1.460  29.630  1.00  0.00    -0.346 N 
HETATM   16  C13 UNK     1      20.018   0.859  30.391  1.00  0.00     0.111 A 
HETATM   17  C15 UNK     1      20.373  -0.258  29.673  1.00  0.00     0.135 A 
HETATM   18  N2  UNK     1      19.661  -0.343  28.503  1.00  0.00    -0.255 NA
HETATM   19  C14 UNK     1      18.878   0.712  28.509  1.00  0.00     0.209 A 
ENDBRANCH  14  15
ENDBRANCH   4  14
TORSDOF 2
ENDMDL
MODEL 9
REMARK VINA RESULT:      -6.9     34.107     36.031
REMARK  2 active torsions:
REMARK  status: ('A' for Active; 'I' for Inactive)
REMARK    1  A    between atoms: C3_7  and  N1_3 
REMARK    2  A    between atoms: C2_6  and  C3_7 
ROOT
HETATM    1  O1  UNK     1      13.894   4.605   8.767  1.00  0.00    -0.275 OA
HETATM    2  O2  UNK     1      15.812   3.894   9.788  1.00  0.00    -0.260 OA
HETATM    3  C1  UNK     1      13.125   6.895   9.128  1.00  0.00     0.012 A 
HETATM    4  C2  UNK     1      14.288   7.121   9.999  1.00  0.00    -0.021 A 
HETATM    5  C4  UNK     1      12.160   7.871   8.850  1.00  0.00    -0.048 A 
HETATM    6  C5  UNK     1      12.966   5.640   8.538  1.00  0.00     0.091 A 
HETATM    7  C6  UNK     1      10.943   6.325   7.435  1.00  0.00    -0.059 A 
HETATM    8  C7  UNK     1      11.076   7.588   8.010  1.00  0.00     0.014 A 
HETATM    9  C8  UNK     1      11.891   5.342   7.699  1.00  0.00     0.045 A 
HETATM   10  C9  UNK     1      15.154   6.117  10.198  1.00  0.00     0.092 A 
HETATM   11  C10 UNK     1      12.176   9.265   9.393  1.00  0.00     0.049 C 
HETATM   12  C11 UNK     1      14.999   4.788   9.583  1.00  0.00     0.288 A 
HETATM   13  C12 UNK     1       9.788   6.030   6.539  1.00  0.00     0.048 C 
ENDROOT
BRANCH   4  14
HETATM   14  C3  UNK     1      14.554   8.429  10.688  1.00  0.00     0.168 C 
BRANCH  14  15
HETATM   15  N1  UNK     1      15.665   9.138  10.071  1.00  0.00    -0.346 N 
HETATM   16  C13 UNK     1      15.562  10.195   9.223  1.00  0.00     0.111 A 
HETATM   17  C15 UNK     1      16.864  10.513   8.916  1.00  0.00     0.135 A 
HETATM   18  N2  UNK     1      17.744   9.676   9.555  1.00  0.00    -0.255 NA
HETATM   19  C14 UNK     1      16.984   8.857  10.247  1.00  0.00     0.209 A 
ENDBRANCH  14  15
ENDBRANCH   4  14
TORSDOF 2
ENDMDL
MODEL 10
REMARK VINA RESULT:      -6.9      2.574      5.376
REMARK  2 active torsions:
REMARK  status: ('A' for Active; 'I' for Inactive)
REMARK    1  A    between atoms: C3_7  and  N1_3 
REMARK    2  A    between atoms: C2_6  and  C3_7 
ROOT
HETATM    1  O1  UNK     1      30.616  -4.102  38.321  1.00  0.00    -0.275 OA
HETATM    2  O2  UNK     1      29.337  -3.669  40.166  1.00  0.00    -0.260 OA
HETATM    3  C1  UNK     1      29.938  -5.877  36.787  1.00  0.00     0.012 A 
HETATM    4  C2  UNK     1      28.774  -6.140  37.644  1.00  0.00    -0.021 A 
HETATM    5  C4  UNK     1      30.215  -6.588  35.611  1.00  0.00    -0.048 A 
HETATM    6  C5  UNK     1      30.824  -4.864  37.154  1.00  0.00     0.091 A 
HETATM    7  C6  UNK     1      32.211  -5.267  35.232  1.00  0.00    -0.059 A 
HETATM    8  C7  UNK     1      31.344  -6.285  34.840  1.00  0.00     0.014 A 
HETATM    9  C8  UNK     1      31.954  -4.549  36.396  1.00  0.00     0.045 A 
HETATM   10  C9  UNK     1      28.602  -5.399  38.748  1.00  0.00     0.092 A 
HETATM   11  C10 UNK     1      29.374  -7.700  35.070  1.00  0.00     0.049 C 
HETATM   12  C11 UNK     1      29.528  -4.327  39.149  1.00  0.00     0.288 A 
HETATM   13  C12 UNK     1      33.410  -4.947  34.406  1.00  0.00     0.048 C 
ENDROOT
BRANCH   4  14
HETATM   14  C3  UNK     1      27.761  -7.209  37.347  1.00  0.00     0.168 C 
BRANCH  14  15
HETATM   15  N1  UNK     1      27.861  -8.313  38.289  1.00  0.00    -0.346 N 
HETATM   16  C13 UNK     1      26.946  -8.632  39.242  1.00  0.00     0.111 A 
HETATM   17  C15 UNK     1      27.477  -9.734  39.870  1.00  0.00     0.135 A 
HETATM   18  N2  UNK     1      28.685 -10.083  39.321  1.00  0.00    -0.255 NA
HETATM   19  C14 UNK     1      28.887  -9.203  38.366  1.00  0.00     0.209 A 
ENDBRANCH  14  15
ENDBRANCH   4  14
TORSDOF 2
ENDMDL
