MODEL 1
REMARK VINA RESULT:     -10.5      0.000      0.000
REMARK  7 active torsions:
REMARK  status: ('A' for Active; 'I' for Inactive)
REMARK    1  A    between atoms: C27_34  and  O4_4 
REMARK    2  A    between atoms: C5_12  and  N1_5 
REMARK    3  A    between atoms: C6_13  and  N2_6 
REMARK    4  A    between atoms: C5_12  and  C7_14 
REMARK    5  A    between atoms: C6_13  and  C8_15 
REMARK    6  A    between atoms: C14_21  and  C20_27 
REMARK    7  A    between atoms: C16_23  and  C21_28 
ROOT
HETATM    1  N1  UNK     1      18.958  -0.908  35.201  1.00  0.00     0.096 N 
HETATM    2  N2  UNK     1      19.647  -3.376  36.542  1.00  0.00     0.097 N 
HETATM    3  C1  UNK     1      19.638  -1.999  34.490  1.00  0.00     0.303 C 
HETATM    4  C2  UNK     1      18.126  -1.445  36.285  1.00  0.00     0.303 C 
HETATM    5  C3  UNK     1      20.478  -2.840  35.458  1.00  0.00     0.303 C 
HETATM    6  C4  UNK     1      18.965  -2.287  37.251  1.00  0.00     0.303 C 
ENDROOT
BRANCH   2   7
HETATM    7  C6  UNK     1      20.449  -4.175  37.465  1.00  0.00     0.334 C 
BRANCH   7   8
HETATM    8  C8  UNK     1      20.377  -5.613  37.063  1.00  0.00     0.095 A 
HETATM    9  C11 UNK     1      19.272  -6.387  36.813  1.00  0.00     0.078 A 
HETATM   10  O1  UNK     1      19.700  -7.636  36.478  1.00  0.00    -0.294 OA
HETATM   11  C18 UNK     1      17.822  -6.160  36.830  1.00  0.00     0.079 C 
HETATM   12  C16 UNK     1      21.055  -7.536  36.549  1.00  0.00     0.180 A 
HETATM   13  N3  UNK     1      21.518  -6.355  36.892  1.00  0.00    -0.224 NA
BRANCH  12  14
HETATM   14  C21 UNK     1      21.774  -8.741  36.237  1.00  0.00     0.017 A 
HETATM   15  C23 UNK     1      23.013  -8.987  36.826  1.00  0.00     0.018 A 
HETATM   16  C25 UNK     1      23.710 -10.157  36.523  1.00  0.00     0.037 A 
HETATM   17  C27 UNK     1      23.167 -11.081  35.631  1.00  0.00     0.068 A 
HETATM   18  C26 UNK     1      21.926 -10.835  35.042  1.00  0.00     0.037 A 
HETATM   19  C24 UNK     1      21.230  -9.665  35.344  1.00  0.00     0.018 A 
BRANCH  17  20
HETATM   20  O4  UNK     1      23.846 -12.222  35.335  1.00  0.00    -0.356 OA
HETATM   21  C28 UNK     1      24.797 -12.680  36.295  1.00  0.00     0.210 C 
ENDBRANCH  17  20
ENDBRANCH  12  14
ENDBRANCH   7   8
ENDBRANCH   2   7
BRANCH   1  22
HETATM   22  C5  UNK     1      18.157  -0.107  34.278  1.00  0.00     0.312 C 
BRANCH  22  23
HETATM   23  C7  UNK     1      18.702  -0.133  32.892  1.00  0.00    -0.011 A 
HETATM   24  C10 UNK     1      19.189  -1.263  32.360  1.00  0.00     0.092 A 
HETATM   25  C15 UNK     1      19.738  -1.338  30.997  1.00  0.00     0.288 A 
HETATM   26  O2  UNK     1      19.733  -0.165  30.258  1.00  0.00    -0.275 OA
HETATM   27  O3  UNK     1      20.172  -2.391  30.543  1.00  0.00    -0.260 OA
HETATM   28  C12 UNK     1      19.227   1.039  30.790  1.00  0.00     0.090 A 
HETATM   29  C9  UNK     1      18.712   1.095  32.085  1.00  0.00     0.007 A 
HETATM   30  C17 UNK     1      19.274   2.159  29.957  1.00  0.00     0.039 A 
HETATM   31  C13 UNK     1      18.230   2.329  32.541  1.00  0.00     0.022 A 
HETATM   32  C14 UNK     1      18.269   3.460  31.717  1.00  0.00    -0.058 A 
HETATM   33  C19 UNK     1      18.791   3.375  30.427  1.00  0.00     0.010 A 
BRANCH  32  34
HETATM   34  C20 UNK     1      17.750   4.764  32.222  1.00  0.00     0.034 C 
HETATM   35  C22 UNK     1      18.564   5.949  31.710  1.00  0.00     0.010 C 
ENDBRANCH  32  34
ENDBRANCH  22  23
ENDBRANCH   1  22
TORSDOF 7
ENDMDL
MODEL 2
REMARK VINA RESULT:     -10.5      7.018     10.648
REMARK  7 active torsions:
REMARK  status: ('A' for Active; 'I' for Inactive)
REMARK    1  A    between atoms: C27_34  and  O4_4 
REMARK    2  A    between atoms: C5_12  and  N1_5 
REMARK    3  A    between atoms: C6_13  and  N2_6 
REMARK    4  A    between atoms: C5_12  and  C7_14 
REMARK    5  A    between atoms: C6_13  and  C8_15 
REMARK    6  A    between atoms: C14_21  and  C20_27 
REMARK    7  A    between atoms: C16_23  and  C21_28 
ROOT
HETATM    1  N1  UNK     1      25.245  -7.993  38.712  1.00  0.00     0.096 N 
HETATM    2  N2  UNK     1      28.110  -7.657  38.915  1.00  0.00     0.097 N 
HETATM    3  C1  UNK     1      26.091  -9.019  39.335  1.00  0.00     0.303 C 
HETATM    4  C2  UNK     1      25.847  -6.664  38.877  1.00  0.00     0.303 C 
HETATM    5  C3  UNK     1      27.508  -8.985  38.751  1.00  0.00     0.303 C 
HETATM    6  C4  UNK     1      27.264  -6.631  38.295  1.00  0.00     0.303 C 
ENDROOT
BRANCH   2   7
HETATM    7  C6  UNK     1      29.459  -7.625  38.355  1.00  0.00     0.334 C 
BRANCH   7   8
HETATM    8  C8  UNK     1      29.392  -7.178  36.930  1.00  0.00     0.095 A 
HETATM    9  C11 UNK     1      29.793  -5.988  36.378  1.00  0.00     0.078 A 
HETATM   10  O1  UNK     1      29.534  -6.036  35.042  1.00  0.00    -0.294 OA
HETATM   11  C18 UNK     1      30.402  -4.758  36.896  1.00  0.00     0.079 C 
HETATM   12  C16 UNK     1      28.985  -7.269  34.869  1.00  0.00     0.180 A 
HETATM   13  N3  UNK     1      28.875  -7.996  35.958  1.00  0.00    -0.224 NA
BRANCH  12  14
HETATM   14  C21 UNK     1      28.610  -7.588  33.519  1.00  0.00     0.017 A 
HETATM   15  C23 UNK     1      27.944  -6.643  32.738  1.00  0.00     0.018 A 
HETATM   16  C25 UNK     1      27.580  -6.953  31.428  1.00  0.00     0.037 A 
HETATM   17  C27 UNK     1      27.883  -8.207  30.898  1.00  0.00     0.068 A 
HETATM   18  C26 UNK     1      28.550  -9.151  31.678  1.00  0.00     0.037 A 
HETATM   19  C24 UNK     1      28.912  -8.842  32.989  1.00  0.00     0.018 A 
BRANCH  17  20
HETATM   20  O4  UNK     1      27.528  -8.509  29.620  1.00  0.00    -0.356 OA
HETATM   21  C28 UNK     1      28.328  -9.471  28.933  1.00  0.00     0.210 C 
ENDBRANCH  17  20
ENDBRANCH  12  14
ENDBRANCH   7   8
ENDBRANCH   2   7
BRANCH   1  22
HETATM   22  C5  UNK     1      23.895  -8.026  39.269  1.00  0.00     0.312 C 
BRANCH  22  23
HETATM   23  C7  UNK     1      22.865  -7.622  38.272  1.00  0.00    -0.011 A 
HETATM   24  C10 UNK     1      22.214  -6.455  38.382  1.00  0.00     0.092 A 
HETATM   25  C15 UNK     1      21.189  -6.013  37.423  1.00  0.00     0.288 A 
HETATM   26  O2  UNK     1      20.913  -6.869  36.368  1.00  0.00    -0.275 OA
HETATM   27  O3  UNK     1      20.616  -4.938  37.555  1.00  0.00    -0.260 OA
HETATM   28  C12 UNK     1      21.582  -8.103  36.225  1.00  0.00     0.090 A 
HETATM   29  C9  UNK     1      22.550  -8.509  37.143  1.00  0.00     0.007 A 
HETATM   30  C17 UNK     1      21.222  -8.885  35.125  1.00  0.00     0.039 A 
HETATM   31  C13 UNK     1      23.168  -9.749  36.932  1.00  0.00     0.022 A 
HETATM   32  C14 UNK     1      22.819 -10.543  35.834  1.00  0.00    -0.058 A 
HETATM   33  C19 UNK     1      21.847 -10.112  34.932  1.00  0.00     0.010 A 
BRANCH  32  34
HETATM   34  C20 UNK     1      23.489 -11.860  35.627  1.00  0.00     0.034 C 
HETATM   35  C22 UNK     1      24.945 -11.848  36.087  1.00  0.00     0.010 C 
ENDBRANCH  32  34
ENDBRANCH  22  23
ENDBRANCH   1  22
TORSDOF 7
ENDMDL
MODEL 3
REMARK VINA RESULT:     -10.4      2.803     11.239
REMARK  7 active torsions:
REMARK  status: ('A' for Active; 'I' for Inactive)
REMARK    1  A    between atoms: C27_34  and  O4_4 
REMARK    2  A    between atoms: C5_12  and  N1_5 
REMARK    3  A    between atoms: C6_13  and  N2_6 
REMARK    4  A    between atoms: C5_12  and  C7_14 
REMARK    5  A    between atoms: C6_13  and  C8_15 
REMARK    6  A    between atoms: C14_21  and  C20_27 
REMARK    7  A    between atoms: C16_23  and  C21_28 
ROOT
HETATM    1  N1  UNK     1      19.599  -3.725  36.302  1.00  0.00     0.096 N 
HETATM    2  N2  UNK     1      19.094  -0.960  36.977  1.00  0.00     0.097 N 
HETATM    3  C1  UNK     1      19.997  -2.636  35.402  1.00  0.00     0.303 C 
HETATM    4  C2  UNK     1      19.611  -3.267  37.696  1.00  0.00     0.303 C 
HETATM    5  C3  UNK     1      19.084  -1.418  35.583  1.00  0.00     0.303 C 
HETATM    6  C4  UNK     1      18.699  -2.048  37.878  1.00  0.00     0.303 C 
ENDROOT
BRANCH   2   7
HETATM    7  C6  UNK     1      18.221   0.200  37.149  1.00  0.00     0.334 C 
BRANCH   7   8
HETATM    8  C8  UNK     1      17.807   0.708  35.805  1.00  0.00     0.095 A 
HETATM    9  C11 UNK     1      16.705   0.378  35.058  1.00  0.00     0.078 A 
HETATM   10  O1  UNK     1      16.749   1.098  33.903  1.00  0.00    -0.294 OA
HETATM   11  C18 UNK     1      15.566  -0.530  35.236  1.00  0.00     0.079 C 
HETATM   12  C16 UNK     1      17.891   1.828  34.027  1.00  0.00     0.180 A 
HETATM   13  N3  UNK     1      18.564   1.638  35.140  1.00  0.00    -0.224 NA
BRANCH  12  14
HETATM   14  C21 UNK     1      18.186   2.695  32.920  1.00  0.00     0.017 A 
HETATM   15  C23 UNK     1      18.415   2.158  31.654  1.00  0.00     0.018 A 
HETATM   16  C25 UNK     1      18.700   3.000  30.579  1.00  0.00     0.037 A 
HETATM   17  C27 UNK     1      18.757   4.380  30.771  1.00  0.00     0.068 A 
HETATM   18  C26 UNK     1      18.528   4.918  32.037  1.00  0.00     0.037 A 
HETATM   19  C24 UNK     1      18.243   4.076  33.112  1.00  0.00     0.018 A 
BRANCH  17  20
HETATM   20  O4  UNK     1      19.036   5.202  29.723  1.00  0.00    -0.356 OA
HETATM   21  C28 UNK     1      20.192   6.031  29.837  1.00  0.00     0.210 C 
ENDBRANCH  17  20
ENDBRANCH  12  14
ENDBRANCH   7   8
ENDBRANCH   2   7
BRANCH   1  22
HETATM   22  C5  UNK     1      20.470  -4.886  36.129  1.00  0.00     0.312 C 
BRANCH  22  23
HETATM   23  C7  UNK     1      19.734  -6.170  36.289  1.00  0.00    -0.011 A 
HETATM   24  C10 UNK     1      18.633  -6.431  35.570  1.00  0.00     0.092 A 
HETATM   25  C15 UNK     1      17.872  -7.685  35.693  1.00  0.00     0.288 A 
HETATM   26  O2  UNK     1      18.348  -8.616  36.603  1.00  0.00    -0.275 OA
HETATM   27  O3  UNK     1      16.869  -7.890  35.018  1.00  0.00    -0.260 OA
HETATM   28  C12 UNK     1      19.504  -8.370  37.372  1.00  0.00     0.090 A 
HETATM   29  C9  UNK     1      20.214  -7.176  37.246  1.00  0.00     0.007 A 
HETATM   30  C17 UNK     1      19.891  -9.378  38.259  1.00  0.00     0.039 A 
HETATM   31  C13 UNK     1      21.352  -7.008  38.047  1.00  0.00     0.022 A 
HETATM   32  C14 UNK     1      21.753  -8.008  38.938  1.00  0.00    -0.058 A 
HETATM   33  C19 UNK     1      21.023  -9.192  39.045  1.00  0.00     0.010 A 
BRANCH  32  34
HETATM   34  C20 UNK     1      22.967  -7.809  39.781  1.00  0.00     0.034 C 
HETATM   35  C22 UNK     1      24.255  -7.853  38.964  1.00  0.00     0.010 C 
ENDBRANCH  32  34
ENDBRANCH  22  23
ENDBRANCH   1  22
TORSDOF 7
ENDMDL
MODEL 4
REMARK VINA RESULT:     -10.3      6.327     14.071
REMARK  7 active torsions:
REMARK  status: ('A' for Active; 'I' for Inactive)
REMARK    1  A    between atoms: C27_34  and  O4_4 
REMARK    2  A    between atoms: C5_12  and  N1_5 
REMARK    3  A    between atoms: C6_13  and  N2_6 
REMARK    4  A    between atoms: C5_12  and  C7_14 
REMARK    5  A    between atoms: C6_13  and  C8_15 
REMARK    6  A    between atoms: C14_21  and  C20_27 
REMARK    7  A    between atoms: C16_23  and  C21_28 
ROOT
HETATM    1  N1  UNK     1      18.865   3.672  31.448  1.00  0.00     0.096 N 
HETATM    2  N2  UNK     1      19.228   6.277  32.650  1.00  0.00     0.097 N 
HETATM    3  C1  UNK     1      18.047   4.107  32.587  1.00  0.00     0.303 C 
HETATM    4  C2  UNK     1      19.284   4.830  30.648  1.00  0.00     0.303 C 
HETATM    5  C3  UNK     1      18.808   5.120  33.450  1.00  0.00     0.303 C 
HETATM    6  C4  UNK     1      20.043   5.844  31.510  1.00  0.00     0.303 C 
ENDROOT
BRANCH   2   7
HETATM    7  C6  UNK     1      19.955   7.240  33.473  1.00  0.00     0.334 C 
BRANCH   7   8
HETATM    8  C8  UNK     1      19.074   8.416  33.752  1.00  0.00     0.095 A 
HETATM    9  C11 UNK     1      19.411   9.652  34.242  1.00  0.00     0.078 A 
HETATM   10  O1  UNK     1      18.273  10.395  34.327  1.00  0.00    -0.294 OA
HETATM   11  C18 UNK     1      20.661  10.294  34.664  1.00  0.00     0.079 C 
HETATM   12  C16 UNK     1      17.307   9.548  33.877  1.00  0.00     0.180 A 
HETATM   13  N3  UNK     1      17.724   8.354  33.520  1.00  0.00    -0.224 NA
BRANCH  12  14
HETATM   14  C21 UNK     1      15.977  10.091  33.862  1.00  0.00     0.017 A 
HETATM   15  C23 UNK     1      15.039   9.616  32.946  1.00  0.00     0.018 A 
HETATM   16  C25 UNK     1      13.748  10.143  32.931  1.00  0.00     0.037 A 
HETATM   17  C27 UNK     1      13.393  11.145  33.835  1.00  0.00     0.068 A 
HETATM   18  C26 UNK     1      14.331  11.620  34.753  1.00  0.00     0.037 A 
HETATM   19  C24 UNK     1      15.622  11.093  34.766  1.00  0.00     0.018 A 
BRANCH  17  20
HETATM   20  O4  UNK     1      12.134  11.659  33.822  1.00  0.00    -0.356 OA
HETATM   21  C28 UNK     1      11.911  12.852  34.573  1.00  0.00     0.210 C 
ENDBRANCH  17  20
ENDBRANCH  12  14
ENDBRANCH   7   8
ENDBRANCH   2   7
BRANCH   1  22
HETATM   22  C5  UNK     1      18.139   2.707  30.626  1.00  0.00     0.312 C 
BRANCH  22  23
HETATM   23  C7  UNK     1      18.837   1.394  30.551  1.00  0.00    -0.011 A 
HETATM   24  C10 UNK     1      19.460   1.004  29.430  1.00  0.00     0.092 A 
HETATM   25  C15 UNK     1      20.163  -0.283  29.308  1.00  0.00     0.288 A 
HETATM   26  O2  UNK     1      20.162  -1.102  30.426  1.00  0.00    -0.275 OA
HETATM   27  O3  UNK     1      20.724  -0.606  28.266  1.00  0.00    -0.260 OA
HETATM   28  C12 UNK     1      19.517  -0.719  31.619  1.00  0.00     0.090 A 
HETATM   29  C9  UNK     1      18.853   0.504  31.720  1.00  0.00     0.007 A 
HETATM   30  C17 UNK     1      19.578  -1.624  32.681  1.00  0.00     0.039 A 
HETATM   31  C13 UNK     1      18.235   0.810  32.940  1.00  0.00     0.022 A 
HETATM   32  C14 UNK     1      18.289  -0.085  34.013  1.00  0.00    -0.058 A 
HETATM   33  C19 UNK     1      18.959  -1.301  33.884  1.00  0.00     0.010 A 
BRANCH  32  34
HETATM   34  C20 UNK     1      17.625   0.261  35.303  1.00  0.00     0.034 C 
HETATM   35  C22 UNK     1      16.103   0.181  35.212  1.00  0.00     0.010 C 
ENDBRANCH  32  34
ENDBRANCH  22  23
ENDBRANCH   1  22
TORSDOF 7
ENDMDL
MODEL 5
REMARK VINA RESULT:     -10.2      6.573     11.751
REMARK  7 active torsions:
REMARK  status: ('A' for Active; 'I' for Inactive)
REMARK    1  A    between atoms: C27_34  and  O4_4 
REMARK    2  A    between atoms: C5_12  and  N1_5 
REMARK    3  A    between atoms: C6_13  and  N2_6 
REMARK    4  A    between atoms: C5_12  and  C7_14 
REMARK    5  A    between atoms: C6_13  and  C8_15 
REMARK    6  A    between atoms: C14_21  and  C20_27 
REMARK    7  A    between atoms: C16_23  and  C21_28 
ROOT
HETATM    1  N1  UNK     1      16.153   8.823  33.540  1.00  0.00     0.096 N 
HETATM    2  N2  UNK     1      17.479   6.445  32.568  1.00  0.00     0.097 N 
HETATM    3  C1  UNK     1      15.418   7.568  33.340  1.00  0.00     0.303 C 
HETATM    4  C2  UNK     1      17.557   8.547  33.865  1.00  0.00     0.303 C 
HETATM    5  C3  UNK     1      16.075   6.720  32.244  1.00  0.00     0.303 C 
HETATM    6  C4  UNK     1      18.214   7.699  32.771  1.00  0.00     0.303 C 
ENDROOT
BRANCH   2   7
HETATM    7  C6  UNK     1      18.105   5.640  31.522  1.00  0.00     0.334 C 
BRANCH   7   8
HETATM    8  C8  UNK     1      18.164   4.213  31.967  1.00  0.00     0.095 A 
HETATM    9  C11 UNK     1      18.267   3.075  31.208  1.00  0.00     0.078 A 
HETATM   10  O1  UNK     1      18.285   2.007  32.053  1.00  0.00    -0.294 OA
HETATM   11  C18 UNK     1      18.357   2.791  29.771  1.00  0.00     0.079 C 
HETATM   12  C16 UNK     1      18.190   2.576  33.285  1.00  0.00     0.180 A 
HETATM   13  N3  UNK     1      18.115   3.888  33.298  1.00  0.00    -0.224 NA
BRANCH  12  14
HETATM   14  C21 UNK     1      18.186   1.652  34.386  1.00  0.00     0.017 A 
HETATM   15  C23 UNK     1      18.068   2.125  35.693  1.00  0.00     0.018 A 
HETATM   16  C25 UNK     1      18.064   1.228  36.762  1.00  0.00     0.037 A 
HETATM   17  C27 UNK     1      18.177  -0.142  36.523  1.00  0.00     0.068 A 
HETATM   18  C26 UNK     1      18.295  -0.614  35.216  1.00  0.00     0.037 A 
HETATM   19  C24 UNK     1      18.300   0.283  34.148  1.00  0.00     0.018 A 
BRANCH  17  20
HETATM   20  O4  UNK     1      18.174  -1.017  37.565  1.00  0.00    -0.356 OA
HETATM   21  C28 UNK     1      18.724  -2.311  37.328  1.00  0.00     0.210 C 
ENDBRANCH  17  20
ENDBRANCH  12  14
ENDBRANCH   7   8
ENDBRANCH   2   7
BRANCH   1  22
HETATM   22  C5  UNK     1      15.526   9.630  34.585  1.00  0.00     0.312 C 
BRANCH  22  23
HETATM   23  C7  UNK     1      14.729  10.756  34.023  1.00  0.00    -0.011 A 
HETATM   24  C10 UNK     1      13.446  10.588  33.670  1.00  0.00     0.092 A 
HETATM   25  C15 UNK     1      12.619  11.669  33.111  1.00  0.00     0.288 A 
HETATM   26  O2  UNK     1      13.228  12.905  32.959  1.00  0.00    -0.275 OA
HETATM   27  O3  UNK     1      11.447  11.479  32.802  1.00  0.00    -0.260 OA
HETATM   28  C12 UNK     1      14.575  13.112  33.322  1.00  0.00     0.090 A 
HETATM   29  C9  UNK     1      15.347  12.077  33.849  1.00  0.00     0.007 A 
HETATM   30  C17 UNK     1      15.085  14.397  33.123  1.00  0.00     0.039 A 
HETATM   31  C13 UNK     1      16.678  12.363  34.183  1.00  0.00     0.022 A 
HETATM   32  C14 UNK     1      17.203  13.646  33.991  1.00  0.00    -0.058 A 
HETATM   33  C19 UNK     1      16.407  14.662  33.461  1.00  0.00     0.010 A 
BRANCH  32  34
HETATM   34  C20 UNK     1      18.622  13.929  34.354  1.00  0.00     0.034 C 
HETATM   35  C22 UNK     1      19.112  15.258  33.785  1.00  0.00     0.010 C 
ENDBRANCH  32  34
ENDBRANCH  22  23
ENDBRANCH   1  22
TORSDOF 7
ENDMDL
MODEL 6
REMARK VINA RESULT:     -10.2     24.853     28.316
REMARK  7 active torsions:
REMARK  status: ('A' for Active; 'I' for Inactive)
REMARK    1  A    between atoms: C27_34  and  O4_4 
REMARK    2  A    between atoms: C5_12  and  N1_5 
REMARK    3  A    between atoms: C6_13  and  N2_6 
REMARK    4  A    between atoms: C5_12  and  C7_14 
REMARK    5  A    between atoms: C6_13  and  C8_15 
REMARK    6  A    between atoms: C14_21  and  C20_27 
REMARK    7  A    between atoms: C16_23  and  C21_28 
ROOT
HETATM    1  N1  UNK     1      11.798   6.331   7.478  1.00  0.00     0.096 N 
HETATM    2  N2  UNK     1       9.012   6.124   8.224  1.00  0.00     0.097 N 
HETATM    3  C1  UNK     1      10.745   6.968   6.677  1.00  0.00     0.303 C 
HETATM    4  C2  UNK     1      11.390   6.247   8.886  1.00  0.00     0.303 C 
HETATM    5  C3  UNK     1       9.420   6.209   6.817  1.00  0.00     0.303 C 
HETATM    6  C4  UNK     1      10.064   5.490   9.026  1.00  0.00     0.303 C 
ENDROOT
BRANCH   2   7
HETATM    7  C6  UNK     1       7.750   5.399   8.356  1.00  0.00     0.334 C 
BRANCH   7   8
HETATM    8  C8  UNK     1       7.257   5.520   9.762  1.00  0.00     0.095 A 
HETATM    9  C11 UNK     1       7.147   6.640  10.546  1.00  0.00     0.078 A 
HETATM   10  O1  UNK     1       6.646   6.260  11.755  1.00  0.00    -0.294 OA
HETATM   11  C18 UNK     1       7.438   8.066  10.363  1.00  0.00     0.079 C 
HETATM   12  C16 UNK     1       6.484   4.915  11.621  1.00  0.00     0.180 A 
HETATM   13  N3  UNK     1       6.830   4.417  10.456  1.00  0.00    -0.224 NA
BRANCH  12  14
HETATM   14  C21 UNK     1       5.957   4.246  12.779  1.00  0.00     0.017 A 
HETATM   15  C23 UNK     1       5.392   2.977  12.654  1.00  0.00     0.018 A 
HETATM   16  C25 UNK     1       4.881   2.327  13.778  1.00  0.00     0.037 A 
HETATM   17  C27 UNK     1       4.936   2.946  15.026  1.00  0.00     0.068 A 
HETATM   18  C26 UNK     1       5.502   4.215  15.152  1.00  0.00     0.037 A 
HETATM   19  C24 UNK     1       6.012   4.865  14.028  1.00  0.00     0.018 A 
BRANCH  17  20
HETATM   20  O4  UNK     1       4.438   2.313  16.123  1.00  0.00    -0.356 OA
HETATM   21  C28 UNK     1       5.325   1.451  16.835  1.00  0.00     0.210 C 
ENDBRANCH  17  20
ENDBRANCH  12  14
ENDBRANCH   7   8
ENDBRANCH   2   7
BRANCH   1  22
HETATM   22  C5  UNK     1      13.060   7.054   7.345  1.00  0.00     0.312 C 
BRANCH  22  23
HETATM   23  C7  UNK     1      14.015   6.726   8.440  1.00  0.00    -0.011 A 
HETATM   24  C10 UNK     1      14.525   5.493   8.567  1.00  0.00     0.092 A 
HETATM   25  C15 UNK     1      15.471   5.121   9.632  1.00  0.00     0.288 A 
HETATM   26  O2  UNK     1      15.828   6.120  10.525  1.00  0.00    -0.275 OA
HETATM   27  O3  UNK     1      15.920   3.983   9.716  1.00  0.00    -0.260 OA
HETATM   28  C12 UNK     1      15.308   7.426  10.416  1.00  0.00     0.090 A 
HETATM   29  C9  UNK     1      14.411   7.763   9.402  1.00  0.00     0.007 A 
HETATM   30  C17 UNK     1      15.736   8.350  11.371  1.00  0.00     0.039 A 
HETATM   31  C13 UNK     1      13.939   9.082   9.363  1.00  0.00     0.022 A 
HETATM   32  C14 UNK     1      14.360  10.020  10.313  1.00  0.00    -0.058 A 
HETATM   33  C19 UNK     1      15.256   9.655  11.316  1.00  0.00     0.010 A 
BRANCH  32  34
HETATM   34  C20 UNK     1      13.845  11.419  10.253  1.00  0.00     0.034 C 
HETATM   35  C22 UNK     1      12.377  11.515  10.660  1.00  0.00     0.010 C 
ENDBRANCH  32  34
ENDBRANCH  22  23
ENDBRANCH   1  22
TORSDOF 7
ENDMDL
MODEL 7
REMARK VINA RESULT:     -10.1      6.894     12.088
REMARK  7 active torsions:
REMARK  status: ('A' for Active; 'I' for Inactive)
REMARK    1  A    between atoms: C27_34  and  O4_4 
REMARK    2  A    between atoms: C5_12  and  N1_5 
REMARK    3  A    between atoms: C6_13  and  N2_6 
REMARK    4  A    between atoms: C5_12  and  C7_14 
REMARK    5  A    between atoms: C6_13  and  C8_15 
REMARK    6  A    between atoms: C14_21  and  C20_27 
REMARK    7  A    between atoms: C16_23  and  C21_28 
ROOT
HETATM    1  N1  UNK     1      28.845  -7.617  36.214  1.00  0.00     0.096 N 
HETATM    2  N2  UNK     1      26.680  -9.522  36.416  1.00  0.00     0.097 N 
HETATM    3  C1  UNK     1      28.367  -8.355  35.039  1.00  0.00     0.303 C 
HETATM    4  C2  UNK     1      27.756  -7.433  37.181  1.00  0.00     0.303 C 
HETATM    5  C3  UNK     1      27.768  -9.705  35.449  1.00  0.00     0.303 C 
HETATM    6  C4  UNK     1      27.156  -8.782  37.590  1.00  0.00     0.303 C 
ENDROOT
BRANCH   2   7
HETATM    7  C6  UNK     1      26.111 -10.810  36.809  1.00  0.00     0.334 C 
BRANCH   7   8
HETATM    8  C8  UNK     1      24.671 -10.855  36.411  1.00  0.00     0.095 A 
HETATM    9  C11 UNK     1      23.965 -11.880  35.833  1.00  0.00     0.078 A 
HETATM   10  O1  UNK     1      22.682 -11.460  35.655  1.00  0.00    -0.294 OA
HETATM   11  C18 UNK     1      24.287 -13.244  35.398  1.00  0.00     0.079 C 
HETATM   12  C16 UNK     1      22.695 -10.189  36.143  1.00  0.00     0.180 A 
HETATM   13  N3  UNK     1      23.851  -9.773  36.607  1.00  0.00    -0.224 NA
BRANCH  12  14
HETATM   14  C21 UNK     1      21.438  -9.496  36.075  1.00  0.00     0.017 A 
HETATM   15  C23 UNK     1      20.385  -9.876  36.908  1.00  0.00     0.018 A 
HETATM   16  C25 UNK     1      19.165  -9.203  36.842  1.00  0.00     0.037 A 
HETATM   17  C27 UNK     1      18.998  -8.149  35.944  1.00  0.00     0.068 A 
HETATM   18  C26 UNK     1      20.050  -7.768  35.112  1.00  0.00     0.037 A 
HETATM   19  C24 UNK     1      21.270  -8.442  35.177  1.00  0.00     0.018 A 
BRANCH  17  20
HETATM   20  O4  UNK     1      17.808  -7.493  35.880  1.00  0.00    -0.356 OA
HETATM   21  C28 UNK     1      17.659  -6.335  36.701  1.00  0.00     0.210 C 
ENDBRANCH  17  20
ENDBRANCH  12  14
ENDBRANCH   7   8
ENDBRANCH   2   7
BRANCH   1  22
HETATM   22  C5  UNK     1      29.416  -6.330  35.822  1.00  0.00     0.312 C 
BRANCH  22  23
HETATM   23  C7  UNK     1      30.177  -5.691  36.931  1.00  0.00    -0.011 A 
HETATM   24  C10 UNK     1      29.553  -4.968  37.873  1.00  0.00     0.092 A 
HETATM   25  C15 UNK     1      30.261  -4.318  38.987  1.00  0.00     0.288 A 
HETATM   26  O2  UNK     1      31.637  -4.485  39.033  1.00  0.00    -0.275 OA
HETATM   27  O3  UNK     1      29.657  -3.666  39.831  1.00  0.00    -0.260 OA
HETATM   28  C12 UNK     1      32.320  -5.240  38.058  1.00  0.00     0.090 A 
HETATM   29  C9  UNK     1      31.635  -5.849  37.007  1.00  0.00     0.007 A 
HETATM   30  C17 UNK     1      33.706  -5.340  38.203  1.00  0.00     0.039 A 
HETATM   31  C13 UNK     1      32.387  -6.582  36.078  1.00  0.00     0.022 A 
HETATM   32  C14 UNK     1      33.776  -6.692  36.210  1.00  0.00    -0.058 A 
HETATM   33  C19 UNK     1      34.434  -6.071  37.271  1.00  0.00     0.010 A 
BRANCH  32  34
HETATM   34  C20 UNK     1      34.557  -7.477  35.211  1.00  0.00     0.034 C 
HETATM   35  C22 UNK     1      35.904  -6.833  34.893  1.00  0.00     0.010 C 
ENDBRANCH  32  34
ENDBRANCH  22  23
ENDBRANCH   1  22
TORSDOF 7
ENDMDL
MODEL 8
REMARK VINA RESULT:     -10.0      5.971     14.326
REMARK  7 active torsions:
REMARK  status: ('A' for Active; 'I' for Inactive)
REMARK    1  A    between atoms: C27_34  and  O4_4 
REMARK    2  A    between atoms: C5_12  and  N1_5 
REMARK    3  A    between atoms: C6_13  and  N2_6 
REMARK    4  A    between atoms: C5_12  and  C7_14 
REMARK    5  A    between atoms: C6_13  and  C8_15 
REMARK    6  A    between atoms: C14_21  and  C20_27 
REMARK    7  A    between atoms: C16_23  and  C21_28 
ROOT
HETATM    1  N1  UNK     1      18.705   3.121  31.334  1.00  0.00     0.096 N 
HETATM    2  N2  UNK     1      18.731   5.877  32.209  1.00  0.00     0.097 N 
HETATM    3  C1  UNK     1      17.855   3.578  32.441  1.00  0.00     0.303 C 
HETATM    4  C2  UNK     1      18.949   4.218  30.390  1.00  0.00     0.303 C 
HETATM    5  C3  UNK     1      18.486   4.780  33.153  1.00  0.00     0.303 C 
HETATM    6  C4  UNK     1      19.579   5.421  31.101  1.00  0.00     0.303 C 
ENDROOT
BRANCH   2   7
HETATM    7  C6  UNK     1      19.336   7.021  32.888  1.00  0.00     0.334 C 
BRANCH   7   8
HETATM    8  C8  UNK     1      18.306   8.091  33.062  1.00  0.00     0.095 A 
HETATM    9  C11 UNK     1      17.051   8.180  32.516  1.00  0.00     0.078 A 
HETATM   10  O1  UNK     1      16.479   9.333  32.962  1.00  0.00    -0.294 OA
HETATM   11  C18 UNK     1      16.252   7.344  31.613  1.00  0.00     0.079 C 
HETATM   12  C16 UNK     1      17.439   9.875  33.759  1.00  0.00     0.180 A 
HETATM   13  N3  UNK     1      18.550   9.181  33.858  1.00  0.00    -0.224 NA
BRANCH  12  14
HETATM   14  C21 UNK     1      17.089  11.127  34.372  1.00  0.00     0.017 A 
HETATM   15  C23 UNK     1      18.021  12.163  34.424  1.00  0.00     0.018 A 
HETATM   16  C25 UNK     1      17.681  13.379  35.018  1.00  0.00     0.037 A 
HETATM   17  C27 UNK     1      16.408  13.558  35.560  1.00  0.00     0.068 A 
HETATM   18  C26 UNK     1      15.476  12.522  35.508  1.00  0.00     0.037 A 
HETATM   19  C24 UNK     1      15.816  11.306  34.914  1.00  0.00     0.018 A 
BRANCH  17  20
HETATM   20  O4  UNK     1      16.076  14.743  36.140  1.00  0.00    -0.356 OA
HETATM   21  C28 UNK     1      15.343  14.685  37.363  1.00  0.00     0.210 C 
ENDBRANCH  17  20
ENDBRANCH  12  14
ENDBRANCH   7   8
ENDBRANCH   2   7
BRANCH   1  22
HETATM   22  C5  UNK     1      18.103   1.975  30.656  1.00  0.00     0.312 C 
BRANCH  22  23
HETATM   23  C7  UNK     1      19.037   0.819  30.568  1.00  0.00    -0.011 A 
HETATM   24  C10 UNK     1      19.762   0.597  29.463  1.00  0.00     0.092 A 
HETATM   25  C15 UNK     1      20.697  -0.532  29.329  1.00  0.00     0.288 A 
HETATM   26  O2  UNK     1      20.808  -1.382  30.419  1.00  0.00    -0.275 OA
HETATM   27  O3  UNK     1      21.346  -0.702  28.302  1.00  0.00    -0.260 OA
HETATM   28  C12 UNK     1      20.060  -1.173  31.595  1.00  0.00     0.090 A 
HETATM   29  C9  UNK     1      19.176  -0.100  31.706  1.00  0.00     0.007 A 
HETATM   30  C17 UNK     1      20.250  -2.093  32.628  1.00  0.00     0.039 A 
HETATM   31  C13 UNK     1      18.467   0.038  32.908  1.00  0.00     0.022 A 
HETATM   32  C14 UNK     1      18.649  -0.875  33.953  1.00  0.00    -0.058 A 
HETATM   33  C19 UNK     1      19.539  -1.939  33.813  1.00  0.00     0.010 A 
BRANCH  32  34
HETATM   34  C20 UNK     1      17.885  -0.710  35.224  1.00  0.00     0.034 C 
HETATM   35  C22 UNK     1      16.405  -0.430  34.979  1.00  0.00     0.010 C 
ENDBRANCH  32  34
ENDBRANCH  22  23
ENDBRANCH   1  22
TORSDOF 7
ENDMDL
MODEL 9
REMARK VINA RESULT:     -10.0     11.044     14.191
REMARK  7 active torsions:
REMARK  status: ('A' for Active; 'I' for Inactive)
REMARK    1  A    between atoms: C27_34  and  O4_4 
REMARK    2  A    between atoms: C5_12  and  N1_5 
REMARK    3  A    between atoms: C6_13  and  N2_6 
REMARK    4  A    between atoms: C5_12  and  C7_14 
REMARK    5  A    between atoms: C6_13  and  C8_15 
REMARK    6  A    between atoms: C14_21  and  C20_27 
REMARK    7  A    between atoms: C16_23  and  C21_28 
ROOT
HETATM    1  N1  UNK     1      32.926  -8.446  29.147  1.00  0.00     0.096 N 
HETATM    2  N2  UNK     1      33.966  -8.508  31.844  1.00  0.00     0.097 N 
HETATM    3  C1  UNK     1      32.367  -9.350  30.160  1.00  0.00     0.303 C 
HETATM    4  C2  UNK     1      33.468  -7.239  29.783  1.00  0.00     0.303 C 
HETATM    5  C3  UNK     1      33.423  -9.714  31.209  1.00  0.00     0.303 C 
HETATM    6  C4  UNK     1      34.524  -7.602  30.833  1.00  0.00     0.303 C 
ENDROOT
BRANCH   2   7
HETATM    7  C6  UNK     1      34.975  -8.856  32.842  1.00  0.00     0.334 C 
BRANCH   7   8
HETATM    8  C8  UNK     1      34.822  -7.962  34.031  1.00  0.00     0.095 A 
HETATM    9  C11 UNK     1      35.789  -7.307  34.750  1.00  0.00     0.078 A 
HETATM   10  O1  UNK     1      35.174  -6.610  35.745  1.00  0.00    -0.294 OA
HETATM   11  C18 UNK     1      37.252  -7.210  34.673  1.00  0.00     0.079 C 
HETATM   12  C16 UNK     1      33.855  -6.893  35.561  1.00  0.00     0.180 A 
HETATM   13  N3  UNK     1      33.584  -7.692  34.554  1.00  0.00    -0.224 NA
BRANCH  12  14
HETATM   14  C21 UNK     1      32.960  -6.270  36.498  1.00  0.00     0.017 A 
HETATM   15  C23 UNK     1      31.601  -6.167  36.201  1.00  0.00     0.018 A 
HETATM   16  C25 UNK     1      30.733  -5.563  37.111  1.00  0.00     0.037 A 
HETATM   17  C27 UNK     1      31.223  -5.064  38.317  1.00  0.00     0.068 A 
HETATM   18  C26 UNK     1      32.582  -5.169  38.615  1.00  0.00     0.037 A 
HETATM   19  C24 UNK     1      33.451  -5.772  37.704  1.00  0.00     0.018 A 
BRANCH  17  20
HETATM   20  O4  UNK     1      30.377  -4.476  39.205  1.00  0.00    -0.356 OA
HETATM   21  C28 UNK     1      29.019  -4.313  38.798  1.00  0.00     0.210 C 
ENDBRANCH  17  20
ENDBRANCH  12  14
ENDBRANCH   7   8
ENDBRANCH   2   7
BRANCH   1  22
HETATM   22  C5  UNK     1      31.918  -8.099  28.147  1.00  0.00     0.312 C 
BRANCH  22  23
HETATM   23  C7  UNK     1      30.550  -8.520  28.558  1.00  0.00    -0.011 A 
HETATM   24  C10 UNK     1      30.030  -9.685  28.144  1.00  0.00     0.092 A 
HETATM   25  C15 UNK     1      28.684 -10.143  28.523  1.00  0.00     0.288 A 
HETATM   26  O2  UNK     1      27.951  -9.306  29.350  1.00  0.00    -0.275 OA
HETATM   27  O3  UNK     1      28.242 -11.216  28.127  1.00  0.00    -0.260 OA
HETATM   28  C12 UNK     1      28.471  -8.076  29.802  1.00  0.00     0.090 A 
HETATM   29  C9  UNK     1      29.748  -7.654  29.433  1.00  0.00     0.007 A 
HETATM   30  C17 UNK     1      27.643  -7.314  30.629  1.00  0.00     0.039 A 
HETATM   31  C13 UNK     1      30.192  -6.419  29.924  1.00  0.00     0.022 A 
HETATM   32  C14 UNK     1      29.375  -5.644  30.754  1.00  0.00    -0.058 A 
HETATM   33  C19 UNK     1      28.102  -6.091  31.106  1.00  0.00     0.010 A 
BRANCH  32  34
HETATM   34  C20 UNK     1      29.867  -4.332  31.265  1.00  0.00     0.034 C 
HETATM   35  C22 UNK     1      30.008  -3.293  30.156  1.00  0.00     0.010 C 
ENDBRANCH  32  34
ENDBRANCH  22  23
ENDBRANCH   1  22
TORSDOF 7
ENDMDL
MODEL 10
REMARK VINA RESULT:     -10.0      8.060     11.456
REMARK  7 active torsions:
REMARK  status: ('A' for Active; 'I' for Inactive)
REMARK    1  A    between atoms: C27_34  and  O4_4 
REMARK    2  A    between atoms: C5_12  and  N1_5 
REMARK    3  A    between atoms: C6_13  and  N2_6 
REMARK    4  A    between atoms: C5_12  and  C7_14 
REMARK    5  A    between atoms: C6_13  and  C8_15 
REMARK    6  A    between atoms: C14_21  and  C20_27 
REMARK    7  A    between atoms: C16_23  and  C21_28 
ROOT
HETATM    1  N1  UNK     1      30.439  -6.660  35.210  1.00  0.00     0.096 N 
HETATM    2  N2  UNK     1      29.037  -7.079  37.703  1.00  0.00     0.097 N 
HETATM    3  C1  UNK     1      31.166  -6.896  36.463  1.00  0.00     0.303 C 
HETATM    4  C2  UNK     1      29.129  -7.323  35.246  1.00  0.00     0.303 C 
HETATM    5  C3  UNK     1      30.347  -6.418  37.667  1.00  0.00     0.303 C 
HETATM    6  C4  UNK     1      28.310  -6.847  36.450  1.00  0.00     0.303 C 
ENDROOT
BRANCH   2   7
HETATM    7  C6  UNK     1      28.255  -6.621  38.850  1.00  0.00     0.334 C 
BRANCH   7   8
HETATM    8  C8  UNK     1      27.011  -7.443  38.959  1.00  0.00     0.095 A 
HETATM    9  C11 UNK     1      26.862  -8.732  39.403  1.00  0.00     0.078 A 
HETATM   10  O1  UNK     1      25.542  -9.056  39.320  1.00  0.00    -0.294 OA
HETATM   11  C18 UNK     1      27.772  -9.764  39.915  1.00  0.00     0.079 C 
HETATM   12  C16 UNK     1      24.969  -7.926  38.823  1.00  0.00     0.180 A 
HETATM   13  N3  UNK     1      25.794  -6.930  38.588  1.00  0.00    -0.224 NA
BRANCH  12  14
HETATM   14  C21 UNK     1      23.546  -7.995  38.632  1.00  0.00     0.017 A 
HETATM   15  C23 UNK     1      22.686  -7.486  39.605  1.00  0.00     0.018 A 
HETATM   16  C25 UNK     1      21.305  -7.553  39.420  1.00  0.00     0.037 A 
HETATM   17  C27 UNK     1      20.785  -8.128  38.260  1.00  0.00     0.068 A 
HETATM   18  C26 UNK     1      21.645  -8.636  37.287  1.00  0.00     0.037 A 
HETATM   19  C24 UNK     1      23.026  -8.570  37.473  1.00  0.00     0.018 A 
BRANCH  17  20
HETATM   20  O4  UNK     1      19.438  -8.193  38.079  1.00  0.00    -0.356 OA
HETATM   21  C28 UNK     1      18.971  -8.392  36.745  1.00  0.00     0.210 C 
ENDBRANCH  17  20
ENDBRANCH  12  14
ENDBRANCH   7   8
ENDBRANCH   2   7
BRANCH   1  22
HETATM   22  C5  UNK     1      31.220  -7.116  34.062  1.00  0.00     0.312 C 
BRANCH  22  23
HETATM   23  C7  UNK     1      30.691  -6.587  32.775  1.00  0.00    -0.011 A 
HETATM   24  C10 UNK     1      30.521  -5.270  32.585  1.00  0.00     0.092 A 
HETATM   25  C15 UNK     1      30.001  -4.700  31.332  1.00  0.00     0.288 A 
HETATM   26  O2  UNK     1      29.685  -5.598  30.323  1.00  0.00    -0.275 OA
HETATM   27  O3  UNK     1      29.861  -3.490  31.193  1.00  0.00    -0.260 OA
HETATM   28  C12 UNK     1      29.854  -6.987  30.493  1.00  0.00     0.090 A 
HETATM   29  C9  UNK     1      30.346  -7.513  31.688  1.00  0.00     0.007 A 
HETATM   30  C17 UNK     1      29.501  -7.797  29.411  1.00  0.00     0.039 A 
HETATM   31  C13 UNK     1      30.483  -8.905  31.779  1.00  0.00     0.022 A 
HETATM   32  C14 UNK     1      30.136  -9.729  30.703  1.00  0.00    -0.058 A 
HETATM   33  C19 UNK     1      29.645  -9.175  29.521  1.00  0.00     0.010 A 
BRANCH  32  34
HETATM   34  C20 UNK     1      30.289 -11.208  30.820  1.00  0.00     0.034 C 
HETATM   35  C22 UNK     1      30.135 -11.695  32.259  1.00  0.00     0.010 C 
ENDBRANCH  32  34
ENDBRANCH  22  23
ENDBRANCH   1  22
TORSDOF 7
ENDMDL
