MODEL 1
REMARK VINA RESULT:      -9.5      0.000      0.000
REMARK  5 active torsions:
REMARK  status: ('A' for Active; 'I' for Inactive)
REMARK    1  A    between atoms: C3_10  and  O1_2 
REMARK    2  A    between atoms: C4_11  and  O1_2 
REMARK    3  A    between atoms: C13_20  and  O3_4 
REMARK    4  A    between atoms: C18_25  and  O3_4 
REMARK    5  A    between atoms: C18_25  and  C19_26 
ROOT
HETATM    1  O2  UNK     1      20.023  -2.064  34.554  1.00  0.00    -0.319 OA
HETATM    2  O4  UNK     1      18.872  -2.013  38.472  1.00  0.00    -0.284 OA
HETATM    3  C1  UNK     1      18.664  -1.073  36.313  1.00  0.00     0.051 A 
HETATM    4  C2  UNK     1      19.099  -1.143  34.987  1.00  0.00     0.092 A 
HETATM    5  C4  UNK     1      20.204  -2.993  36.779  1.00  0.00     0.149 A 
HETATM    6  C7  UNK     1      19.214  -2.023  37.298  1.00  0.00     0.220 A 
HETATM    7  C11 UNK     1      17.721  -0.117  36.696  1.00  0.00     0.021 A 
HETATM    8  C12 UNK     1      18.592  -0.255  34.038  1.00  0.00     0.075 A 
HETATM    9  C13 UNK     1      17.650   0.702  34.418  1.00  0.00     0.082 A 
HETATM   10  C14 UNK     1      17.217   0.770  35.744  1.00  0.00     0.038 A 
HETATM   11  C15 UNK     1      20.526  -2.942  35.484  1.00  0.00     0.184 A 
ENDROOT
BRANCH   5  12
HETATM   12  O1  UNK     1      20.765  -3.913  37.634  1.00  0.00    -0.305 OA
BRANCH  12  13
HETATM   13  C3  UNK     1      20.279  -5.191  37.578  1.00  0.00     0.077 A 
HETATM   14  C8  UNK     1      19.392  -5.549  36.567  1.00  0.00     0.045 A 
HETATM   15  C6  UNK     1      18.897  -6.851  36.510  1.00  0.00    -0.037 A 
HETATM   16  C10 UNK     1      19.290  -7.790  37.464  1.00  0.00     0.046 A 
HETATM   17  C17 UNK     1      17.946  -7.197  35.408  1.00  0.00     0.050 C 
HETATM   18 Cl1  UNK     1      18.674  -9.407  37.394  1.00  0.00    -0.083 Cl
HETATM   19  C5  UNK     1      20.179  -7.425  38.476  1.00  0.00    -0.037 A 
HETATM   20  C16 UNK     1      20.628  -8.397  39.519  1.00  0.00     0.050 C 
HETATM   21  C9  UNK     1      20.674  -6.122  38.533  1.00  0.00     0.045 A 
ENDBRANCH  12  13
ENDBRANCH   5  12
BRANCH   9  22
HETATM   22  O3  UNK     1      17.154   1.571  33.496  1.00  0.00    -0.273 OA
BRANCH  22  23
HETATM   23  C18 UNK     1      17.971   2.677  33.250  1.00  0.00     0.322 C 
HETATM   24  O6  UNK     1      18.393   3.451  34.095  1.00  0.00    -0.257 OA
BRANCH  23  25
HETATM   25  C19 UNK     1      18.283   2.803  31.803  1.00  0.00     0.150 A 
HETATM   26  O5  UNK     1      18.315   1.660  31.122  1.00  0.00    -0.317 OA
HETATM   27  C22 UNK     1      18.614   2.036  29.851  1.00  0.00     0.143 A 
HETATM   28  C21 UNK     1      18.761   3.402  29.773  1.00  0.00     0.027 A 
HETATM   29  C20 UNK     1      18.537   3.897  31.080  1.00  0.00     0.045 A 
ENDBRANCH  23  25
ENDBRANCH  22  23
ENDBRANCH   9  22
TORSDOF 5
ENDMDL
MODEL 2
REMARK VINA RESULT:      -9.5     26.515     28.506
REMARK  5 active torsions:
REMARK  status: ('A' for Active; 'I' for Inactive)
REMARK    1  A    between atoms: C3_10  and  O1_2 
REMARK    2  A    between atoms: C4_11  and  O1_2 
REMARK    3  A    between atoms: C13_20  and  O3_4 
REMARK    4  A    between atoms: C18_25  and  O3_4 
REMARK    5  A    between atoms: C18_25  and  C19_26 
ROOT
HETATM    1  O2  UNK     1      10.516   4.407   9.957  1.00  0.00    -0.319 OA
HETATM    2  O4  UNK     1       8.544   6.885   7.378  1.00  0.00    -0.284 OA
HETATM    3  C1  UNK     1      10.607   6.000   8.120  1.00  0.00     0.051 A 
HETATM    4  C2  UNK     1      11.222   5.135   9.029  1.00  0.00     0.092 A 
HETATM    5  C4  UNK     1       8.430   5.338   9.166  1.00  0.00     0.149 A 
HETATM    6  C7  UNK     1       9.140   6.145   8.149  1.00  0.00     0.220 A 
HETATM    7  C11 UNK     1      11.375   6.714   7.198  1.00  0.00     0.021 A 
HETATM    8  C12 UNK     1      12.608   4.981   9.018  1.00  0.00     0.075 A 
HETATM    9  C13 UNK     1      13.378   5.695   8.098  1.00  0.00     0.082 A 
HETATM   10  C14 UNK     1      12.762   6.559   7.191  1.00  0.00     0.038 A 
HETATM   11  C15 UNK     1       9.150   4.552   9.971  1.00  0.00     0.184 A 
ENDROOT
BRANCH   5  12
HETATM   12  O1  UNK     1       7.060   5.416   9.259  1.00  0.00    -0.305 OA
BRANCH  12  13
HETATM   13  C3  UNK     1       6.513   5.287  10.505  1.00  0.00     0.077 A 
HETATM   14  C8  UNK     1       6.009   4.056  10.915  1.00  0.00     0.045 A 
HETATM   15  C6  UNK     1       5.451   3.925  12.187  1.00  0.00    -0.037 A 
HETATM   16  C10 UNK     1       5.399   5.026  13.043  1.00  0.00     0.046 A 
HETATM   17  C17 UNK     1       4.922   2.586  12.590  1.00  0.00     0.050 C 
HETATM   18 Cl1  UNK     1       4.707   4.864  14.622  1.00  0.00    -0.083 Cl
HETATM   19  C5  UNK     1       5.905   6.258  12.626  1.00  0.00    -0.037 A 
HETATM   20  C16 UNK     1       5.872   7.463  13.509  1.00  0.00     0.050 C 
HETATM   21  C9  UNK     1       6.463   6.389  11.355  1.00  0.00     0.045 A 
ENDBRANCH  12  13
ENDBRANCH   5  12
BRANCH   9  22
HETATM   22  O3  UNK     1      14.731   5.548   8.086  1.00  0.00    -0.273 OA
BRANCH  22  23
HETATM   23  C18 UNK     1      15.289   5.260   9.334  1.00  0.00     0.322 C 
HETATM   24  O6  UNK     1      15.447   4.142   9.802  1.00  0.00    -0.257 OA
BRANCH  23  25
HETATM   25  C19 UNK     1      15.689   6.502  10.044  1.00  0.00     0.150 A 
HETATM   26  O5  UNK     1      14.888   6.878  11.037  1.00  0.00    -0.317 OA
HETATM   27  C22 UNK     1      15.459   8.015  11.514  1.00  0.00     0.143 A 
HETATM   28  C21 UNK     1      16.599   8.318  10.807  1.00  0.00     0.027 A 
HETATM   29  C20 UNK     1      16.739   7.302   9.833  1.00  0.00     0.045 A 
ENDBRANCH  23  25
ENDBRANCH  22  23
ENDBRANCH   9  22
TORSDOF 5
ENDMDL
MODEL 3
REMARK VINA RESULT:      -9.4     26.539     28.534
REMARK  5 active torsions:
REMARK  status: ('A' for Active; 'I' for Inactive)
REMARK    1  A    between atoms: C3_10  and  O1_2 
REMARK    2  A    between atoms: C4_11  and  O1_2 
REMARK    3  A    between atoms: C13_20  and  O3_4 
REMARK    4  A    between atoms: C18_25  and  O3_4 
REMARK    5  A    between atoms: C18_25  and  C19_26 
ROOT
HETATM    1  O2  UNK     1      10.575   4.463   9.933  1.00  0.00    -0.319 OA
HETATM    2  O4  UNK     1       8.620   6.917   7.318  1.00  0.00    -0.284 OA
HETATM    3  C1  UNK     1      10.678   6.039   8.081  1.00  0.00     0.051 A 
HETATM    4  C2  UNK     1      11.287   5.183   9.003  1.00  0.00     0.092 A 
HETATM    5  C4  UNK     1       8.494   5.387   9.119  1.00  0.00     0.149 A 
HETATM    6  C7  UNK     1       9.211   6.185   8.099  1.00  0.00     0.220 A 
HETATM    7  C11 UNK     1      11.452   6.744   7.158  1.00  0.00     0.021 A 
HETATM    8  C12 UNK     1      12.673   5.029   9.003  1.00  0.00     0.075 A 
HETATM    9  C13 UNK     1      13.449   5.733   8.082  1.00  0.00     0.082 A 
HETATM   10  C14 UNK     1      12.839   6.589   7.162  1.00  0.00     0.038 A 
HETATM   11  C15 UNK     1       9.208   4.609   9.936  1.00  0.00     0.184 A 
ENDROOT
BRANCH   5  12
HETATM   12  O1  UNK     1       7.123   5.466   9.202  1.00  0.00    -0.305 OA
BRANCH  12  13
HETATM   13  C3  UNK     1       6.566   5.318  10.442  1.00  0.00     0.077 A 
HETATM   14  C8  UNK     1       6.483   6.413  11.297  1.00  0.00     0.045 A 
HETATM   15  C6  UNK     1       5.915   6.263  12.562  1.00  0.00    -0.037 A 
HETATM   16  C10 UNK     1       5.431   5.018  12.966  1.00  0.00     0.046 A 
HETATM   17  C17 UNK     1       5.844   7.463  13.451  1.00  0.00     0.050 C 
HETATM   18 Cl1  UNK     1       4.725   4.831  14.536  1.00  0.00    -0.083 Cl
HETATM   19  C5  UNK     1       5.517   3.924  12.104  1.00  0.00    -0.037 A 
HETATM   20  C16 UNK     1       5.011   2.572  12.494  1.00  0.00     0.050 C 
HETATM   21  C9  UNK     1       6.085   4.074  10.840  1.00  0.00     0.045 A 
ENDBRANCH  12  13
ENDBRANCH   5  12
BRANCH   9  22
HETATM   22  O3  UNK     1      14.802   5.587   8.080  1.00  0.00    -0.273 OA
BRANCH  22  23
HETATM   23  C18 UNK     1      15.353   5.320   9.336  1.00  0.00     0.322 C 
HETATM   24  O6  UNK     1      15.542   4.209   9.808  1.00  0.00    -0.257 OA
BRANCH  23  25
HETATM   25  C19 UNK     1      15.701   6.576  10.048  1.00  0.00     0.150 A 
HETATM   26  O5  UNK     1      14.882   6.920  11.038  1.00  0.00    -0.317 OA
HETATM   27  C22 UNK     1      15.406   8.078  11.519  1.00  0.00     0.143 A 
HETATM   28  C21 UNK     1      16.536   8.426  10.816  1.00  0.00     0.027 A 
HETATM   29  C20 UNK     1      16.719   7.416   9.841  1.00  0.00     0.045 A 
ENDBRANCH  23  25
ENDBRANCH  22  23
ENDBRANCH   9  22
TORSDOF 5
ENDMDL
MODEL 4
REMARK VINA RESULT:      -9.2      4.188     10.055
REMARK  5 active torsions:
REMARK  status: ('A' for Active; 'I' for Inactive)
REMARK    1  A    between atoms: C3_10  and  O1_2 
REMARK    2  A    between atoms: C4_11  and  O1_2 
REMARK    3  A    between atoms: C13_20  and  O3_4 
REMARK    4  A    between atoms: C18_25  and  O3_4 
REMARK    5  A    between atoms: C18_25  and  C19_26 
ROOT
HETATM    1  O2  UNK     1      21.822  -5.938  37.277  1.00  0.00    -0.319 OA
HETATM    2  O4  UNK     1      17.828  -5.302  36.701  1.00  0.00    -0.284 OA
HETATM    3  C1  UNK     1      19.616  -6.847  36.798  1.00  0.00     0.051 A 
HETATM    4  C2  UNK     1      20.989  -6.998  37.005  1.00  0.00     0.092 A 
HETATM    5  C4  UNK     1      19.964  -4.394  37.169  1.00  0.00     0.149 A 
HETATM    6  C7  UNK     1      19.024  -5.498  36.872  1.00  0.00     0.220 A 
HETATM    7  C11 UNK     1      18.818  -7.960  36.526  1.00  0.00     0.021 A 
HETATM    8  C12 UNK     1      21.570  -8.264  36.941  1.00  0.00     0.075 A 
HETATM    9  C13 UNK     1      20.775  -9.378  36.668  1.00  0.00     0.082 A 
HETATM   10  C14 UNK     1      19.403  -9.226  36.462  1.00  0.00     0.038 A 
HETATM   11  C15 UNK     1      21.255  -4.688  37.343  1.00  0.00     0.184 A 
ENDROOT
BRANCH   5  12
HETATM   12  O1  UNK     1      19.492  -3.106  37.255  1.00  0.00    -0.305 OA
BRANCH  12  13
HETATM   13  C3  UNK     1      19.339  -2.420  36.081  1.00  0.00     0.077 A 
HETATM   14  C8  UNK     1      20.129  -2.745  34.983  1.00  0.00     0.045 A 
HETATM   15  C6  UNK     1      19.973  -2.046  33.787  1.00  0.00    -0.037 A 
HETATM   16  C10 UNK     1      19.028  -1.023  33.694  1.00  0.00     0.046 A 
HETATM   17  C17 UNK     1      20.840  -2.426  32.629  1.00  0.00     0.050 C 
HETATM   18 Cl1  UNK     1      18.834  -0.155  32.209  1.00  0.00    -0.083 Cl
HETATM   19  C5  UNK     1      18.239  -0.701  34.799  1.00  0.00    -0.037 A 
HETATM   20  C16 UNK     1      17.214   0.386  34.745  1.00  0.00     0.050 C 
HETATM   21  C9  UNK     1      18.395  -1.401  35.995  1.00  0.00     0.045 A 
ENDBRANCH  12  13
ENDBRANCH   5  12
BRANCH   9  22
HETATM   22  O3  UNK     1      21.339 -10.616  36.603  1.00  0.00    -0.273 OA
BRANCH  22  23
HETATM   23  C18 UNK     1      22.119 -10.833  35.465  1.00  0.00     0.322 C 
HETATM   24  O6  UNK     1      21.750 -10.681  34.310  1.00  0.00    -0.257 OA
BRANCH  23  25
HETATM   25  C19 UNK     1      23.489 -11.275  35.829  1.00  0.00     0.150 A 
HETATM   26  O5  UNK     1      24.304 -10.316  36.262  1.00  0.00    -0.317 OA
HETATM   27  C22 UNK     1      25.470 -10.962  36.525  1.00  0.00     0.143 A 
HETATM   28  C21 UNK     1      25.353 -12.305  36.250  1.00  0.00     0.027 A 
HETATM   29  C20 UNK     1      24.028 -12.496  35.788  1.00  0.00     0.045 A 
ENDBRANCH  23  25
ENDBRANCH  22  23
ENDBRANCH   9  22
TORSDOF 5
ENDMDL
MODEL 5
REMARK VINA RESULT:      -9.1      3.450      9.868
REMARK  5 active torsions:
REMARK  status: ('A' for Active; 'I' for Inactive)
REMARK    1  A    between atoms: C3_10  and  O1_2 
REMARK    2  A    between atoms: C4_11  and  O1_2 
REMARK    3  A    between atoms: C13_20  and  O3_4 
REMARK    4  A    between atoms: C18_25  and  O3_4 
REMARK    5  A    between atoms: C18_25  and  C19_26 
ROOT
HETATM    1  O2  UNK     1      19.469  -0.936  33.472  1.00  0.00    -0.319 OA
HETATM    2  O4  UNK     1      17.166   0.892  36.306  1.00  0.00    -0.284 OA
HETATM    3  C1  UNK     1      18.653  -0.864  35.763  1.00  0.00     0.051 A 
HETATM    4  C2  UNK     1      19.421  -1.442  34.750  1.00  0.00     0.092 A 
HETATM    5  C4  UNK     1      17.945   0.843  34.072  1.00  0.00     0.149 A 
HETATM    6  C7  UNK     1      17.856   0.340  35.461  1.00  0.00     0.220 A 
HETATM    7  C11 UNK     1      18.644  -1.420  37.044  1.00  0.00     0.021 A 
HETATM    8  C12 UNK     1      20.183  -2.580  35.014  1.00  0.00     0.075 A 
HETATM    9  C13 UNK     1      20.175  -3.138  36.292  1.00  0.00     0.082 A 
HETATM   10  C14 UNK     1      19.407  -2.559  37.305  1.00  0.00     0.038 A 
HETATM   11  C15 UNK     1      18.722   0.186  33.206  1.00  0.00     0.184 A 
ENDROOT
BRANCH   5  12
HETATM   12  O1  UNK     1      17.233   1.961  33.708  1.00  0.00    -0.305 OA
BRANCH  12  13
HETATM   13  C3  UNK     1      17.861   2.861  32.892  1.00  0.00     0.077 A 
HETATM   14  C8  UNK     1      18.357   4.047  33.424  1.00  0.00     0.045 A 
HETATM   15  C6  UNK     1      18.998   4.964  32.592  1.00  0.00    -0.037 A 
HETATM   16  C10 UNK     1      19.141   4.691  31.231  1.00  0.00     0.046 A 
HETATM   17  C17 UNK     1      19.518   6.227  33.202  1.00  0.00     0.050 C 
HETATM   18 Cl1  UNK     1      19.936   5.830  30.197  1.00  0.00    -0.083 Cl
HETATM   19  C5  UNK     1      18.641   3.500  30.703  1.00  0.00    -0.037 A 
HETATM   20  C16 UNK     1      18.771   3.166  29.252  1.00  0.00     0.050 C 
HETATM   21  C9  UNK     1      18.000   2.583  31.535  1.00  0.00     0.045 A 
ENDBRANCH  12  13
ENDBRANCH   5  12
BRANCH   9  22
HETATM   22  O3  UNK     1      20.916  -4.250  36.554  1.00  0.00    -0.273 OA
BRANCH  22  23
HETATM   23  C18 UNK     1      20.162  -5.400  36.796  1.00  0.00     0.322 C 
HETATM   24  O6  UNK     1      19.122  -5.702  36.229  1.00  0.00    -0.257 OA
BRANCH  23  25
HETATM   25  C19 UNK     1      20.790  -6.243  37.845  1.00  0.00     0.150 A 
HETATM   26  O5  UNK     1      22.061  -6.574  37.630  1.00  0.00    -0.317 OA
HETATM   27  C22 UNK     1      22.397  -7.329  38.709  1.00  0.00     0.143 A 
HETATM   28  C21 UNK     1      21.330  -7.448  39.568  1.00  0.00     0.027 A 
HETATM   29  C20 UNK     1      20.268  -6.720  38.979  1.00  0.00     0.045 A 
ENDBRANCH  23  25
ENDBRANCH  22  23
ENDBRANCH   9  22
TORSDOF 5
ENDMDL
MODEL 6
REMARK VINA RESULT:      -9.1     13.365     15.729
REMARK  5 active torsions:
REMARK  status: ('A' for Active; 'I' for Inactive)
REMARK    1  A    between atoms: C3_10  and  O1_2 
REMARK    2  A    between atoms: C4_11  and  O1_2 
REMARK    3  A    between atoms: C13_20  and  O3_4 
REMARK    4  A    between atoms: C18_25  and  O3_4 
REMARK    5  A    between atoms: C18_25  and  C19_26 
ROOT
HETATM    1  O2  UNK     1      33.052  -9.136  34.519  1.00  0.00    -0.319 OA
HETATM    2  O4  UNK     1      34.783  -6.178  36.741  1.00  0.00    -0.284 OA
HETATM    3  C1  UNK     1      34.620  -7.280  34.656  1.00  0.00     0.051 A 
HETATM    4  C2  UNK     1      33.991  -8.309  33.950  1.00  0.00     0.092 A 
HETATM    5  C4  UNK     1      33.251  -7.979  36.633  1.00  0.00     0.149 A 
HETATM    6  C7  UNK     1      34.269  -7.063  36.071  1.00  0.00     0.220 A 
HETATM    7  C11 UNK     1      35.567  -6.470  34.025  1.00  0.00     0.021 A 
HETATM    8  C12 UNK     1      34.308  -8.532  32.610  1.00  0.00     0.075 A 
HETATM    9  C13 UNK     1      35.254  -7.724  31.978  1.00  0.00     0.082 A 
HETATM   10  C14 UNK     1      35.882  -6.696  32.685  1.00  0.00     0.038 A 
HETATM   11  C15 UNK     1      32.734  -8.920  35.838  1.00  0.00     0.184 A 
ENDROOT
BRANCH   5  12
HETATM   12  O1  UNK     1      32.867  -7.844  37.947  1.00  0.00    -0.305 OA
BRANCH  12  13
HETATM   13  C3  UNK     1      31.587  -7.422  38.180  1.00  0.00     0.077 A 
HETATM   14  C8  UNK     1      30.553  -8.352  38.235  1.00  0.00     0.045 A 
HETATM   15  C6  UNK     1      29.248  -7.922  38.473  1.00  0.00    -0.037 A 
HETATM   16  C10 UNK     1      28.982  -6.565  38.655  1.00  0.00     0.046 A 
HETATM   17  C17 UNK     1      28.165  -8.952  38.525  1.00  0.00     0.050 C 
HETATM   18 Cl1  UNK     1      27.362  -6.031  38.950  1.00  0.00    -0.083 Cl
HETATM   19  C5  UNK     1      30.023  -5.637  38.598  1.00  0.00    -0.037 A 
HETATM   20  C16 UNK     1      29.785  -4.174  38.788  1.00  0.00     0.050 C 
HETATM   21  C9  UNK     1      31.328  -6.067  38.360  1.00  0.00     0.045 A 
ENDBRANCH  12  13
ENDBRANCH   5  12
BRANCH   9  22
HETATM   22  O3  UNK     1      35.567  -7.939  30.671  1.00  0.00    -0.273 OA
BRANCH  22  23
HETATM   23  C18 UNK     1      35.010  -7.013  29.786  1.00  0.00     0.322 C 
HETATM   24  O6  UNK     1      35.551  -5.991  29.392  1.00  0.00    -0.257 OA
BRANCH  23  25
HETATM   25  C19 UNK     1      33.649  -7.429  29.360  1.00  0.00     0.150 A 
HETATM   26  O5  UNK     1      33.583  -8.578  28.693  1.00  0.00    -0.317 OA
HETATM   27  C22 UNK     1      32.261  -8.733  28.423  1.00  0.00     0.143 A 
HETATM   28  C21 UNK     1      31.537  -7.677  28.926  1.00  0.00     0.027 A 
HETATM   29  C20 UNK     1      32.476  -6.818  29.547  1.00  0.00     0.045 A 
ENDBRANCH  23  25
ENDBRANCH  22  23
ENDBRANCH   9  22
TORSDOF 5
ENDMDL
MODEL 7
REMARK VINA RESULT:      -9.1      4.874     10.982
REMARK  5 active torsions:
REMARK  status: ('A' for Active; 'I' for Inactive)
REMARK    1  A    between atoms: C3_10  and  O1_2 
REMARK    2  A    between atoms: C4_11  and  O1_2 
REMARK    3  A    between atoms: C13_20  and  O3_4 
REMARK    4  A    between atoms: C18_25  and  O3_4 
REMARK    5  A    between atoms: C18_25  and  C19_26 
ROOT
HETATM    1  O2  UNK     1      18.063   3.241  33.595  1.00  0.00    -0.319 OA
HETATM    2  O4  UNK     1      19.030   4.202  29.745  1.00  0.00    -0.284 OA
HETATM    3  C1  UNK     1      18.741   2.514  31.374  1.00  0.00     0.051 A 
HETATM    4  C2  UNK     1      18.399   2.251  32.704  1.00  0.00     0.092 A 
HETATM    5  C4  UNK     1      18.370   4.935  31.897  1.00  0.00     0.149 A 
HETATM    6  C7  UNK     1      18.742   3.909  30.897  1.00  0.00     0.220 A 
HETATM    7  C11 UNK     1      19.073   1.466  30.512  1.00  0.00     0.021 A 
HETATM    8  C12 UNK     1      18.391   0.939  33.176  1.00  0.00     0.075 A 
HETATM    9  C13 UNK     1      18.724  -0.110  32.317  1.00  0.00     0.082 A 
HETATM   10  C14 UNK     1      19.064   0.155  30.989  1.00  0.00     0.038 A 
HETATM   11  C15 UNK     1      18.068   4.536  33.136  1.00  0.00     0.184 A 
ENDROOT
BRANCH   5  12
HETATM   12  O1  UNK     1      18.347   6.261  31.532  1.00  0.00    -0.305 OA
BRANCH  12  13
HETATM   13  C3  UNK     1      17.386   7.047  32.106  1.00  0.00     0.077 A 
HETATM   14  C8  UNK     1      16.042   6.728  31.937  1.00  0.00     0.045 A 
HETATM   15  C6  UNK     1      15.062   7.530  32.522  1.00  0.00    -0.037 A 
HETATM   16  C10 UNK     1      15.430   8.647  33.273  1.00  0.00     0.046 A 
HETATM   17  C17 UNK     1      13.629   7.154  32.318  1.00  0.00     0.050 C 
HETATM   18 Cl1  UNK     1      14.214   9.642  33.999  1.00  0.00    -0.083 Cl
HETATM   19  C5  UNK     1      16.779   8.961  33.438  1.00  0.00    -0.037 A 
HETATM   20  C16 UNK     1      17.220  10.147  34.235  1.00  0.00     0.050 C 
HETATM   21  C9  UNK     1      17.760   8.160  32.853  1.00  0.00     0.045 A 
ENDBRANCH  12  13
ENDBRANCH   5  12
BRANCH   9  22
HETATM   22  O3  UNK     1      18.718  -1.391  32.775  1.00  0.00    -0.273 OA
BRANCH  22  23
HETATM   23  C18 UNK     1      19.937  -1.818  33.306  1.00  0.00     0.322 C 
HETATM   24  O6  UNK     1      20.992  -1.895  32.694  1.00  0.00    -0.257 OA
BRANCH  23  25
HETATM   25  C19 UNK     1      19.803  -2.170  34.743  1.00  0.00     0.150 A 
HETATM   26  O5  UNK     1      20.539  -3.200  35.152  1.00  0.00    -0.317 OA
HETATM   27  C22 UNK     1      20.245  -3.316  36.474  1.00  0.00     0.143 A 
HETATM   28  C21 UNK     1      19.334  -2.358  36.853  1.00  0.00     0.027 A 
HETATM   29  C20 UNK     1      19.051  -1.602  35.690  1.00  0.00     0.045 A 
ENDBRANCH  23  25
ENDBRANCH  22  23
ENDBRANCH   9  22
TORSDOF 5
ENDMDL
MODEL 8
REMARK VINA RESULT:      -9.1     27.529     30.340
REMARK  5 active torsions:
REMARK  status: ('A' for Active; 'I' for Inactive)
REMARK    1  A    between atoms: C3_10  and  O1_2 
REMARK    2  A    between atoms: C4_11  and  O1_2 
REMARK    3  A    between atoms: C13_20  and  O3_4 
REMARK    4  A    between atoms: C18_25  and  O3_4 
REMARK    5  A    between atoms: C18_25  and  C19_26 
ROOT
HETATM    1  O2  UNK     1      14.719   9.682   9.066  1.00  0.00    -0.319 OA
HETATM    2  O4  UNK     1      18.012   7.593  10.280  1.00  0.00    -0.284 OA
HETATM    3  C1  UNK     1      15.692   7.585   9.824  1.00  0.00     0.051 A 
HETATM    4  C2  UNK     1      14.605   8.354   9.401  1.00  0.00     0.092 A 
HETATM    5  C4  UNK     1      17.089   9.645   9.543  1.00  0.00     0.149 A 
HETATM    6  C7  UNK     1      17.022   8.214   9.918  1.00  0.00     0.220 A 
HETATM    7  C11 UNK     1      15.517   6.239  10.152  1.00  0.00     0.021 A 
HETATM    8  C12 UNK     1      13.338   7.779   9.305  1.00  0.00     0.075 A 
HETATM    9  C13 UNK     1      13.161   6.434   9.632  1.00  0.00     0.082 A 
HETATM   10  C14 UNK     1      14.248   5.667  10.055  1.00  0.00     0.038 A 
HETATM   11  C15 UNK     1      15.965  10.254   9.157  1.00  0.00     0.184 A 
ENDROOT
BRANCH   5  12
HETATM   12  O1  UNK     1      18.293  10.306   9.603  1.00  0.00    -0.305 OA
BRANCH  12  13
HETATM   13  C3  UNK     1      18.390  11.484   8.915  1.00  0.00     0.077 A 
HETATM   14  C8  UNK     1      18.659  11.467   7.550  1.00  0.00     0.045 A 
HETATM   15  C6  UNK     1      18.758  12.668   6.848  1.00  0.00    -0.037 A 
HETATM   16  C10 UNK     1      18.588  13.882   7.515  1.00  0.00     0.046 A 
HETATM   17  C17 UNK     1      19.048  12.607   5.382  1.00  0.00     0.050 C 
HETATM   18 Cl1  UNK     1      18.711  15.373   6.644  1.00  0.00    -0.083 Cl
HETATM   19  C5  UNK     1      18.319  13.893   8.884  1.00  0.00    -0.037 A 
HETATM   20  C16 UNK     1      18.128  15.169   9.639  1.00  0.00     0.050 C 
HETATM   21  C9  UNK     1      18.220  12.692   9.586  1.00  0.00     0.045 A 
ENDBRANCH  12  13
ENDBRANCH   5  12
BRANCH   9  22
HETATM   22  O3  UNK     1      11.925   5.870   9.540  1.00  0.00    -0.273 OA
BRANCH  22  23
HETATM   23  C18 UNK     1      11.753   5.041   8.429  1.00  0.00     0.322 C 
HETATM   24  O6  UNK     1      12.262   3.941   8.275  1.00  0.00    -0.257 OA
BRANCH  23  25
HETATM   25  C19 UNK     1      10.846   5.664   7.431  1.00  0.00     0.150 A 
HETATM   26  O5  UNK     1       9.554   5.656   7.747  1.00  0.00    -0.317 OA
HETATM   27  C22 UNK     1       8.949   6.271   6.696  1.00  0.00     0.143 A 
HETATM   28  C21 UNK     1       9.879   6.645   5.754  1.00  0.00     0.027 A 
HETATM   29  C20 UNK     1      11.136   6.234   6.258  1.00  0.00     0.045 A 
ENDBRANCH  23  25
ENDBRANCH  22  23
ENDBRANCH   9  22
TORSDOF 5
ENDMDL
MODEL 9
REMARK VINA RESULT:      -8.9      4.462     10.700
REMARK  5 active torsions:
REMARK  status: ('A' for Active; 'I' for Inactive)
REMARK    1  A    between atoms: C3_10  and  O1_2 
REMARK    2  A    between atoms: C4_11  and  O1_2 
REMARK    3  A    between atoms: C13_20  and  O3_4 
REMARK    4  A    between atoms: C18_25  and  O3_4 
REMARK    5  A    between atoms: C18_25  and  C19_26 
ROOT
HETATM    1  O2  UNK     1      18.410   2.664  34.974  1.00  0.00    -0.319 OA
HETATM    2  O4  UNK     1      18.260   1.909  30.963  1.00  0.00    -0.284 OA
HETATM    3  C1  UNK     1      18.489   1.051  33.154  1.00  0.00     0.051 A 
HETATM    4  C2  UNK     1      18.531   1.375  34.513  1.00  0.00     0.092 A 
HETATM    5  C4  UNK     1      18.180   3.498  32.716  1.00  0.00     0.149 A 
HETATM    6  C7  UNK     1      18.307   2.130  32.165  1.00  0.00     0.220 A 
HETATM    7  C11 UNK     1      18.616  -0.277  32.743  1.00  0.00     0.021 A 
HETATM    8  C12 UNK     1      18.701   0.371  35.465  1.00  0.00     0.075 A 
HETATM    9  C13 UNK     1      18.829  -0.957  35.057  1.00  0.00     0.082 A 
HETATM   10  C14 UNK     1      18.787  -1.280  33.699  1.00  0.00     0.038 A 
HETATM   11  C15 UNK     1      18.240   3.659  34.041  1.00  0.00     0.184 A 
ENDROOT
BRANCH   5  12
HETATM   12  O1  UNK     1      18.008   4.560  31.860  1.00  0.00    -0.305 OA
BRANCH  12  13
HETATM   13  C3  UNK     1      17.782   5.785  32.426  1.00  0.00     0.077 A 
HETATM   14  C8  UNK     1      18.839   6.487  32.997  1.00  0.00     0.045 A 
HETATM   15  C6  UNK     1      18.609   7.735  33.575  1.00  0.00    -0.037 A 
HETATM   16  C10 UNK     1      17.323   8.277  33.579  1.00  0.00     0.046 A 
HETATM   17  C17 UNK     1      19.771   8.459  34.178  1.00  0.00     0.050 C 
HETATM   18 Cl1  UNK     1      17.037   9.826  34.296  1.00  0.00    -0.083 Cl
HETATM   19  C5  UNK     1      16.267   7.567  33.005  1.00  0.00    -0.037 A 
HETATM   20  C16 UNK     1      14.874   8.108  32.986  1.00  0.00     0.050 C 
HETATM   21  C9  UNK     1      16.497   6.319  32.428  1.00  0.00     0.045 A 
ENDBRANCH  12  13
ENDBRANCH   5  12
BRANCH   9  22
HETATM   22  O3  UNK     1      18.997  -1.940  35.983  1.00  0.00    -0.273 OA
BRANCH  22  23
HETATM   23  C18 UNK     1      20.271  -2.514  35.988  1.00  0.00     0.322 C 
HETATM   24  O6  UNK     1      21.293  -1.981  35.585  1.00  0.00    -0.257 OA
BRANCH  23  25
HETATM   25  C19 UNK     1      20.240  -3.883  36.565  1.00  0.00     0.150 A 
HETATM   26  O5  UNK     1      21.359  -4.276  37.169  1.00  0.00    -0.317 OA
HETATM   27  C22 UNK     1      21.081  -5.533  37.602  1.00  0.00     0.143 A 
HETATM   28  C21 UNK     1      19.798  -5.891  37.258  1.00  0.00     0.027 A 
HETATM   29  C20 UNK     1      19.252  -4.782  36.569  1.00  0.00     0.045 A 
ENDBRANCH  23  25
ENDBRANCH  22  23
ENDBRANCH   9  22
TORSDOF 5
ENDMDL
MODEL 10
REMARK VINA RESULT:      -8.9      8.288     13.170
REMARK  5 active torsions:
REMARK  status: ('A' for Active; 'I' for Inactive)
REMARK    1  A    between atoms: C3_10  and  O1_2 
REMARK    2  A    between atoms: C4_11  and  O1_2 
REMARK    3  A    between atoms: C13_20  and  O3_4 
REMARK    4  A    between atoms: C18_25  and  O3_4 
REMARK    5  A    between atoms: C18_25  and  C19_26 
ROOT
HETATM    1  O2  UNK     1      15.865   6.569  33.054  1.00  0.00    -0.319 OA
HETATM    2  O4  UNK     1      18.832   9.043  34.380  1.00  0.00    -0.284 OA
HETATM    3  C1  UNK     1      18.225   7.163  33.082  1.00  0.00     0.051 A 
HETATM    4  C2  UNK     1      17.165   6.353  32.663  1.00  0.00     0.092 A 
HETATM    5  C4  UNK     1      16.532   8.486  34.369  1.00  0.00     0.149 A 
HETATM    6  C7  UNK     1      17.948   8.298  33.981  1.00  0.00     0.220 A 
HETATM    7  C11 UNK     1      19.526   6.897  32.651  1.00  0.00     0.021 A 
HETATM    8  C12 UNK     1      17.404   5.275  31.812  1.00  0.00     0.075 A 
HETATM    9  C13 UNK     1      18.704   5.007  31.381  1.00  0.00     0.082 A 
HETATM   10  C14 UNK     1      19.762   5.816  31.800  1.00  0.00     0.038 A 
HETATM   11  C15 UNK     1      15.623   7.631  33.891  1.00  0.00     0.184 A 
ENDROOT
BRANCH   5  12
HETATM   12  O1  UNK     1      16.189   9.522  35.205  1.00  0.00    -0.305 OA
BRANCH  12  13
HETATM   13  C3  UNK     1      15.662  10.642  34.624  1.00  0.00     0.077 A 
HETATM   14  C8  UNK     1      14.330  10.650  34.221  1.00  0.00     0.045 A 
HETATM   15  C6  UNK     1      13.793  11.792  33.628  1.00  0.00    -0.037 A 
HETATM   16  C10 UNK     1      14.590  12.922  33.440  1.00  0.00     0.046 A 
HETATM   17  C17 UNK     1      12.358  11.760  33.209  1.00  0.00     0.050 C 
HETATM   18 Cl1  UNK     1      13.923  14.340  32.704  1.00  0.00    -0.083 Cl
HETATM   19  C5  UNK     1      15.925  12.908  33.846  1.00  0.00    -0.037 A 
HETATM   20  C16 UNK     1      16.815  14.095  33.666  1.00  0.00     0.050 C 
HETATM   21  C9  UNK     1      16.462  11.766  34.439  1.00  0.00     0.045 A 
ENDBRANCH  12  13
ENDBRANCH   5  12
BRANCH   9  22
HETATM   22  O3  UNK     1      18.941   3.954  30.551  1.00  0.00    -0.273 OA
BRANCH  22  23
HETATM   23  C18 UNK     1      18.534   2.718  31.060  1.00  0.00     0.322 C 
HETATM   24  O6  UNK     1      17.906   2.546  32.094  1.00  0.00    -0.257 OA
BRANCH  23  25
HETATM   25  C19 UNK     1      18.956   1.606  30.170  1.00  0.00     0.150 A 
HETATM   26  O5  UNK     1      19.843   0.761  30.689  1.00  0.00    -0.317 OA
HETATM   27  C22 UNK     1      20.060  -0.145  29.700  1.00  0.00     0.143 A 
HETATM   28  C21 UNK     1      19.305   0.158  28.591  1.00  0.00     0.027 A 
HETATM   29  C20 UNK     1      18.575   1.326  28.921  1.00  0.00     0.045 A 
ENDBRANCH  23  25
ENDBRANCH  22  23
ENDBRANCH   9  22
TORSDOF 5
ENDMDL
