MODEL 1
REMARK VINA RESULT:      -9.0      0.000      0.000
REMARK  4 active torsions:
REMARK  status: ('A' for Active; 'I' for Inactive)
REMARK    1  A    between atoms: C17_27  and  O3_7 
REMARK       I    between atoms: C14_24  and  N1_9 
REMARK    2  A    between atoms: N1_9  and  N2_10 
REMARK    3  A    between atoms: C11_21  and  C4_14 
REMARK    4  A    between atoms: C10_20  and  C14_24 
ROOT
HETATM    1  N2  UNK     1      17.235   5.533  32.287  1.00  0.00    -0.183 NA
HETATM    2  C11 UNK     1      17.289   6.102  33.447  1.00  0.00     0.156 C 
ENDROOT
BRANCH   1   3
HETATM    3  N1  UNK     1      17.559   4.217  32.303  1.00  0.00    -0.243 N 
HETATM    4  C14 UNK     1      18.375   3.726  31.301  1.00  0.00     0.271 C 
HETATM    5  O4  UNK     1      18.838   4.396  30.382  1.00  0.00    -0.266 OA
HETATM    6  H7  UNK     1      17.140   3.642  33.027  1.00  0.00     0.192 HD
BRANCH   4   7
HETATM    7  C10 UNK     1      18.674   2.271  31.366  1.00  0.00     0.036 A 
HETATM    8  C12 UNK     1      18.438   1.563  32.545  1.00  0.00     0.039 A 
HETATM    9  C16 UNK     1      18.719   0.199  32.606  1.00  0.00     0.046 A 
HETATM   10 Br2  UNK     1      18.383  -0.727  34.227  1.00  0.00    -0.048 Br
HETATM   11  C17 UNK     1      19.236  -0.458  31.490  1.00  0.00     0.100 A 
HETATM   12  C15 UNK     1      19.472   0.249  30.311  1.00  0.00     0.046 A 
HETATM   13 Br1  UNK     1      20.173  -0.606  28.771  1.00  0.00    -0.048 Br
HETATM   14  C13 UNK     1      19.191   1.615  30.250  1.00  0.00     0.039 A 
BRANCH  11  15
HETATM   15  O3  UNK     1      19.511  -1.794  31.550  1.00  0.00    -0.358 OA
HETATM   16  H8  UNK     1      19.111  -2.227  30.776  1.00  0.00     0.217 HD
ENDBRANCH  11  15
ENDBRANCH   4   7
ENDBRANCH   1   3
BRANCH   2  17
HETATM   17  C4  UNK     1      16.974   7.517  33.642  1.00  0.00     0.056 A 
HETATM   18  C3  UNK     1      15.634   8.015  34.023  1.00  0.00     0.198 A 
HETATM   19  C1  UNK     1      15.505   9.476  34.171  1.00  0.00     0.052 A 
HETATM   20  O2  UNK     1      14.688   7.260  34.205  1.00  0.00    -0.286 OA
HETATM   21  C2  UNK     1      16.624  10.282  33.950  1.00  0.00     0.111 A 
HETATM   22  C5  UNK     1      14.282  10.050  34.525  1.00  0.00     0.042 A 
HETATM   23  O1  UNK     1      17.849   9.772  33.600  1.00  0.00    -0.319 OA
HETATM   24  C6  UNK     1      16.524  11.666  34.085  1.00  0.00     0.070 A 
HETATM   25  C7  UNK     1      17.956   8.408  33.463  1.00  0.00     0.159 A 
HETATM   26 Cl1  UNK     1      17.882  12.700  33.824  1.00  0.00    -0.081 Cl
HETATM   27  C9  UNK     1      15.303  12.243  34.439  1.00  0.00     0.050 A 
HETATM   28  C8  UNK     1      14.185  11.436  34.659  1.00  0.00     0.036 A 
HETATM   29 Cl2  UNK     1      12.682  12.154  35.093  1.00  0.00    -0.084 Cl
ENDBRANCH   2  17
TORSDOF 4
ENDMDL
MODEL 2
REMARK VINA RESULT:      -8.7      5.818      8.330
REMARK  4 active torsions:
REMARK  status: ('A' for Active; 'I' for Inactive)
REMARK    1  A    between atoms: C17_27  and  O3_7 
REMARK       I    between atoms: C14_24  and  N1_9 
REMARK    2  A    between atoms: N1_9  and  N2_10 
REMARK    3  A    between atoms: C11_21  and  C4_14 
REMARK    4  A    between atoms: C10_20  and  C14_24 
ROOT
HETATM    1  N2  UNK     1      19.384  -1.193  35.155  1.00  0.00    -0.183 NA
HETATM    2  C11 UNK     1      18.579  -0.947  34.173  1.00  0.00     0.156 C 
ENDROOT
BRANCH   1   3
HETATM    3  N1  UNK     1      19.296  -2.456  35.637  1.00  0.00    -0.243 N 
HETATM    4  C14 UNK     1      20.440  -3.058  36.124  1.00  0.00     0.271 C 
HETATM    5  O4  UNK     1      21.550  -2.532  36.158  1.00  0.00    -0.266 OA
HETATM    6  H7  UNK     1      18.397  -2.920  35.566  1.00  0.00     0.192 HD
BRANCH   4   7
HETATM    7  C10 UNK     1      20.278  -4.451  36.619  1.00  0.00     0.036 A 
HETATM    8  C12 UNK     1      21.101  -4.928  37.639  1.00  0.00     0.039 A 
HETATM    9  C16 UNK     1      20.949  -6.234  38.102  1.00  0.00     0.046 A 
HETATM   10 Br2  UNK     1      22.087  -6.844  39.492  1.00  0.00    -0.048 Br
HETATM   11  C17 UNK     1      19.974  -7.063  37.548  1.00  0.00     0.100 A 
HETATM   12  C15 UNK     1      19.151  -6.586  36.527  1.00  0.00     0.046 A 
HETATM   13 Br1  UNK     1      17.814  -7.680  35.745  1.00  0.00    -0.048 Br
HETATM   14  C13 UNK     1      19.304  -5.279  36.062  1.00  0.00     0.039 A 
BRANCH  11  15
HETATM   15  O3  UNK     1      19.825  -8.342  38.002  1.00  0.00    -0.358 OA
HETATM   16  H8  UNK     1      19.527  -8.308  38.926  1.00  0.00     0.217 HD
ENDBRANCH  11  15
ENDBRANCH   4   7
ENDBRANCH   1   3
BRANCH   2  17
HETATM   17  C4  UNK     1      18.523   0.358  33.513  1.00  0.00     0.056 A 
HETATM   18  C3  UNK     1      18.266   1.628  34.228  1.00  0.00     0.198 A 
HETATM   19  C1  UNK     1      18.242   2.844  33.396  1.00  0.00     0.052 A 
HETATM   20  O2  UNK     1      18.084   1.668  35.437  1.00  0.00    -0.286 OA
HETATM   21  C2  UNK     1      18.459   2.730  32.021  1.00  0.00     0.111 A 
HETATM   22  C5  UNK     1      18.006   4.095  33.970  1.00  0.00     0.042 A 
HETATM   23  O1  UNK     1      18.697   1.528  31.403  1.00  0.00    -0.319 OA
HETATM   24  C6  UNK     1      18.442   3.869  31.215  1.00  0.00     0.070 A 
HETATM   25  C7  UNK     1      18.713   0.400  32.190  1.00  0.00     0.159 A 
HETATM   26 Cl1  UNK     1      18.708   3.775  29.512  1.00  0.00    -0.081 Cl
HETATM   27  C9  UNK     1      18.206   5.120  31.787  1.00  0.00     0.050 A 
HETATM   28  C8  UNK     1      17.989   5.232  33.161  1.00  0.00     0.036 A 
HETATM   29 Cl2  UNK     1      17.695   6.779  33.859  1.00  0.00    -0.084 Cl
ENDBRANCH   2  17
TORSDOF 4
ENDMDL
MODEL 3
REMARK VINA RESULT:      -8.6      5.817      8.418
REMARK  4 active torsions:
REMARK  status: ('A' for Active; 'I' for Inactive)
REMARK    1  A    between atoms: C17_27  and  O3_7 
REMARK       I    between atoms: C14_24  and  N1_9 
REMARK    2  A    between atoms: N1_9  and  N2_10 
REMARK    3  A    between atoms: C11_21  and  C4_14 
REMARK    4  A    between atoms: C10_20  and  C14_24 
ROOT
HETATM    1  N2  UNK     1      19.340  -1.209  35.152  1.00  0.00    -0.183 NA
HETATM    2  C11 UNK     1      18.540  -0.960  34.166  1.00  0.00     0.156 C 
ENDROOT
BRANCH   1   3
HETATM    3  N1  UNK     1      19.238  -2.468  35.641  1.00  0.00    -0.243 N 
HETATM    4  C14 UNK     1      20.385  -3.100  36.083  1.00  0.00     0.271 C 
HETATM    5  O4  UNK     1      21.509  -2.604  36.067  1.00  0.00    -0.266 OA
HETATM    6  H7  UNK     1      18.324  -2.908  35.610  1.00  0.00     0.192 HD
BRANCH   4   7
HETATM    7  C10 UNK     1      20.206  -4.487  36.588  1.00  0.00     0.036 A 
HETATM    8  C12 UNK     1      19.206  -5.299  36.053  1.00  0.00     0.039 A 
HETATM    9  C16 UNK     1      19.038  -6.600  36.527  1.00  0.00     0.046 A 
HETATM   10 Br2  UNK     1      17.668  -7.673  35.773  1.00  0.00    -0.048 Br
HETATM   11  C17 UNK     1      19.869  -7.089  37.534  1.00  0.00     0.100 A 
HETATM   12  C15 UNK     1      20.870  -6.276  38.070  1.00  0.00     0.046 A 
HETATM   13 Br1  UNK     1      22.021  -6.902  39.440  1.00  0.00    -0.048 Br
HETATM   14  C13 UNK     1      21.038  -4.974  37.596  1.00  0.00     0.039 A 
BRANCH  11  15
HETATM   15  O3  UNK     1      19.705  -8.362  37.999  1.00  0.00    -0.358 OA
HETATM   16  H8  UNK     1      19.892  -8.369  38.952  1.00  0.00     0.217 HD
ENDBRANCH  11  15
ENDBRANCH   4   7
ENDBRANCH   1   3
BRANCH   2  17
HETATM   17  C4  UNK     1      18.498   0.341  33.499  1.00  0.00     0.056 A 
HETATM   18  C3  UNK     1      18.258   1.618  34.206  1.00  0.00     0.198 A 
HETATM   19  C1  UNK     1      18.248   2.829  33.366  1.00  0.00     0.052 A 
HETATM   20  O2  UNK     1      18.078   1.668  35.415  1.00  0.00    -0.286 OA
HETATM   21  C2  UNK     1      18.462   2.704  31.992  1.00  0.00     0.111 A 
HETATM   22  C5  UNK     1      18.027   4.087  33.933  1.00  0.00     0.042 A 
HETATM   23  O1  UNK     1      18.684   1.495  31.381  1.00  0.00    -0.319 OA
HETATM   24  C6  UNK     1      18.457   3.838  31.179  1.00  0.00     0.070 A 
HETATM   25  C7  UNK     1      18.688   0.372  32.175  1.00  0.00     0.159 A 
HETATM   26 Cl1  UNK     1      18.720   3.730  29.476  1.00  0.00    -0.081 Cl
HETATM   27  C9  UNK     1      18.237   5.095  31.743  1.00  0.00     0.050 A 
HETATM   28  C8  UNK     1      18.023   5.219  33.117  1.00  0.00     0.036 A 
HETATM   29 Cl2  UNK     1      17.749   6.773  33.805  1.00  0.00    -0.084 Cl
ENDBRANCH   2  17
TORSDOF 4
ENDMDL
MODEL 4
REMARK VINA RESULT:      -8.6      0.837      2.219
REMARK  4 active torsions:
REMARK  status: ('A' for Active; 'I' for Inactive)
REMARK    1  A    between atoms: C17_27  and  O3_7 
REMARK       I    between atoms: C14_24  and  N1_9 
REMARK    2  A    between atoms: N1_9  and  N2_10 
REMARK    3  A    between atoms: C11_21  and  C4_14 
REMARK    4  A    between atoms: C10_20  and  C14_24 
ROOT
HETATM    1  N2  UNK     1      17.263   5.651  32.355  1.00  0.00    -0.183 NA
HETATM    2  C11 UNK     1      17.153   6.211  33.516  1.00  0.00     0.156 C 
ENDROOT
BRANCH   1   3
HETATM    3  N1  UNK     1      17.603   4.341  32.406  1.00  0.00    -0.243 N 
HETATM    4  C14 UNK     1      18.331   3.806  31.359  1.00  0.00     0.271 C 
HETATM    5  O4  UNK     1      18.701   4.434  30.370  1.00  0.00    -0.266 OA
HETATM    6  H7  UNK     1      17.258   3.799  33.191  1.00  0.00     0.192 HD
BRANCH   4   7
HETATM    7  C10 UNK     1      18.653   2.359  31.467  1.00  0.00     0.036 A 
HETATM    8  C12 UNK     1      18.396   1.676  32.655  1.00  0.00     0.039 A 
HETATM    9  C16 UNK     1      18.698   0.318  32.757  1.00  0.00     0.046 A 
HETATM   10 Br2  UNK     1      18.333  -0.575  34.390  1.00  0.00    -0.048 Br
HETATM   11  C17 UNK     1      19.255  -0.357  31.671  1.00  0.00     0.100 A 
HETATM   12  C15 UNK     1      19.512   0.327  30.482  1.00  0.00     0.046 A 
HETATM   13 Br1  UNK     1      20.268  -0.552  28.982  1.00  0.00    -0.048 Br
HETATM   14  C13 UNK     1      19.210   1.686  30.381  1.00  0.00     0.039 A 
BRANCH  11  15
HETATM   15  O3  UNK     1      19.550  -1.686  31.770  1.00  0.00    -0.358 OA
HETATM   16  H8  UNK     1      19.648  -2.048  30.874  1.00  0.00     0.217 HD
ENDBRANCH  11  15
ENDBRANCH   4   7
ENDBRANCH   1   3
BRANCH   2  17
HETATM   17  C4  UNK     1      16.793   7.620  33.676  1.00  0.00     0.056 A 
HETATM   18  C3  UNK     1      17.784   8.711  33.803  1.00  0.00     0.198 A 
HETATM   19  C1  UNK     1      17.234  10.069  33.959  1.00  0.00     0.052 A 
HETATM   20  O2  UNK     1      18.989   8.500  33.778  1.00  0.00    -0.286 OA
HETATM   21  C2  UNK     1      15.848  10.242  33.977  1.00  0.00     0.111 A 
HETATM   22  C5  UNK     1      18.082  11.171  34.090  1.00  0.00     0.042 A 
HETATM   23  O1  UNK     1      14.967   9.197  33.853  1.00  0.00    -0.319 OA
HETATM   24  C6  UNK     1      15.306  11.519  34.124  1.00  0.00     0.070 A 
HETATM   25  C7  UNK     1      15.493   7.934  33.710  1.00  0.00     0.159 A 
HETATM   26 Cl1  UNK     1      13.600  11.779  34.149  1.00  0.00    -0.081 Cl
HETATM   27  C9  UNK     1      16.152  12.621  34.254  1.00  0.00     0.050 A 
HETATM   28  C8  UNK     1      17.537  12.447  34.237  1.00  0.00     0.036 A 
HETATM   29 Cl2  UNK     1      18.575  13.811  34.401  1.00  0.00    -0.084 Cl
ENDBRANCH   2  17
TORSDOF 4
ENDMDL
MODEL 5
REMARK VINA RESULT:      -8.5      5.847      8.512
REMARK  4 active torsions:
REMARK  status: ('A' for Active; 'I' for Inactive)
REMARK    1  A    between atoms: C17_27  and  O3_7 
REMARK       I    between atoms: C14_24  and  N1_9 
REMARK    2  A    between atoms: N1_9  and  N2_10 
REMARK    3  A    between atoms: C11_21  and  C4_14 
REMARK    4  A    between atoms: C10_20  and  C14_24 
ROOT
HETATM    1  N2  UNK     1      19.138  -0.983  36.050  1.00  0.00    -0.183 NA
HETATM    2  C11 UNK     1      18.531  -0.754  34.930  1.00  0.00     0.156 C 
ENDROOT
BRANCH   1   3
HETATM    3  N1  UNK     1      19.117  -2.282  36.433  1.00  0.00    -0.243 N 
HETATM    4  C14 UNK     1      20.282  -3.019  36.335  1.00  0.00     0.271 C 
HETATM    5  O4  UNK     1      21.354  -2.584  35.921  1.00  0.00    -0.266 OA
HETATM    6  H7  UNK     1      18.225  -2.666  36.727  1.00  0.00     0.192 HD
BRANCH   4   7
HETATM    7  C10 UNK     1      20.184  -4.442  36.753  1.00  0.00     0.036 A 
HETATM    8  C12 UNK     1      21.065  -4.949  37.707  1.00  0.00     0.039 A 
HETATM    9  C16 UNK     1      20.974  -6.284  38.100  1.00  0.00     0.046 A 
HETATM   10 Br2  UNK     1      22.189  -6.935  39.402  1.00  0.00    -0.048 Br
HETATM   11  C17 UNK     1      20.001  -7.112  37.539  1.00  0.00     0.100 A 
HETATM   12  C15 UNK     1      19.120  -6.604  36.583  1.00  0.00     0.046 A 
HETATM   13 Br1  UNK     1      17.784  -7.695  35.796  1.00  0.00    -0.048 Br
HETATM   14  C13 UNK     1      19.212  -5.268  36.191  1.00  0.00     0.039 A 
BRANCH  11  15
HETATM   15  O3  UNK     1      19.912  -8.419  37.923  1.00  0.00    -0.358 OA
HETATM   16  H8  UNK     1      20.386  -8.526  38.765  1.00  0.00     0.217 HD
ENDBRANCH  11  15
ENDBRANCH   4   7
ENDBRANCH   1   3
BRANCH   2  17
HETATM   17  C4  UNK     1      18.444   0.583  34.344  1.00  0.00     0.056 A 
HETATM   18  C3  UNK     1      18.570   0.854  32.895  1.00  0.00     0.198 A 
HETATM   19  C1  UNK     1      18.458   2.266  32.489  1.00  0.00     0.052 A 
HETATM   20  O2  UNK     1      18.756  -0.040  32.081  1.00  0.00    -0.286 OA
HETATM   21  C2  UNK     1      18.244   3.239  33.468  1.00  0.00     0.111 A 
HETATM   22  C5  UNK     1      18.565   2.632  31.145  1.00  0.00     0.042 A 
HETATM   23  O1  UNK     1      18.131   2.938  34.802  1.00  0.00    -0.319 OA
HETATM   24  C6  UNK     1      18.134   4.581  33.106  1.00  0.00     0.070 A 
HETATM   25  C7  UNK     1      18.240   1.616  35.169  1.00  0.00     0.159 A 
HETATM   26 Cl1  UNK     1      17.866   5.816  34.283  1.00  0.00    -0.081 Cl
HETATM   27  C9  UNK     1      18.240   4.949  31.763  1.00  0.00     0.050 A 
HETATM   28  C8  UNK     1      18.455   3.976  30.786  1.00  0.00     0.036 A 
HETATM   29 Cl2  UNK     1      18.587   4.436  29.132  1.00  0.00    -0.084 Cl
ENDBRANCH   2  17
TORSDOF 4
ENDMDL
MODEL 6
REMARK VINA RESULT:      -8.3      9.846     14.840
REMARK  4 active torsions:
REMARK  status: ('A' for Active; 'I' for Inactive)
REMARK    1  A    between atoms: C17_27  and  O3_7 
REMARK       I    between atoms: C14_24  and  N1_9 
REMARK    2  A    between atoms: N1_9  and  N2_10 
REMARK    3  A    between atoms: C11_21  and  C4_14 
REMARK    4  A    between atoms: C10_20  and  C14_24 
ROOT
HETATM    1  N2  UNK     1      20.201  -4.327  35.724  1.00  0.00    -0.183 NA
HETATM    2  C11 UNK     1      19.359  -5.305  35.639  1.00  0.00     0.156 C 
ENDROOT
BRANCH   1   3
HETATM    3  N1  UNK     1      19.682  -3.122  35.384  1.00  0.00    -0.243 N 
HETATM    4  C14 UNK     1      20.010  -2.586  34.153  1.00  0.00     0.271 C 
HETATM    5  O4  UNK     1      20.745  -3.123  33.328  1.00  0.00    -0.266 OA
HETATM    6  H7  UNK     1      19.116  -2.646  36.078  1.00  0.00     0.192 HD
BRANCH   4   7
HETATM    7  C10 UNK     1      19.424  -1.254  33.851  1.00  0.00     0.036 A 
HETATM    8  C12 UNK     1      18.860  -0.493  34.874  1.00  0.00     0.039 A 
HETATM    9  C16 UNK     1      18.310   0.757  34.591  1.00  0.00     0.046 A 
HETATM   10 Br2  UNK     1      17.554   1.761  36.011  1.00  0.00    -0.048 Br
HETATM   11  C17 UNK     1      18.324   1.246  33.285  1.00  0.00     0.100 A 
HETATM   12  C15 UNK     1      18.888   0.485  32.261  1.00  0.00     0.046 A 
HETATM   13 Br1  UNK     1      18.928   1.113  30.472  1.00  0.00    -0.048 Br
HETATM   14  C13 UNK     1      19.438  -0.766  32.545  1.00  0.00     0.039 A 
BRANCH  11  15
HETATM   15  O3  UNK     1      17.786   2.470  33.008  1.00  0.00    -0.358 OA
HETATM   16  H8  UNK     1      16.936   2.546  33.474  1.00  0.00     0.217 HD
ENDBRANCH  11  15
ENDBRANCH   4   7
ENDBRANCH   1   3
BRANCH   2  17
HETATM   17  C4  UNK     1      19.724  -6.684  35.964  1.00  0.00     0.056 A 
HETATM   18  C3  UNK     1      19.130  -7.448  37.084  1.00  0.00     0.198 A 
HETATM   19  C1  UNK     1      19.624  -8.825  37.260  1.00  0.00     0.052 A 
HETATM   20  O2  UNK     1      18.279  -6.966  37.819  1.00  0.00    -0.286 OA
HETATM   21  C2  UNK     1      20.595  -9.316  36.385  1.00  0.00     0.111 A 
HETATM   22  C5  UNK     1      19.132  -9.632  38.289  1.00  0.00     0.042 A 
HETATM   23  O1  UNK     1      21.115  -8.568  35.357  1.00  0.00    -0.319 OA
HETATM   24  C6  UNK     1      21.076 -10.616  36.534  1.00  0.00     0.070 A 
HETATM   25  C7  UNK     1      20.648  -7.284  35.204  1.00  0.00     0.159 A 
HETATM   26 Cl1  UNK     1      22.274 -11.264  35.473  1.00  0.00    -0.081 Cl
HETATM   27  C9  UNK     1      20.585 -11.424  37.561  1.00  0.00     0.050 A 
HETATM   28  C8  UNK     1      19.615 -10.933  38.436  1.00  0.00     0.036 A 
HETATM   29 Cl2  UNK     1      19.016 -11.934  39.702  1.00  0.00    -0.084 Cl
ENDBRANCH   2  17
TORSDOF 4
ENDMDL
MODEL 7
REMARK VINA RESULT:      -8.2      9.837     14.940
REMARK  4 active torsions:
REMARK  status: ('A' for Active; 'I' for Inactive)
REMARK    1  A    between atoms: C17_27  and  O3_7 
REMARK       I    between atoms: C14_24  and  N1_9 
REMARK    2  A    between atoms: N1_9  and  N2_10 
REMARK    3  A    between atoms: C11_21  and  C4_14 
REMARK    4  A    between atoms: C10_20  and  C14_24 
ROOT
HETATM    1  N2  UNK     1      20.204  -4.332  35.670  1.00  0.00    -0.183 NA
HETATM    2  C11 UNK     1      19.354  -5.305  35.616  1.00  0.00     0.156 C 
ENDROOT
BRANCH   1   3
HETATM    3  N1  UNK     1      19.686  -3.128  35.328  1.00  0.00    -0.243 N 
HETATM    4  C14 UNK     1      20.032  -2.583  34.106  1.00  0.00     0.271 C 
HETATM    5  O4  UNK     1      20.785  -3.111  33.291  1.00  0.00    -0.266 OA
HETATM    6  H7  UNK     1      19.105  -2.658  36.015  1.00  0.00     0.192 HD
BRANCH   4   7
HETATM    7  C10 UNK     1      19.445  -1.251  33.802  1.00  0.00     0.036 A 
HETATM    8  C12 UNK     1      19.460  -0.766  32.494  1.00  0.00     0.039 A 
HETATM    9  C16 UNK     1      18.910   0.482  32.208  1.00  0.00     0.046 A 
HETATM   10 Br2  UNK     1      18.949   1.105  30.417  1.00  0.00    -0.048 Br
HETATM   11  C17 UNK     1      18.343   1.246  33.229  1.00  0.00     0.100 A 
HETATM   12  C15 UNK     1      18.328   0.761  34.537  1.00  0.00     0.046 A 
HETATM   13 Br1  UNK     1      17.568   1.767  35.953  1.00  0.00    -0.048 Br
HETATM   14  C13 UNK     1      18.880  -0.489  34.823  1.00  0.00     0.039 A 
BRANCH  11  15
HETATM   15  O3  UNK     1      17.804   2.469  32.949  1.00  0.00    -0.358 OA
HETATM   16  H8  UNK     1      17.652   2.937  33.787  1.00  0.00     0.217 HD
ENDBRANCH  11  15
ENDBRANCH   4   7
ENDBRANCH   1   3
BRANCH   2  17
HETATM   17  C4  UNK     1      19.717  -6.683  35.949  1.00  0.00     0.056 A 
HETATM   18  C3  UNK     1      19.125  -7.438  37.075  1.00  0.00     0.198 A 
HETATM   19  C1  UNK     1      19.616  -8.815  37.259  1.00  0.00     0.052 A 
HETATM   20  O2  UNK     1      18.277  -6.950  37.810  1.00  0.00    -0.286 OA
HETATM   21  C2  UNK     1      20.584  -9.313  36.384  1.00  0.00     0.111 A 
HETATM   22  C5  UNK     1      19.125  -9.614  38.294  1.00  0.00     0.042 A 
HETATM   23  O1  UNK     1      21.102  -8.573  35.351  1.00  0.00    -0.319 OA
HETATM   24  C6  UNK     1      21.063 -10.614  36.540  1.00  0.00     0.070 A 
HETATM   25  C7  UNK     1      20.637  -7.289  35.191  1.00  0.00     0.159 A 
HETATM   26 Cl1  UNK     1      22.257 -11.271  35.480  1.00  0.00    -0.081 Cl
HETATM   27  C9  UNK     1      20.573 -11.414  37.573  1.00  0.00     0.050 A 
HETATM   28  C8  UNK     1      19.606 -10.915  38.447  1.00  0.00     0.036 A 
HETATM   29 Cl2  UNK     1      19.008 -11.907  39.721  1.00  0.00    -0.084 Cl
ENDBRANCH   2  17
TORSDOF 4
ENDMDL
MODEL 8
REMARK VINA RESULT:      -8.2      5.557     10.335
REMARK  4 active torsions:
REMARK  status: ('A' for Active; 'I' for Inactive)
REMARK    1  A    between atoms: C17_27  and  O3_7 
REMARK       I    between atoms: C14_24  and  N1_9 
REMARK    2  A    between atoms: N1_9  and  N2_10 
REMARK    3  A    between atoms: C11_21  and  C4_14 
REMARK    4  A    between atoms: C10_20  and  C14_24 
ROOT
HETATM    1  N2  UNK     1      16.470   5.776  32.295  1.00  0.00    -0.183 NA
HETATM    2  C11 UNK     1      17.704   5.402  32.195  1.00  0.00     0.156 C 
ENDROOT
BRANCH   1   3
HETATM    3  N1  UNK     1      16.307   7.117  32.399  1.00  0.00    -0.243 N 
HETATM    4  C14 UNK     1      16.115   7.664  33.653  1.00  0.00     0.271 C 
HETATM    5  O4  UNK     1      16.079   7.022  34.700  1.00  0.00    -0.266 OA
HETATM    6  H7  UNK     1      16.282   7.652  31.537  1.00  0.00     0.192 HD
BRANCH   4   7
HETATM    7  C10 UNK     1      15.923   9.138  33.694  1.00  0.00     0.036 A 
HETATM    8  C12 UNK     1      14.686   9.688  33.362  1.00  0.00     0.039 A 
HETATM    9  C16 UNK     1      14.506  11.070  33.400  1.00  0.00     0.046 A 
HETATM   10 Br2  UNK     1      12.808  11.780  32.942  1.00  0.00    -0.048 Br
HETATM   11  C17 UNK     1      15.562  11.902  33.772  1.00  0.00     0.100 A 
HETATM   12  C15 UNK     1      16.800  11.351  34.105  1.00  0.00     0.046 A 
HETATM   13 Br1  UNK     1      18.261  12.446  34.615  1.00  0.00    -0.048 Br
HETATM   14  C13 UNK     1      16.980   9.968  34.066  1.00  0.00     0.039 A 
BRANCH  11  15
HETATM   15  O3  UNK     1      15.385  13.256  33.810  1.00  0.00    -0.358 OA
HETATM   16  H8  UNK     1      14.599  13.449  34.347  1.00  0.00     0.217 HD
ENDBRANCH  11  15
ENDBRANCH   4   7
ENDBRANCH   1   3
BRANCH   2  17
HETATM   17  C4  UNK     1      18.090   3.996  32.072  1.00  0.00     0.056 A 
HETATM   18  C3  UNK     1      18.651   3.405  30.837  1.00  0.00     0.198 A 
HETATM   19  C1  UNK     1      18.979   1.969  30.900  1.00  0.00     0.052 A 
HETATM   20  O2  UNK     1      18.835   4.066  29.825  1.00  0.00    -0.286 OA
HETATM   21  C2  UNK     1      18.747   1.271  32.087  1.00  0.00     0.111 A 
HETATM   22  C5  UNK     1      19.512   1.311  29.789  1.00  0.00     0.042 A 
HETATM   23  O1  UNK     1      18.226   1.866  33.209  1.00  0.00    -0.319 OA
HETATM   24  C6  UNK     1      19.050  -0.088  32.169  1.00  0.00     0.070 A 
HETATM   25  C7  UNK     1      17.922   3.205  33.137  1.00  0.00     0.159 A 
HETATM   26 Cl1  UNK     1      18.783  -0.989  33.617  1.00  0.00    -0.081 Cl
HETATM   27  C9  UNK     1      19.583  -0.748  31.060  1.00  0.00     0.050 A 
HETATM   28  C8  UNK     1      19.814  -0.049  29.873  1.00  0.00     0.036 A 
HETATM   29 Cl2  UNK     1      20.469  -0.870  28.509  1.00  0.00    -0.084 Cl
ENDBRANCH   2  17
TORSDOF 4
ENDMDL
MODEL 9
REMARK VINA RESULT:      -8.1      9.611     14.814
REMARK  4 active torsions:
REMARK  status: ('A' for Active; 'I' for Inactive)
REMARK    1  A    between atoms: C17_27  and  O3_7 
REMARK       I    between atoms: C14_24  and  N1_9 
REMARK    2  A    between atoms: N1_9  and  N2_10 
REMARK    3  A    between atoms: C11_21  and  C4_14 
REMARK    4  A    between atoms: C10_20  and  C14_24 
ROOT
HETATM    1  N2  UNK     1      20.115  -4.080  35.843  1.00  0.00    -0.183 NA
HETATM    2  C11 UNK     1      19.270  -5.058  35.775  1.00  0.00     0.156 C 
ENDROOT
BRANCH   1   3
HETATM    3  N1  UNK     1      19.626  -2.898  35.398  1.00  0.00    -0.243 N 
HETATM    4  C14 UNK     1      19.985  -2.468  34.135  1.00  0.00     0.271 C 
HETATM    5  O4  UNK     1      20.723  -3.082  33.369  1.00  0.00    -0.266 OA
HETATM    6  H7  UNK     1      19.058  -2.356  36.042  1.00  0.00     0.192 HD
BRANCH   4   7
HETATM    7  C10 UNK     1      19.431  -1.154  33.717  1.00  0.00     0.036 A 
HETATM    8  C12 UNK     1      18.840  -0.314  34.661  1.00  0.00     0.039 A 
HETATM    9  C16 UNK     1      18.320   0.919  34.270  1.00  0.00     0.046 A 
HETATM   10 Br2  UNK     1      17.527   2.031  35.585  1.00  0.00    -0.048 Br
HETATM   11  C17 UNK     1      18.391   1.314  32.934  1.00  0.00     0.100 A 
HETATM   12  C15 UNK     1      18.981   0.474  31.988  1.00  0.00     0.046 A 
HETATM   13 Br1  UNK     1      19.098   0.972  30.163  1.00  0.00    -0.048 Br
HETATM   14  C13 UNK     1      19.501  -0.760  32.381  1.00  0.00     0.039 A 
BRANCH  11  15
HETATM   15  O3  UNK     1      17.882   2.521  32.550  1.00  0.00    -0.358 OA
HETATM   16  H8  UNK     1      17.832   2.540  31.579  1.00  0.00     0.217 HD
ENDBRANCH  11  15
ENDBRANCH   4   7
ENDBRANCH   1   3
BRANCH   2  17
HETATM   17  C4  UNK     1      19.604  -6.415  36.208  1.00  0.00     0.056 A 
HETATM   18  C3  UNK     1      20.596  -7.273  35.523  1.00  0.00     0.198 A 
HETATM   19  C1  UNK     1      20.800  -8.613  36.102  1.00  0.00     0.052 A 
HETATM   20  O2  UNK     1      21.212  -6.895  34.536  1.00  0.00    -0.286 OA
HETATM   21  C2  UNK     1      20.066  -8.984  37.231  1.00  0.00     0.111 A 
HETATM   22  C5  UNK     1      21.711  -9.505  35.531  1.00  0.00     0.042 A 
HETATM   23  O1  UNK     1      19.157  -8.150  37.833  1.00  0.00    -0.319 OA
HETATM   24  C6  UNK     1      20.243 -10.247  37.795  1.00  0.00     0.070 A 
HETATM   25  C7  UNK     1      18.975  -6.903  37.282  1.00  0.00     0.159 A 
HETATM   26 Cl1  UNK     1      19.359 -10.745  39.192  1.00  0.00    -0.081 Cl
HETATM   27  C9  UNK     1      21.154 -11.139  37.226  1.00  0.00     0.050 A 
HETATM   28  C8  UNK     1      21.886 -10.768  36.097  1.00  0.00     0.036 A 
HETATM   29 Cl2  UNK     1      23.006 -11.874  35.400  1.00  0.00    -0.084 Cl
ENDBRANCH   2  17
TORSDOF 4
ENDMDL
MODEL 10
REMARK VINA RESULT:      -8.1      9.593     14.900
REMARK  4 active torsions:
REMARK  status: ('A' for Active; 'I' for Inactive)
REMARK    1  A    between atoms: C17_27  and  O3_7 
REMARK       I    between atoms: C14_24  and  N1_9 
REMARK    2  A    between atoms: N1_9  and  N2_10 
REMARK    3  A    between atoms: C11_21  and  C4_14 
REMARK    4  A    between atoms: C10_20  and  C14_24 
ROOT
HETATM    1  N2  UNK     1      20.159  -4.075  35.747  1.00  0.00    -0.183 NA
HETATM    2  C11 UNK     1      19.284  -5.027  35.779  1.00  0.00     0.156 C 
ENDROOT
BRANCH   1   3
HETATM    3  N1  UNK     1      19.668  -2.888  35.318  1.00  0.00    -0.243 N 
HETATM    4  C14 UNK     1      19.995  -2.460  34.045  1.00  0.00     0.271 C 
HETATM    5  O4  UNK     1      20.708  -3.079  33.259  1.00  0.00    -0.266 OA
HETATM    6  H7  UNK     1      19.122  -2.344  35.977  1.00  0.00     0.192 HD
BRANCH   4   7
HETATM    7  C10 UNK     1      19.440  -1.140  33.644  1.00  0.00     0.036 A 
HETATM    8  C12 UNK     1      19.492  -0.739  32.310  1.00  0.00     0.039 A 
HETATM    9  C16 UNK     1      18.971   0.498  31.933  1.00  0.00     0.046 A 
HETATM   10 Br2  UNK     1      19.060   1.005  30.108  1.00  0.00    -0.048 Br
HETATM   11  C17 UNK     1      18.397   1.335  32.890  1.00  0.00     0.100 A 
HETATM   12  C15 UNK     1      18.346   0.934  34.226  1.00  0.00     0.046 A 
HETATM   13 Br1  UNK     1      17.575   2.041  35.559  1.00  0.00    -0.048 Br
HETATM   14  C13 UNK     1      18.867  -0.305  34.603  1.00  0.00     0.039 A 
BRANCH  11  15
HETATM   15  O3  UNK     1      17.887   2.546  32.522  1.00  0.00    -0.358 OA
HETATM   16  H8  UNK     1      18.072   2.685  31.578  1.00  0.00     0.217 HD
ENDBRANCH  11  15
ENDBRANCH   4   7
ENDBRANCH   1   3
BRANCH   2  17
HETATM   17  C4  UNK     1      19.615  -6.384  36.215  1.00  0.00     0.056 A 
HETATM   18  C3  UNK     1      20.592  -7.252  35.521  1.00  0.00     0.198 A 
HETATM   19  C1  UNK     1      20.795  -8.591  36.104  1.00  0.00     0.052 A 
HETATM   20  O2  UNK     1      21.196  -6.884  34.523  1.00  0.00    -0.286 OA
HETATM   21  C2  UNK     1      20.075  -8.950  37.246  1.00  0.00     0.111 A 
HETATM   22  C5  UNK     1      21.692  -9.491  35.526  1.00  0.00     0.042 A 
HETATM   23  O1  UNK     1      19.180  -8.106  37.856  1.00  0.00    -0.319 OA
HETATM   24  C6  UNK     1      20.252 -10.211  37.815  1.00  0.00     0.070 A 
HETATM   25  C7  UNK     1      18.998  -6.861  37.301  1.00  0.00     0.159 A 
HETATM   26 Cl1  UNK     1      19.385 -10.695  39.227  1.00  0.00    -0.081 Cl
HETATM   27  C9  UNK     1      21.148 -11.112  37.238  1.00  0.00     0.050 A 
HETATM   28  C8  UNK     1      21.867 -10.753  36.097  1.00  0.00     0.036 A 
HETATM   29 Cl2  UNK     1      22.969 -11.870  35.390  1.00  0.00    -0.084 Cl
ENDBRANCH   2  17
TORSDOF 4
ENDMDL
