MODEL 1
REMARK VINA RESULT:     -12.1      0.000      0.000
REMARK  3 active torsions:
REMARK  status: ('A' for Active; 'I' for Inactive)
REMARK    1  A    between atoms: C5_12  and  N1_5 
REMARK       I    between atoms: C9_16  and  N1_5 
REMARK    2  A    between atoms: C1_8  and  C9_16 
REMARK    3  A    between atoms: C16_23  and  C8_15 
ROOT
HETATM    1 Cl1  UNK     1      17.429   1.985  35.056  1.00  0.00    -0.082 Cl
HETATM    2  N2  UNK     1      18.887  -0.318  33.872  1.00  0.00    -0.246 NA
HETATM    3  C1  UNK     1      19.709  -2.597  35.212  1.00  0.00     0.047 A 
HETATM    4  C2  UNK     1      19.030  -1.599  35.909  1.00  0.00     0.010 A 
HETATM    5  C4  UNK     1      18.630  -0.455  35.186  1.00  0.00     0.090 A 
HETATM    6  C7  UNK     1      19.980  -2.471  33.864  1.00  0.00     0.050 A 
HETATM    7  C8  UNK     1      19.550  -1.316  33.243  1.00  0.00     0.069 A 
HETATM    8  C14 UNK     1      18.746  -1.707  37.280  1.00  0.00     0.015 A 
HETATM    9  C15 UNK     1      17.952   0.549  35.873  1.00  0.00     0.063 A 
HETATM   10  C18 UNK     1      18.066  -0.688  37.942  1.00  0.00     0.003 A 
HETATM   11  C19 UNK     1      17.669   0.441  37.237  1.00  0.00     0.026 A 
ENDROOT
BRANCH   3  12
HETATM   12  C9  UNK     1      20.175  -3.832  35.867  1.00  0.00     0.257 C 
HETATM   13  O2  UNK     1      21.099  -3.809  36.677  1.00  0.00    -0.267 OA
HETATM   14  N1  UNK     1      19.460  -4.998  35.523  1.00  0.00    -0.323 N 
HETATM   15  H3  UNK     1      18.711  -4.884  34.843  1.00  0.00     0.169 HD
BRANCH  14  16
HETATM   16  C5  UNK     1      19.638  -6.297  35.999  1.00  0.00     0.037 A 
HETATM   17  C11 UNK     1      20.563  -7.142  35.395  1.00  0.00     0.067 A 
HETATM   18  C6  UNK     1      20.725  -8.438  35.887  1.00  0.00     0.092 A 
HETATM   19  C3  UNK     1      19.991  -8.921  36.972  1.00  0.00     0.004 A 
HETATM   20  O1  UNK     1      21.677  -9.246  35.235  1.00  0.00    -0.275 OA
HETATM   21  C10 UNK     1      20.227 -10.298  37.424  1.00  0.00    -0.043 A 
HETATM   22  C12 UNK     1      19.064  -8.054  37.567  1.00  0.00     0.017 A 
HETATM   23  C17 UNK     1      21.139 -11.044  36.784  1.00  0.00     0.090 A 
HETATM   24  C20 UNK     1      19.453 -10.847  38.587  1.00  0.00     0.049 C 
HETATM   25  C21 UNK     1      21.922 -10.550  35.639  1.00  0.00     0.288 A 
HETATM   26  O3  UNK     1      22.747 -11.261  35.078  1.00  0.00    -0.260 OA
HETATM   27  C13 UNK     1      18.890  -6.752  37.084  1.00  0.00     0.030 A 
ENDBRANCH  14  16
ENDBRANCH   3  12
BRANCH   7  28
HETATM   28  C16 UNK     1      19.784  -1.094  31.836  1.00  0.00    -0.005 A 
HETATM   29  C22 UNK     1      20.300  -2.115  31.042  1.00  0.00     0.033 A 
HETATM   30  C24 UNK     1      20.508  -1.851  29.698  1.00  0.00     0.117 A 
HETATM   31  N3  UNK     1      20.240  -0.664  29.109  1.00  0.00    -0.273 NA
HETATM   32  C25 UNK     1      19.740   0.304  29.909  1.00  0.00     0.117 A 
HETATM   33  C23 UNK     1      19.497   0.142  31.264  1.00  0.00     0.033 A 
ENDBRANCH   7  28
TORSDOF 3
ENDMDL
MODEL 2
REMARK VINA RESULT:     -11.0      6.685     12.782
REMARK  3 active torsions:
REMARK  status: ('A' for Active; 'I' for Inactive)
REMARK    1  A    between atoms: C5_12  and  N1_5 
REMARK       I    between atoms: C9_16  and  N1_5 
REMARK    2  A    between atoms: C1_8  and  C9_16 
REMARK    3  A    between atoms: C16_23  and  C8_15 
ROOT
HETATM    1 Cl1  UNK     1      19.893  -2.078  31.107  1.00  0.00    -0.082 Cl
HETATM    2  N2  UNK     1      18.917  -0.155  33.152  1.00  0.00    -0.246 NA
HETATM    3  C1  UNK     1      18.290   2.508  32.725  1.00  0.00     0.047 A 
HETATM    4  C2  UNK     1      18.737   1.729  31.660  1.00  0.00     0.010 A 
HETATM    5  C4  UNK     1      19.045   0.377  31.922  1.00  0.00     0.090 A 
HETATM    6  C7  UNK     1      18.154   1.976  33.993  1.00  0.00     0.050 A 
HETATM    7  C8  UNK     1      18.479   0.644  34.152  1.00  0.00     0.069 A 
HETATM    8  C14 UNK     1      18.883   2.250  30.364  1.00  0.00     0.015 A 
HETATM    9  C15 UNK     1      19.494  -0.410  30.864  1.00  0.00     0.063 A 
HETATM   10  C18 UNK     1      19.334   1.441  29.324  1.00  0.00     0.003 A 
HETATM   11  C19 UNK     1      19.639   0.110  29.576  1.00  0.00     0.026 A 
ENDROOT
BRANCH   3  12
HETATM   12  C9  UNK     1      17.942   3.931  32.565  1.00  0.00     0.257 C 
HETATM   13  O2  UNK     1      17.258   4.312  31.618  1.00  0.00    -0.267 OA
HETATM   14  N1  UNK     1      18.416   4.781  33.586  1.00  0.00    -0.323 N 
HETATM   15  H3  UNK     1      18.968   4.341  34.319  1.00  0.00     0.169 HD
BRANCH  14  16
HETATM   16  C5  UNK     1      18.222   6.154  33.730  1.00  0.00     0.037 A 
HETATM   17  C11 UNK     1      16.949   6.658  33.973  1.00  0.00     0.067 A 
HETATM   18  C6  UNK     1      16.777   8.037  34.115  1.00  0.00     0.092 A 
HETATM   19  C3  UNK     1      17.842   8.934  34.024  1.00  0.00     0.004 A 
HETATM   20  O1  UNK     1      15.464   8.487  34.360  1.00  0.00    -0.275 OA
HETATM   21  C10 UNK     1      17.570  10.368  34.186  1.00  0.00    -0.043 A 
HETATM   22  C12 UNK     1      19.117   8.407  33.778  1.00  0.00     0.017 A 
HETATM   23  C17 UNK     1      16.311  10.768  34.419  1.00  0.00     0.090 A 
HETATM   24  C20 UNK     1      18.693  11.359  34.092  1.00  0.00     0.049 C 
HETATM   25  C21 UNK     1      15.177   9.834  34.518  1.00  0.00     0.288 A 
HETATM   26  O3  UNK     1      14.039  10.236  34.732  1.00  0.00    -0.260 OA
HETATM   27  C13 UNK     1      19.305   7.027  33.634  1.00  0.00     0.030 A 
ENDBRANCH  14  16
ENDBRANCH   3  12
BRANCH   7  28
HETATM   28  C16 UNK     1      18.368  -0.002  35.439  1.00  0.00    -0.005 A 
HETATM   29  C22 UNK     1      18.824  -1.307  35.608  1.00  0.00     0.033 A 
HETATM   30  C24 UNK     1      18.694  -1.882  36.861  1.00  0.00     0.117 A 
HETATM   31  N3  UNK     1      18.152  -1.257  37.930  1.00  0.00    -0.273 NA
HETATM   32  C25 UNK     1      17.720   0.008  37.730  1.00  0.00     0.117 A 
HETATM   33  C23 UNK     1      17.804   0.674  36.516  1.00  0.00     0.033 A 
ENDBRANCH   7  28
TORSDOF 3
ENDMDL
MODEL 3
REMARK VINA RESULT:     -11.0      1.246      2.022
REMARK  3 active torsions:
REMARK  status: ('A' for Active; 'I' for Inactive)
REMARK    1  A    between atoms: C5_12  and  N1_5 
REMARK       I    between atoms: C9_16  and  N1_5 
REMARK    2  A    between atoms: C1_8  and  C9_16 
REMARK    3  A    between atoms: C16_23  and  C8_15 
ROOT
HETATM    1 Cl1  UNK     1      17.214   1.724  35.257  1.00  0.00    -0.082 Cl
HETATM    2  N2  UNK     1      18.788  -0.398  33.896  1.00  0.00    -0.246 NA
HETATM    3  C1  UNK     1      19.761  -2.715  35.061  1.00  0.00     0.047 A 
HETATM    4  C2  UNK     1      19.035  -1.810  35.834  1.00  0.00     0.010 A 
HETATM    5  C4  UNK     1      18.558  -0.643  35.200  1.00  0.00     0.090 A 
HETATM    6  C7  UNK     1      20.005  -2.477  33.722  1.00  0.00     0.050 A 
HETATM    7  C8  UNK     1      19.498  -1.309  33.190  1.00  0.00     0.069 A 
HETATM    8  C14 UNK     1      18.776  -2.032  37.197  1.00  0.00     0.015 A 
HETATM    9  C15 UNK     1      17.833   0.267  35.964  1.00  0.00     0.063 A 
HETATM   10  C18 UNK     1      18.048  -1.105  37.937  1.00  0.00     0.003 A 
HETATM   11  C19 UNK     1      17.576   0.046  37.319  1.00  0.00     0.026 A 
ENDROOT
BRANCH   3  12
HETATM   12  C9  UNK     1      20.307  -3.963  35.621  1.00  0.00     0.257 C 
HETATM   13  O2  UNK     1      21.138  -3.940  36.526  1.00  0.00    -0.267 OA
HETATM   14  N1  UNK     1      19.776  -5.148  35.071  1.00  0.00    -0.323 N 
HETATM   15  H3  UNK     1      19.088  -5.033  34.329  1.00  0.00     0.169 HD
BRANCH  14  16
HETATM   16  C5  UNK     1      20.063  -6.469  35.414  1.00  0.00     0.037 A 
HETATM   17  C11 UNK     1      19.607  -6.993  36.619  1.00  0.00     0.067 A 
HETATM   18  C6  UNK     1      19.906  -8.318  36.943  1.00  0.00     0.092 A 
HETATM   19  C3  UNK     1      20.649  -9.142  36.096  1.00  0.00     0.004 A 
HETATM   20  O1  UNK     1      19.416  -8.792  38.175  1.00  0.00    -0.275 OA
HETATM   21  C10 UNK     1      20.917 -10.524  36.517  1.00  0.00    -0.043 A 
HETATM   22  C12 UNK     1      21.100  -8.596  34.888  1.00  0.00     0.017 A 
HETATM   23  C17 UNK     1      20.438 -10.948  37.696  1.00  0.00     0.090 A 
HETATM   24  C20 UNK     1      21.714 -11.435  35.631  1.00  0.00     0.049 C 
HETATM   25  C21 UNK     1      19.652 -10.091  38.599  1.00  0.00     0.288 A 
HETATM   26  O3  UNK     1      19.230 -10.513  39.669  1.00  0.00    -0.260 OA
HETATM   27  C13 UNK     1      20.808  -7.269  34.549  1.00  0.00     0.030 A 
ENDBRANCH  14  16
ENDBRANCH   3  12
BRANCH   7  28
HETATM   28  C16 UNK     1      19.699  -0.973  31.800  1.00  0.00    -0.005 A 
HETATM   29  C22 UNK     1      19.365   0.294  31.330  1.00  0.00     0.033 A 
HETATM   30  C24 UNK     1      19.576   0.567  29.989  1.00  0.00     0.117 A 
HETATM   31  N3  UNK     1      20.087  -0.321  29.108  1.00  0.00    -0.273 NA
HETATM   32  C25 UNK     1      20.401  -1.541  29.597  1.00  0.00     0.117 A 
HETATM   33  C23 UNK     1      20.228  -1.914  30.921  1.00  0.00     0.033 A 
ENDBRANCH   7  28
TORSDOF 3
ENDMDL
MODEL 4
REMARK VINA RESULT:     -11.0      1.751      2.212
REMARK  3 active torsions:
REMARK  status: ('A' for Active; 'I' for Inactive)
REMARK    1  A    between atoms: C5_12  and  N1_5 
REMARK       I    between atoms: C9_16  and  N1_5 
REMARK    2  A    between atoms: C1_8  and  C9_16 
REMARK    3  A    between atoms: C16_23  and  C8_15 
ROOT
HETATM    1 Cl1  UNK     1      18.207   3.511  33.926  1.00  0.00    -0.082 Cl
HETATM    2  N2  UNK     1      18.871   0.679  33.318  1.00  0.00    -0.246 NA
HETATM    3  C1  UNK     1      18.829  -1.432  35.110  1.00  0.00     0.047 A 
HETATM    4  C2  UNK     1      18.490  -0.153  35.548  1.00  0.00     0.010 A 
HETATM    5  C4  UNK     1      18.524   0.893  34.601  1.00  0.00     0.090 A 
HETATM    6  C7  UNK     1      19.187  -1.667  33.796  1.00  0.00     0.050 A 
HETATM    7  C8  UNK     1      19.191  -0.582  32.944  1.00  0.00     0.069 A 
HETATM    8  C14 UNK     1      18.124   0.108  36.879  1.00  0.00     0.015 A 
HETATM    9  C15 UNK     1      18.188   2.175  35.029  1.00  0.00     0.063 A 
HETATM   10  C18 UNK     1      17.792   1.399  37.279  1.00  0.00     0.003 A 
HETATM   11  C19 UNK     1      17.825   2.433  36.353  1.00  0.00     0.026 A 
ENDROOT
BRANCH   3  12
HETATM   12  C9  UNK     1      18.829  -2.596  36.014  1.00  0.00     0.257 C 
HETATM   13  O2  UNK     1      17.865  -2.835  36.737  1.00  0.00    -0.267 OA
HETATM   14  N1  UNK     1      19.980  -3.407  35.943  1.00  0.00    -0.323 N 
HETATM   15  H3  UNK     1      20.707  -3.104  35.299  1.00  0.00     0.169 HD
BRANCH  14  16
HETATM   16  C5  UNK     1      20.255  -4.584  36.640  1.00  0.00     0.037 A 
HETATM   17  C11 UNK     1      19.609  -5.766  36.297  1.00  0.00     0.067 A 
HETATM   18  C6  UNK     1      19.900  -6.933  37.007  1.00  0.00     0.092 A 
HETATM   19  C3  UNK     1      20.823  -6.957  38.054  1.00  0.00     0.004 A 
HETATM   20  O1  UNK     1      19.213  -8.099  36.614  1.00  0.00    -0.275 OA
HETATM   21  C10 UNK     1      21.068  -8.230  38.746  1.00  0.00    -0.043 A 
HETATM   22  C12 UNK     1      21.464  -5.756  38.384  1.00  0.00     0.017 A 
HETATM   23  C17 UNK     1      20.400  -9.323  38.350  1.00  0.00     0.090 A 
HETATM   24  C20 UNK     1      22.053  -8.289  39.876  1.00  0.00     0.049 C 
HETATM   25  C21 UNK     1      19.424  -9.314  37.248  1.00  0.00     0.288 A 
HETATM   26  O3  UNK     1      18.832 -10.333  36.914  1.00  0.00    -0.260 OA
HETATM   27  C13 UNK     1      21.182  -4.579  37.681  1.00  0.00     0.030 A 
ENDBRANCH  14  16
ENDBRANCH   3  12
BRANCH   7  28
HETATM   28  C16 UNK     1      19.549  -0.727  31.553  1.00  0.00    -0.005 A 
HETATM   29  C22 UNK     1      20.021  -1.947  31.075  1.00  0.00     0.033 A 
HETATM   30  C24 UNK     1      20.351  -2.036  29.733  1.00  0.00     0.117 A 
HETATM   31  N3  UNK     1      20.244  -1.012  28.858  1.00  0.00    -0.273 NA
HETATM   32  C25 UNK     1      19.782   0.157  29.355  1.00  0.00     0.117 A 
HETATM   33  C23 UNK     1      19.425   0.350  30.681  1.00  0.00     0.033 A 
ENDBRANCH   7  28
TORSDOF 3
ENDMDL
MODEL 5
REMARK VINA RESULT:     -10.6      1.846      2.222
REMARK  3 active torsions:
REMARK  status: ('A' for Active; 'I' for Inactive)
REMARK    1  A    between atoms: C5_12  and  N1_5 
REMARK       I    between atoms: C9_16  and  N1_5 
REMARK    2  A    between atoms: C1_8  and  C9_16 
REMARK    3  A    between atoms: C16_23  and  C8_15 
ROOT
HETATM    1 Cl1  UNK     1      17.907   3.058  33.937  1.00  0.00    -0.082 Cl
HETATM    2  N2  UNK     1      18.959   0.319  33.462  1.00  0.00    -0.246 NA
HETATM    3  C1  UNK     1      19.205  -1.689  35.353  1.00  0.00     0.047 A 
HETATM    4  C2  UNK     1      18.690  -0.450  35.730  1.00  0.00     0.010 A 
HETATM    5  C4  UNK     1      18.582   0.544  34.735  1.00  0.00     0.090 A 
HETATM    6  C7  UNK     1      19.596  -1.934  34.051  1.00  0.00     0.050 A 
HETATM    7  C8  UNK     1      19.453  -0.901  33.148  1.00  0.00     0.069 A 
HETATM    8  C14 UNK     1      18.287  -0.180  37.049  1.00  0.00     0.015 A 
HETATM    9  C15 UNK     1      18.070   1.786  35.102  1.00  0.00     0.063 A 
HETATM   10  C18 UNK     1      17.778   1.071  37.389  1.00  0.00     0.003 A 
HETATM   11  C19 UNK     1      17.670   2.054  36.414  1.00  0.00     0.026 A 
ENDROOT
BRANCH   3  12
HETATM   12  C9  UNK     1      19.363  -2.798  36.311  1.00  0.00     0.257 C 
HETATM   13  O2  UNK     1      19.354  -2.593  37.523  1.00  0.00    -0.267 OA
HETATM   14  N1  UNK     1      19.480  -4.077  35.730  1.00  0.00    -0.323 N 
HETATM   15  H3  UNK     1      19.467  -4.115  34.713  1.00  0.00     0.169 HD
BRANCH  14  16
HETATM   16  C5  UNK     1      19.604  -5.311  36.368  1.00  0.00     0.037 A 
HETATM   17  C11 UNK     1      20.616  -5.518  37.299  1.00  0.00     0.067 A 
HETATM   18  C6  UNK     1      20.721  -6.761  37.927  1.00  0.00     0.092 A 
HETATM   19  C3  UNK     1      19.842  -7.810  37.654  1.00  0.00     0.004 A 
HETATM   20  O1  UNK     1      21.766  -6.910  38.860  1.00  0.00    -0.275 OA
HETATM   21  C10 UNK     1      20.026  -9.085  38.362  1.00  0.00    -0.043 A 
HETATM   22  C12 UNK     1      18.829  -7.582  36.714  1.00  0.00     0.017 A 
HETATM   23  C17 UNK     1      21.029  -9.197  39.245  1.00  0.00     0.090 A 
HETATM   24  C20 UNK     1      19.099 -10.232  38.091  1.00  0.00     0.049 C 
HETATM   25  C21 UNK     1      21.965  -8.100  39.543  1.00  0.00     0.288 A 
HETATM   26  O3  UNK     1      22.870  -8.240  40.357  1.00  0.00    -0.260 OA
HETATM   27  C13 UNK     1      18.711  -6.342  36.076  1.00  0.00     0.030 A 
ENDBRANCH  14  16
ENDBRANCH   3  12
BRANCH   7  28
HETATM   28  C16 UNK     1      19.832  -1.062  31.764  1.00  0.00    -0.005 A 
HETATM   29  C22 UNK     1      19.810   0.031  30.901  1.00  0.00     0.033 A 
HETATM   30  C24 UNK     1      20.182  -0.175  29.583  1.00  0.00     0.117 A 
HETATM   31  N3  UNK     1      20.565  -1.371  29.082  1.00  0.00    -0.273 NA
HETATM   32  C25 UNK     1      20.576  -2.409  29.948  1.00  0.00     0.117 A 
HETATM   33  C23 UNK     1      20.221  -2.309  31.284  1.00  0.00     0.033 A 
ENDBRANCH   7  28
TORSDOF 3
ENDMDL
MODEL 6
REMARK VINA RESULT:     -10.5      1.425      4.136
REMARK  3 active torsions:
REMARK  status: ('A' for Active; 'I' for Inactive)
REMARK    1  A    between atoms: C5_12  and  N1_5 
REMARK       I    between atoms: C9_16  and  N1_5 
REMARK    2  A    between atoms: C1_8  and  C9_16 
REMARK    3  A    between atoms: C16_23  and  C8_15 
ROOT
HETATM    1 Cl1  UNK     1      19.008   0.780  31.379  1.00  0.00    -0.082 Cl
HETATM    2  N2  UNK     1      18.537  -0.279  34.116  1.00  0.00    -0.246 NA
HETATM    3  C1  UNK     1      19.594  -2.612  35.171  1.00  0.00     0.047 A 
HETATM    4  C2  UNK     1      19.910  -2.245  33.863  1.00  0.00     0.010 A 
HETATM    5  C4  UNK     1      19.350  -1.049  33.367  1.00  0.00     0.090 A 
HETATM    6  C7  UNK     1      18.762  -1.832  35.951  1.00  0.00     0.050 A 
HETATM    7  C8  UNK     1      18.263  -0.680  35.378  1.00  0.00     0.069 A 
HETATM    8  C14 UNK     1      20.753  -3.024  33.053  1.00  0.00     0.015 A 
HETATM    9  C15 UNK     1      19.658  -0.675  32.061  1.00  0.00     0.063 A 
HETATM   10  C18 UNK     1      21.044  -2.625  31.751  1.00  0.00     0.003 A 
HETATM   11  C19 UNK     1      20.496  -1.449  31.256  1.00  0.00     0.026 A 
ENDROOT
BRANCH   3  12
HETATM   12  C9  UNK     1      20.121  -3.841  35.790  1.00  0.00     0.257 C 
HETATM   13  O2  UNK     1      21.144  -3.817  36.471  1.00  0.00    -0.267 OA
HETATM   14  N1  UNK     1      19.348  -4.999  35.571  1.00  0.00    -0.323 N 
HETATM   15  H3  UNK     1      18.518  -4.886  34.993  1.00  0.00     0.169 HD
BRANCH  14  16
HETATM   16  C5  UNK     1      19.565  -6.290  36.052  1.00  0.00     0.037 A 
HETATM   17  C11 UNK     1      20.502  -7.115  35.440  1.00  0.00     0.067 A 
HETATM   18  C6  UNK     1      20.704  -8.404  35.938  1.00  0.00     0.092 A 
HETATM   19  C3  UNK     1      19.998  -8.898  37.035  1.00  0.00     0.004 A 
HETATM   20  O1  UNK     1      21.666  -9.193  35.276  1.00  0.00    -0.275 OA
HETATM   21  C10 UNK     1      20.275 -10.267  37.493  1.00  0.00    -0.043 A 
HETATM   22  C12 UNK     1      19.058  -8.052  37.638  1.00  0.00     0.017 A 
HETATM   23  C17 UNK     1      21.196 -10.994  36.844  1.00  0.00     0.090 A 
HETATM   24  C20 UNK     1      19.532 -10.828  38.669  1.00  0.00     0.049 C 
HETATM   25  C21 UNK     1      21.949 -10.487  35.684  1.00  0.00     0.288 A 
HETATM   26  O3  UNK     1      22.784 -11.181  35.116  1.00  0.00    -0.260 OA
HETATM   27  C13 UNK     1      18.845  -6.757  37.151  1.00  0.00     0.030 A 
ENDBRANCH  14  16
ENDBRANCH   3  12
BRANCH   7  28
HETATM   28  C16 UNK     1      17.387   0.200  36.115  1.00  0.00    -0.005 A 
HETATM   29  C22 UNK     1      17.902   1.031  37.107  1.00  0.00     0.033 A 
HETATM   30  C24 UNK     1      17.021   1.857  37.785  1.00  0.00     0.117 A 
HETATM   31  N3  UNK     1      15.692   1.906  37.545  1.00  0.00    -0.273 NA
HETATM   32  C25 UNK     1      15.226   1.086  36.576  1.00  0.00     0.117 A 
HETATM   33  C23 UNK     1      16.023   0.223  35.840  1.00  0.00     0.033 A 
ENDBRANCH   7  28
TORSDOF 3
ENDMDL
MODEL 7
REMARK VINA RESULT:     -10.2      5.968     12.024
REMARK  3 active torsions:
REMARK  status: ('A' for Active; 'I' for Inactive)
REMARK    1  A    between atoms: C5_12  and  N1_5 
REMARK       I    between atoms: C9_16  and  N1_5 
REMARK    2  A    between atoms: C1_8  and  C9_16 
REMARK    3  A    between atoms: C16_23  and  C8_15 
ROOT
HETATM    1 Cl1  UNK     1      20.852  -3.173  30.822  1.00  0.00    -0.082 Cl
HETATM    2  N2  UNK     1      19.585  -1.355  32.803  1.00  0.00    -0.246 NA
HETATM    3  C1  UNK     1      18.666   1.211  32.314  1.00  0.00     0.047 A 
HETATM    4  C2  UNK     1      19.239   0.477  31.276  1.00  0.00     0.010 A 
HETATM    5  C4  UNK     1      19.694  -0.825  31.570  1.00  0.00     0.090 A 
HETATM    6  C7  UNK     1      18.547   0.680  33.584  1.00  0.00     0.050 A 
HETATM    7  C8  UNK     1      19.021  -0.602  33.775  1.00  0.00     0.069 A 
HETATM    8  C14 UNK     1      19.369   0.998  29.978  1.00  0.00     0.015 A 
HETATM    9  C15 UNK     1      20.269  -1.566  30.540  1.00  0.00     0.063 A 
HETATM   10  C18 UNK     1      19.948   0.236  28.967  1.00  0.00     0.003 A 
HETATM   11  C19 UNK     1      20.399  -1.047  29.249  1.00  0.00     0.026 A 
ENDROOT
BRANCH   3  12
HETATM   12  C9  UNK     1      18.159   2.581  32.120  1.00  0.00     0.257 C 
HETATM   13  O2  UNK     1      17.358   2.838  31.224  1.00  0.00    -0.267 OA
HETATM   14  N1  UNK     1      18.631   3.529  33.051  1.00  0.00    -0.323 N 
HETATM   15  H3  UNK     1      19.288   3.189  33.749  1.00  0.00     0.169 HD
BRANCH  14  16
HETATM   16  C5  UNK     1      18.308   4.883  33.148  1.00  0.00     0.037 A 
HETATM   17  C11 UNK     1      19.257   5.798  33.590  1.00  0.00     0.067 A 
HETATM   18  C6  UNK     1      18.913   7.148  33.680  1.00  0.00     0.092 A 
HETATM   19  C3  UNK     1      17.644   7.617  33.338  1.00  0.00     0.004 A 
HETATM   20  O1  UNK     1      19.917   8.026  34.133  1.00  0.00    -0.275 OA
HETATM   21  C10 UNK     1      17.368   9.055  33.463  1.00  0.00    -0.043 A 
HETATM   22  C12 UNK     1      16.701   6.680  32.895  1.00  0.00     0.017 A 
HETATM   23  C17 UNK     1      18.343   9.868  33.897  1.00  0.00     0.090 A 
HETATM   24  C20 UNK     1      16.014   9.592  33.105  1.00  0.00     0.049 C 
HETATM   25  C21 UNK     1      19.687   9.388  34.261  1.00  0.00     0.288 A 
HETATM   26  O3  UNK     1      20.553  10.160  34.654  1.00  0.00    -0.260 OA
HETATM   27  C13 UNK     1      17.032   5.323  32.800  1.00  0.00     0.030 A 
ENDBRANCH  14  16
ENDBRANCH   3  12
BRANCH   7  28
HETATM   28  C16 UNK     1      18.940  -1.243  35.066  1.00  0.00    -0.005 A 
HETATM   29  C22 UNK     1      17.897  -0.935  35.936  1.00  0.00     0.033 A 
HETATM   30  C24 UNK     1      17.864  -1.577  37.163  1.00  0.00     0.117 A 
HETATM   31  N3  UNK     1      18.782  -2.482  37.569  1.00  0.00    -0.273 NA
HETATM   32  C25 UNK     1      19.780  -2.757  36.700  1.00  0.00     0.117 A 
HETATM   33  C23 UNK     1      19.903  -2.170  35.450  1.00  0.00     0.033 A 
ENDBRANCH   7  28
TORSDOF 3
ENDMDL
MODEL 8
REMARK VINA RESULT:      -9.9      7.365     13.511
REMARK  3 active torsions:
REMARK  status: ('A' for Active; 'I' for Inactive)
REMARK    1  A    between atoms: C5_12  and  N1_5 
REMARK       I    between atoms: C9_16  and  N1_5 
REMARK    2  A    between atoms: C1_8  and  C9_16 
REMARK    3  A    between atoms: C16_23  and  C8_15 
ROOT
HETATM    1 Cl1  UNK     1      19.425  -1.136  31.095  1.00  0.00    -0.082 Cl
HETATM    2  N2  UNK     1      18.646   0.904  33.111  1.00  0.00    -0.246 NA
HETATM    3  C1  UNK     1      18.141   3.582  32.616  1.00  0.00     0.047 A 
HETATM    4  C2  UNK     1      18.497   2.744  31.560  1.00  0.00     0.010 A 
HETATM    5  C4  UNK     1      18.745   1.388  31.858  1.00  0.00     0.090 A 
HETATM    6  C7  UNK     1      18.035   3.100  33.907  1.00  0.00     0.050 A 
HETATM    7  C8  UNK     1      18.297   1.759  34.099  1.00  0.00     0.069 A 
HETATM    8  C14 UNK     1      18.611   3.213  30.241  1.00  0.00     0.015 A 
HETATM    9  C15 UNK     1      19.103   0.543  30.810  1.00  0.00     0.063 A 
HETATM   10  C18 UNK     1      18.970   2.347  29.213  1.00  0.00     0.003 A 
HETATM   11  C19 UNK     1      19.216   1.010  29.498  1.00  0.00     0.026 A 
ENDROOT
BRANCH   3  12
HETATM   12  C9  UNK     1      17.861   5.015  32.420  1.00  0.00     0.257 C 
HETATM   13  O2  UNK     1      18.286   5.614  31.434  1.00  0.00    -0.267 OA
HETATM   14  N1  UNK     1      17.053   5.608  33.413  1.00  0.00    -0.323 N 
HETATM   15  H3  UNK     1      16.760   5.003  34.177  1.00  0.00     0.169 HD
BRANCH  14  16
HETATM   16  C5  UNK     1      16.592   6.922  33.484  1.00  0.00     0.037 A 
HETATM   17  C11 UNK     1      17.473   7.957  33.774  1.00  0.00     0.067 A 
HETATM   18  C6  UNK     1      16.990   9.266  33.840  1.00  0.00     0.092 A 
HETATM   19  C3  UNK     1      15.646   9.576  33.624  1.00  0.00     0.004 A 
HETATM   20  O1  UNK     1      17.931  10.272  34.137  1.00  0.00    -0.275 OA
HETATM   21  C10 UNK     1      15.225  10.980  33.713  1.00  0.00    -0.043 A 
HETATM   22  C12 UNK     1      14.774   8.518  33.333  1.00  0.00     0.017 A 
HETATM   23  C17 UNK     1      16.142  11.916  33.996  1.00  0.00     0.090 A 
HETATM   24  C20 UNK     1      13.787  11.346  33.486  1.00  0.00     0.049 C 
HETATM   25  C21 UNK     1      17.563  11.606  34.227  1.00  0.00     0.288 A 
HETATM   26  O3  UNK     1      18.373  12.488  34.485  1.00  0.00    -0.260 OA
HETATM   27  C13 UNK     1      15.244   7.202  33.263  1.00  0.00     0.030 A 
ENDBRANCH  14  16
ENDBRANCH   3  12
BRANCH   7  28
HETATM   28  C16 UNK     1      18.211   1.163  35.412  1.00  0.00    -0.005 A 
HETATM   29  C22 UNK     1      17.797   1.925  36.501  1.00  0.00     0.033 A 
HETATM   30  C24 UNK     1      17.731   1.308  37.739  1.00  0.00     0.117 A 
HETATM   31  N3  UNK     1      18.045   0.011  37.955  1.00  0.00    -0.273 NA
HETATM   32  C25 UNK     1      18.443  -0.699  36.876  1.00  0.00     0.117 A 
HETATM   33  C23 UNK     1      18.542  -0.175  35.597  1.00  0.00     0.033 A 
ENDBRANCH   7  28
TORSDOF 3
ENDMDL
MODEL 9
REMARK VINA RESULT:      -9.6      7.945     14.020
REMARK  3 active torsions:
REMARK  status: ('A' for Active; 'I' for Inactive)
REMARK    1  A    between atoms: C5_12  and  N1_5 
REMARK       I    between atoms: C9_16  and  N1_5 
REMARK    2  A    between atoms: C1_8  and  C9_16 
REMARK    3  A    between atoms: C16_23  and  C8_15 
ROOT
HETATM    1 Cl1  UNK     1      18.656   0.526  30.112  1.00  0.00    -0.082 Cl
HETATM    2  N2  UNK     1      18.319   1.746  32.800  1.00  0.00    -0.246 NA
HETATM    3  C1  UNK     1      18.365   4.452  33.386  1.00  0.00     0.047 A 
HETATM    4  C2  UNK     1      18.538   4.032  32.068  1.00  0.00     0.010 A 
HETATM    5  C4  UNK     1      18.507   2.644  31.815  1.00  0.00     0.090 A 
HETATM    6  C7  UNK     1      18.171   3.542  34.407  1.00  0.00     0.050 A 
HETATM    7  C8  UNK     1      18.156   2.206  34.062  1.00  0.00     0.069 A 
HETATM    8  C14 UNK     1      18.737   4.940  31.015  1.00  0.00     0.015 A 
HETATM    9  C15 UNK     1      18.681   2.214  30.502  1.00  0.00     0.063 A 
HETATM   10  C18 UNK     1      18.907   4.482  29.711  1.00  0.00     0.003 A 
HETATM   11  C19 UNK     1      18.879   3.117  29.455  1.00  0.00     0.026 A 
ENDROOT
BRANCH   3  12
HETATM   12  C9  UNK     1      18.381   5.876  33.763  1.00  0.00     0.257 C 
HETATM   13  O2  UNK     1      19.405   6.406  34.189  1.00  0.00    -0.267 OA
HETATM   14  N1  UNK     1      17.167   6.563  33.558  1.00  0.00    -0.323 N 
HETATM   15  H3  UNK     1      16.393   6.012  33.194  1.00  0.00     0.169 HD
BRANCH  14  16
HETATM   16  C5  UNK     1      16.884   7.910  33.782  1.00  0.00     0.037 A 
HETATM   17  C11 UNK     1      15.569   8.329  33.954  1.00  0.00     0.067 A 
HETATM   18  C6  UNK     1      15.308   9.683  34.178  1.00  0.00     0.092 A 
HETATM   19  C3  UNK     1      16.325  10.637  34.238  1.00  0.00     0.004 A 
HETATM   20  O1  UNK     1      13.958  10.046  34.345  1.00  0.00    -0.275 OA
HETATM   21  C10 UNK     1      15.960  12.040  34.479  1.00  0.00    -0.043 A 
HETATM   22  C12 UNK     1      17.643  10.195  34.063  1.00  0.00     0.017 A 
HETATM   23  C17 UNK     1      14.666  12.356  34.634  1.00  0.00     0.090 A 
HETATM   24  C20 UNK     1      17.029  13.090  34.548  1.00  0.00     0.049 C 
HETATM   25  C21 UNK     1      13.582  11.361  34.573  1.00  0.00     0.288 A 
HETATM   26  O3  UNK     1      12.411  11.688  34.720  1.00  0.00    -0.260 OA
HETATM   27  C13 UNK     1      17.920   8.842  33.837  1.00  0.00     0.030 A 
ENDBRANCH  14  16
ENDBRANCH   3  12
BRANCH   7  28
HETATM   28  C16 UNK     1      17.958   1.181  35.059  1.00  0.00    -0.005 A 
HETATM   29  C22 UNK     1      17.723   1.531  36.387  1.00  0.00     0.033 A 
HETATM   30  C24 UNK     1      17.540   0.510  37.305  1.00  0.00     0.117 A 
HETATM   31  N3  UNK     1      17.575  -0.804  36.993  1.00  0.00    -0.273 NA
HETATM   32  C25 UNK     1      17.805  -1.108  35.696  1.00  0.00     0.117 A 
HETATM   33  C23 UNK     1      18.001  -0.163  34.701  1.00  0.00     0.033 A 
ENDBRANCH   7  28
TORSDOF 3
ENDMDL
MODEL 10
REMARK VINA RESULT:      -9.3      2.187      4.695
REMARK  3 active torsions:
REMARK  status: ('A' for Active; 'I' for Inactive)
REMARK    1  A    between atoms: C5_12  and  N1_5 
REMARK       I    between atoms: C9_16  and  N1_5 
REMARK    2  A    between atoms: C1_8  and  C9_16 
REMARK    3  A    between atoms: C16_23  and  C8_15 
ROOT
HETATM    1 Cl1  UNK     1      18.332   1.987  30.813  1.00  0.00    -0.082 Cl
HETATM    2  N2  UNK     1      18.377   0.366  33.304  1.00  0.00    -0.246 NA
HETATM    3  C1  UNK     1      19.654  -2.067  33.649  1.00  0.00     0.047 A 
HETATM    4  C2  UNK     1      19.725  -1.424  32.415  1.00  0.00     0.010 A 
HETATM    5  C4  UNK     1      19.060  -0.186  32.283  1.00  0.00     0.090 A 
HETATM    6  C7  UNK     1      18.957  -1.513  34.706  1.00  0.00     0.050 A 
HETATM    7  C8  UNK     1      18.339  -0.299  34.482  1.00  0.00     0.069 A 
HETATM    8  C14 UNK     1      20.427  -1.970  31.328  1.00  0.00     0.015 A 
HETATM    9  C15 UNK     1      19.123   0.464  31.053  1.00  0.00     0.063 A 
HETATM   10  C18 UNK     1      20.475  -1.299  30.110  1.00  0.00     0.003 A 
HETATM   11  C19 UNK     1      19.822  -0.080  29.973  1.00  0.00     0.026 A 
ENDROOT
BRANCH   3  12
HETATM   12  C9  UNK     1      20.309  -3.363  33.897  1.00  0.00     0.257 C 
HETATM   13  O2  UNK     1      21.315  -3.693  33.274  1.00  0.00    -0.267 OA
HETATM   14  N1  UNK     1      19.719  -4.147  34.911  1.00  0.00    -0.323 N 
HETATM   15  H3  UNK     1      18.891  -3.759  35.357  1.00  0.00     0.169 HD
BRANCH  14  16
HETATM   16  C5  UNK     1      20.127  -5.391  35.393  1.00  0.00     0.037 A 
HETATM   17  C11 UNK     1      20.616  -5.511  36.689  1.00  0.00     0.067 A 
HETATM   18  C6  UNK     1      21.019  -6.766  37.152  1.00  0.00     0.092 A 
HETATM   19  C3  UNK     1      20.946  -7.911  36.357  1.00  0.00     0.004 A 
HETATM   20  O1  UNK     1      21.506  -6.825  38.472  1.00  0.00    -0.275 OA
HETATM   21  C10 UNK     1      21.391  -9.191  36.926  1.00  0.00    -0.043 A 
HETATM   22  C12 UNK     1      20.450  -7.769  35.055  1.00  0.00     0.017 A 
HETATM   23  C17 UNK     1      21.849  -9.217  38.186  1.00  0.00     0.090 A 
HETATM   24  C20 UNK     1      21.326 -10.441  36.098  1.00  0.00     0.049 C 
HETATM   25  C21 UNK     1      21.932  -8.017  39.036  1.00  0.00     0.288 A 
HETATM   26  O3  UNK     1      22.357  -8.080  40.184  1.00  0.00    -0.260 OA
HETATM   27  C13 UNK     1      20.043  -6.518  34.577  1.00  0.00     0.030 A 
ENDBRANCH  14  16
ENDBRANCH   3  12
BRANCH   7  28
HETATM   28  C16 UNK     1      17.589   0.360  35.525  1.00  0.00    -0.005 A 
HETATM   29  C22 UNK     1      18.254   1.013  36.559  1.00  0.00     0.033 A 
HETATM   30  C24 UNK     1      17.490   1.630  37.535  1.00  0.00     0.117 A 
HETATM   31  N3  UNK     1      16.138   1.637  37.547  1.00  0.00    -0.273 NA
HETATM   32  C25 UNK     1      15.525   0.994  36.528  1.00  0.00     0.117 A 
HETATM   33  C23 UNK     1      16.198   0.346  35.503  1.00  0.00     0.033 A 
ENDBRANCH   7  28
TORSDOF 3
ENDMDL
