MODEL 1
REMARK VINA RESULT:      -7.8      0.000      0.000
REMARK  2 active torsions:
REMARK  status: ('A' for Active; 'I' for Inactive)
REMARK    1  A    between atoms: C16_19  and  O3_3 
REMARK    2  A    between atoms: C3_6  and  C4_7 
ROOT
HETATM    1  O1  UNK     1      16.983   7.412  32.287  1.00  0.00    -0.309 OA
HETATM    2  O2  UNK     1      19.844   9.131  34.625  1.00  0.00    -0.287 OA
HETATM    3  C1  UNK     1      17.654   9.238  33.742  1.00  0.00     0.048 A 
HETATM    4  C2  UNK     1      16.721   8.596  32.930  1.00  0.00     0.090 A 
HETATM    5  C3  UNK     1      18.234   6.836  32.450  1.00  0.00     0.090 A 
HETATM    6  C5  UNK     1      17.332  10.442  34.372  1.00  0.00     0.025 A 
HETATM    7  C6  UNK     1      16.067  11.001  34.182  1.00  0.00    -0.061 A 
HETATM    8  C7  UNK     1      18.978   8.625  33.924  1.00  0.00     0.187 A 
HETATM    9  C8  UNK     1      19.212   7.354  33.209  1.00  0.00     0.093 A 
HETATM   10  C9  UNK     1      15.457   9.156  32.742  1.00  0.00     0.039 A 
HETATM   11  C10 UNK     1      15.132  10.359  33.369  1.00  0.00     0.009 A 
HETATM   12  C13 UNK     1      15.713  12.287  34.850  1.00  0.00     0.048 C 
ENDROOT
BRANCH   5  13
HETATM   13  C4  UNK     1      18.407   5.563  31.720  1.00  0.00    -0.002 A 
HETATM   14  C11 UNK     1      18.932   5.564  30.425  1.00  0.00     0.017 A 
HETATM   15  C14 UNK     1      19.095   4.362  29.736  1.00  0.00     0.037 A 
HETATM   16  C16 UNK     1      18.733   3.157  30.337  1.00  0.00     0.068 A 
HETATM   17  C15 UNK     1      18.208   3.154  31.630  1.00  0.00     0.037 A 
HETATM   18  C12 UNK     1      18.045   4.356  32.319  1.00  0.00     0.017 A 
BRANCH  16  19
HETATM   19  O3  UNK     1      18.893   1.985  29.665  1.00  0.00    -0.356 OA
HETATM   20  C17 UNK     1      17.960   1.702  28.622  1.00  0.00     0.210 C 
ENDBRANCH  16  19
ENDBRANCH   5  13
TORSDOF 2
ENDMDL
MODEL 2
REMARK VINA RESULT:      -7.7      2.343      8.133
REMARK  2 active torsions:
REMARK  status: ('A' for Active; 'I' for Inactive)
REMARK    1  A    between atoms: C16_19  and  O3_3 
REMARK    2  A    between atoms: C3_6  and  C4_7 
ROOT
HETATM    1  O1  UNK     1      18.618   3.239  30.982  1.00  0.00    -0.309 OA
HETATM    2  O2  UNK     1      18.585   0.607  34.092  1.00  0.00    -0.287 OA
HETATM    3  C1  UNK     1      18.992   0.981  31.794  1.00  0.00     0.048 A 
HETATM    4  C2  UNK     1      18.983   1.933  30.775  1.00  0.00     0.090 A 
HETATM    5  C3  UNK     1      18.235   3.625  32.258  1.00  0.00     0.090 A 
HETATM    6  C5  UNK     1      19.373  -0.336  31.526  1.00  0.00     0.025 A 
HETATM    7  C6  UNK     1      19.745  -0.694  30.230  1.00  0.00    -0.061 A 
HETATM    8  C7  UNK     1      18.597   1.389  33.150  1.00  0.00     0.187 A 
HETATM    9  C8  UNK     1      18.210   2.804  33.319  1.00  0.00     0.093 A 
HETATM   10  C9  UNK     1      19.355   1.572  29.480  1.00  0.00     0.039 A 
HETATM   11  C10 UNK     1      19.736   0.258  29.209  1.00  0.00     0.009 A 
HETATM   12  C13 UNK     1      20.153  -2.098  29.933  1.00  0.00     0.048 C 
ENDROOT
BRANCH   5  13
HETATM   13  C4  UNK     1      17.869   5.051  32.368  1.00  0.00    -0.002 A 
HETATM   14  C11 UNK     1      17.529   5.594  33.610  1.00  0.00     0.017 A 
HETATM   15  C14 UNK     1      17.182   6.941  33.714  1.00  0.00     0.037 A 
HETATM   16  C16 UNK     1      17.174   7.750  32.577  1.00  0.00     0.068 A 
HETATM   17  C15 UNK     1      17.513   7.210  31.336  1.00  0.00     0.037 A 
HETATM   18  C12 UNK     1      17.859   5.863  31.232  1.00  0.00     0.017 A 
BRANCH  16  19
HETATM   19  O3  UNK     1      16.837   9.064  32.680  1.00  0.00    -0.356 OA
HETATM   20  C17 UNK     1      16.683   9.594  33.995  1.00  0.00     0.210 C 
ENDBRANCH  16  19
ENDBRANCH   5  13
TORSDOF 2
ENDMDL
MODEL 3
REMARK VINA RESULT:      -7.7      1.547      1.756
REMARK  2 active torsions:
REMARK  status: ('A' for Active; 'I' for Inactive)
REMARK    1  A    between atoms: C16_19  and  O3_3 
REMARK    2  A    between atoms: C3_6  and  C4_7 
ROOT
HETATM    1  O1  UNK     1      16.562   5.861  32.396  1.00  0.00    -0.309 OA
HETATM    2  O2  UNK     1      19.041   7.658  35.085  1.00  0.00    -0.287 OA
HETATM    3  C1  UNK     1      16.925   7.620  34.032  1.00  0.00     0.048 A 
HETATM    4  C2  UNK     1      16.129   6.957  33.100  1.00  0.00     0.090 A 
HETATM    5  C3  UNK     1      17.851   5.400  32.620  1.00  0.00     0.090 A 
HETATM    6  C5  UNK     1      16.432   8.732  34.719  1.00  0.00     0.025 A 
HETATM    7  C6  UNK     1      15.133   9.176  34.465  1.00  0.00    -0.061 A 
HETATM    8  C7  UNK     1      18.289   7.128  34.279  1.00  0.00     0.187 A 
HETATM    9  C8  UNK     1      18.708   5.949  33.495  1.00  0.00     0.093 A 
HETATM   10  C9  UNK     1      14.831   7.403  32.848  1.00  0.00     0.039 A 
HETATM   11  C10 UNK     1      14.335   8.513  33.532  1.00  0.00     0.009 A 
HETATM   12  C13 UNK     1      14.597  10.362  35.193  1.00  0.00     0.048 C 
ENDROOT
BRANCH   5  13
HETATM   13  C4  UNK     1      18.211   4.215  31.816  1.00  0.00    -0.002 A 
HETATM   14  C11 UNK     1      18.519   4.354  30.461  1.00  0.00     0.017 A 
HETATM   15  C14 UNK     1      18.859   3.235  29.702  1.00  0.00     0.037 A 
HETATM   16  C16 UNK     1      18.891   1.972  30.294  1.00  0.00     0.068 A 
HETATM   17  C15 UNK     1      18.583   1.830  31.648  1.00  0.00     0.037 A 
HETATM   18  C12 UNK     1      18.244   2.950  32.407  1.00  0.00     0.017 A 
BRANCH  16  19
HETATM   19  O3  UNK     1      19.224   0.881  29.553  1.00  0.00    -0.356 OA
HETATM   20  C17 UNK     1      20.212   0.006  30.094  1.00  0.00     0.210 C 
ENDBRANCH  16  19
ENDBRANCH   5  13
TORSDOF 2
ENDMDL
MODEL 4
REMARK VINA RESULT:      -7.6      9.724     13.822
REMARK  2 active torsions:
REMARK  status: ('A' for Active; 'I' for Inactive)
REMARK    1  A    between atoms: C16_19  and  O3_3 
REMARK    2  A    between atoms: C3_6  and  C4_7 
ROOT
HETATM    1  O1  UNK     1      18.773  -4.726  36.494  1.00  0.00    -0.309 OA
HETATM    2  O2  UNK     1      22.405  -5.540  38.152  1.00  0.00    -0.287 OA
HETATM    3  C1  UNK     1      20.402  -6.376  37.219  1.00  0.00     0.048 A 
HETATM    4  C2  UNK     1      19.174  -6.028  36.658  1.00  0.00     0.090 A 
HETATM    5  C3  UNK     1      19.626  -3.715  36.912  1.00  0.00     0.090 A 
HETATM    6  C5  UNK     1      20.757  -7.720  37.362  1.00  0.00     0.025 A 
HETATM    7  C6  UNK     1      19.874  -8.714  36.938  1.00  0.00    -0.061 A 
HETATM    8  C7  UNK     1      21.312  -5.307  37.655  1.00  0.00     0.187 A 
HETATM    9  C8  UNK     1      20.833  -3.923  37.460  1.00  0.00     0.093 A 
HETATM   10  C9  UNK     1      18.293  -7.024  36.236  1.00  0.00     0.039 A 
HETATM   11  C10 UNK     1      18.644  -8.366  36.376  1.00  0.00     0.009 A 
HETATM   12  C13 UNK     1      20.244 -10.151  37.086  1.00  0.00     0.048 C 
ENDROOT
BRANCH   5  13
HETATM   13  C4  UNK     1      19.099  -2.355  36.684  1.00  0.00    -0.002 A 
HETATM   14  C11 UNK     1      18.333  -1.725  37.669  1.00  0.00     0.017 A 
HETATM   15  C14 UNK     1      17.835  -0.441  37.453  1.00  0.00     0.037 A 
HETATM   16  C16 UNK     1      18.100   0.219  36.253  1.00  0.00     0.068 A 
HETATM   17  C15 UNK     1      18.864  -0.407  35.268  1.00  0.00     0.037 A 
HETATM   18  C12 UNK     1      19.362  -1.692  35.484  1.00  0.00     0.017 A 
BRANCH  16  19
HETATM   19  O3  UNK     1      17.615   1.473  36.044  1.00  0.00    -0.356 OA
HETATM   20  C17 UNK     1      18.350   2.314  35.156  1.00  0.00     0.210 C 
ENDBRANCH  16  19
ENDBRANCH   5  13
TORSDOF 2
ENDMDL
MODEL 5
REMARK VINA RESULT:      -7.5      2.812      7.692
REMARK  2 active torsions:
REMARK  status: ('A' for Active; 'I' for Inactive)
REMARK    1  A    between atoms: C16_19  and  O3_3 
REMARK    2  A    between atoms: C3_6  and  C4_7 
ROOT
HETATM    1  O1  UNK     1      18.351   4.027  34.545  1.00  0.00    -0.309 OA
HETATM    2  O2  UNK     1      18.171   1.812  31.130  1.00  0.00    -0.287 OA
HETATM    3  C1  UNK     1      18.362   1.841  33.485  1.00  0.00     0.048 A 
HETATM    4  C2  UNK     1      18.416   2.658  34.614  1.00  0.00     0.090 A 
HETATM    5  C3  UNK     1      18.234   4.621  33.297  1.00  0.00     0.090 A 
HETATM    6  C5  UNK     1      18.433   0.452  33.614  1.00  0.00     0.025 A 
HETATM    7  C6  UNK     1      18.558  -0.115  34.883  1.00  0.00    -0.061 A 
HETATM    8  C7  UNK     1      18.228   2.467  32.161  1.00  0.00     0.187 A 
HETATM    9  C8  UNK     1      18.165   3.943  32.141  1.00  0.00     0.093 A 
HETATM   10  C9  UNK     1      18.542   2.088  35.881  1.00  0.00     0.039 A 
HETATM   11  C10 UNK     1      18.613   0.702  36.014  1.00  0.00     0.009 A 
HETATM   12  C13 UNK     1      18.635  -1.597  35.032  1.00  0.00     0.048 C 
ENDROOT
BRANCH   5  13
HETATM   13  C4  UNK     1      18.167   6.096  33.340  1.00  0.00    -0.002 A 
HETATM   14  C11 UNK     1      17.155   6.772  32.654  1.00  0.00     0.017 A 
HETATM   15  C14 UNK     1      17.092   8.164  32.694  1.00  0.00     0.037 A 
HETATM   16  C16 UNK     1      18.039   8.886  33.420  1.00  0.00     0.068 A 
HETATM   17  C15 UNK     1      19.051   8.213  34.106  1.00  0.00     0.037 A 
HETATM   18  C12 UNK     1      19.114   6.820  34.066  1.00  0.00     0.017 A 
BRANCH  16  19
HETATM   19  O3  UNK     1      17.977  10.245  33.459  1.00  0.00    -0.356 OA
HETATM   20  C17 UNK     1      16.891  10.823  34.181  1.00  0.00     0.210 C 
ENDBRANCH  16  19
ENDBRANCH   5  13
TORSDOF 2
ENDMDL
MODEL 6
REMARK VINA RESULT:      -7.5      1.820      2.866
REMARK  2 active torsions:
REMARK  status: ('A' for Active; 'I' for Inactive)
REMARK    1  A    between atoms: C16_19  and  O3_3 
REMARK    2  A    between atoms: C3_6  and  C4_7 
ROOT
HETATM    1  O1  UNK     1      18.943   6.352  33.304  1.00  0.00    -0.309 OA
HETATM    2  O2  UNK     1      15.532   8.296  32.212  1.00  0.00    -0.287 OA
HETATM    3  C1  UNK     1      17.676   8.423  33.197  1.00  0.00     0.048 A 
HETATM    4  C2  UNK     1      18.816   7.698  33.543  1.00  0.00     0.090 A 
HETATM    5  C3  UNK     1      17.887   5.687  32.699  1.00  0.00     0.090 A 
HETATM    6  C5  UNK     1      17.602   9.792  33.464  1.00  0.00     0.025 A 
HETATM    7  C6  UNK     1      18.678  10.431  34.082  1.00  0.00    -0.061 A 
HETATM    8  C7  UNK     1      16.560   7.722  32.546  1.00  0.00     0.187 A 
HETATM    9  C8  UNK     1      16.744   6.275  32.314  1.00  0.00     0.093 A 
HETATM   10  C9  UNK     1      19.890   8.339  34.161  1.00  0.00     0.039 A 
HETATM   11  C10 UNK     1      19.820   9.706  34.429  1.00  0.00     0.009 A 
HETATM   12  C13 UNK     1      18.609  11.893  34.372  1.00  0.00     0.048 C 
ENDROOT
BRANCH   5  13
HETATM   13  C4  UNK     1      18.132   4.246  32.484  1.00  0.00    -0.002 A 
HETATM   14  C11 UNK     1      18.378   3.761  31.197  1.00  0.00     0.017 A 
HETATM   15  C14 UNK     1      18.609   2.400  30.995  1.00  0.00     0.037 A 
HETATM   16  C16 UNK     1      18.594   1.521  32.077  1.00  0.00     0.068 A 
HETATM   17  C15 UNK     1      18.348   2.003  33.363  1.00  0.00     0.037 A 
HETATM   18  C12 UNK     1      18.117   3.363  33.566  1.00  0.00     0.017 A 
BRANCH  16  19
HETATM   19  O3  UNK     1      18.820   0.193  31.879  1.00  0.00    -0.356 OA
HETATM   20  C17 UNK     1      19.851  -0.159  30.959  1.00  0.00     0.210 C 
ENDBRANCH  16  19
ENDBRANCH   5  13
TORSDOF 2
ENDMDL
MODEL 7
REMARK VINA RESULT:      -7.5     13.954     19.944
REMARK  2 active torsions:
REMARK  status: ('A' for Active; 'I' for Inactive)
REMARK    1  A    between atoms: C16_19  and  O3_3 
REMARK    2  A    between atoms: C3_6  and  C4_7 
ROOT
HETATM    1  O1  UNK     1      19.598  -0.855  14.874  1.00  0.00    -0.309 OA
HETATM    2  O2  UNK     1      17.591  -4.394  15.105  1.00  0.00    -0.287 OA
HETATM    3  C1  UNK     1      18.926  -2.934  13.813  1.00  0.00     0.048 A 
HETATM    4  C2  UNK     1      19.593  -1.710  13.801  1.00  0.00     0.090 A 
HETATM    5  C3  UNK     1      18.901  -1.224  16.016  1.00  0.00     0.090 A 
HETATM    6  C5  UNK     1      18.956  -3.765  12.690  1.00  0.00     0.025 A 
HETATM    7  C6  UNK     1      19.659  -3.361  11.554  1.00  0.00    -0.061 A 
HETATM    8  C7  UNK     1      18.195  -3.333  15.024  1.00  0.00     0.187 A 
HETATM    9  C8  UNK     1      18.227  -2.377  16.150  1.00  0.00     0.093 A 
HETATM   10  C9  UNK     1      20.295  -1.309  12.664  1.00  0.00     0.039 A 
HETATM   11  C10 UNK     1      20.327  -2.136  11.541  1.00  0.00     0.009 A 
HETATM   12  C13 UNK     1      19.696  -4.241  10.350  1.00  0.00     0.048 C 
ENDROOT
BRANCH   5  13
HETATM   13  C4  UNK     1      18.977  -0.235  17.110  1.00  0.00    -0.002 A 
HETATM   14  C11 UNK     1      19.010  -0.662  18.440  1.00  0.00     0.017 A 
HETATM   15  C14 UNK     1      19.081   0.272  19.473  1.00  0.00     0.037 A 
HETATM   16  C16 UNK     1      19.119   1.636  19.181  1.00  0.00     0.068 A 
HETATM   17  C15 UNK     1      19.087   2.064  17.853  1.00  0.00     0.037 A 
HETATM   18  C12 UNK     1      19.016   1.130  16.820  1.00  0.00     0.017 A 
BRANCH  16  19
HETATM   19  O3  UNK     1      19.190   2.547  20.189  1.00  0.00    -0.356 OA
HETATM   20  C17 UNK     1      19.657   2.080  21.454  1.00  0.00     0.210 C 
ENDBRANCH  16  19
ENDBRANCH   5  13
TORSDOF 2
ENDMDL
MODEL 8
REMARK VINA RESULT:      -7.4      1.485      2.463
REMARK  2 active torsions:
REMARK  status: ('A' for Active; 'I' for Inactive)
REMARK    1  A    between atoms: C16_19  and  O3_3 
REMARK    2  A    between atoms: C3_6  and  C4_7 
ROOT
HETATM    1  O1  UNK     1      18.057   8.845  33.083  1.00  0.00    -0.309 OA
HETATM    2  O2  UNK     1      14.214   9.134  34.405  1.00  0.00    -0.287 OA
HETATM    3  C1  UNK     1      16.338  10.149  34.199  1.00  0.00     0.048 A 
HETATM    4  C2  UNK     1      17.637   9.986  33.720  1.00  0.00     0.090 A 
HETATM    5  C3  UNK     1      17.150   7.809  32.916  1.00  0.00     0.090 A 
HETATM    6  C5  UNK     1      15.965  11.332  34.840  1.00  0.00     0.025 A 
HETATM    7  C6  UNK     1      16.904  12.353  35.000  1.00  0.00    -0.061 A 
HETATM    8  C7  UNK     1      15.371   9.057  34.014  1.00  0.00     0.187 A 
HETATM    9  C8  UNK     1      15.872   7.850  33.326  1.00  0.00     0.093 A 
HETATM   10  C9  UNK     1      18.573  11.007  33.882  1.00  0.00     0.039 A 
HETATM   11  C10 UNK     1      18.205  12.190  34.522  1.00  0.00     0.009 A 
HETATM   12  C13 UNK     1      16.516  13.621  35.684  1.00  0.00     0.048 C 
ENDROOT
BRANCH   5  13
HETATM   13  C4  UNK     1      17.705   6.634  32.214  1.00  0.00    -0.002 A 
HETATM   14  C11 UNK     1      18.323   6.788  30.971  1.00  0.00     0.017 A 
HETATM   15  C14 UNK     1      18.847   5.678  30.309  1.00  0.00     0.037 A 
HETATM   16  C16 UNK     1      18.754   4.411  30.886  1.00  0.00     0.068 A 
HETATM   17  C15 UNK     1      18.137   4.256  32.127  1.00  0.00     0.037 A 
HETATM   18  C12 UNK     1      17.613   5.365  32.790  1.00  0.00     0.017 A 
BRANCH  16  19
HETATM   19  O3  UNK     1      19.266   3.329  30.239  1.00  0.00    -0.356 OA
HETATM   20  C17 UNK     1      18.336   2.445  29.616  1.00  0.00     0.210 C 
ENDBRANCH  16  19
ENDBRANCH   5  13
TORSDOF 2
ENDMDL
MODEL 9
REMARK VINA RESULT:      -7.4      2.353      7.820
REMARK  2 active torsions:
REMARK  status: ('A' for Active; 'I' for Inactive)
REMARK    1  A    between atoms: C16_19  and  O3_3 
REMARK    2  A    between atoms: C3_6  and  C4_7 
ROOT
HETATM    1  O1  UNK     1      17.925   3.640  33.479  1.00  0.00    -0.309 OA
HETATM    2  O2  UNK     1      18.962   3.165  29.567  1.00  0.00    -0.287 OA
HETATM    3  C1  UNK     1      18.645   2.167  31.686  1.00  0.00     0.048 A 
HETATM    4  C2  UNK     1      18.278   2.399  33.011  1.00  0.00     0.090 A 
HETATM    5  C3  UNK     1      17.942   4.709  32.595  1.00  0.00     0.090 A 
HETATM    6  C5  UNK     1      18.995   0.883  31.265  1.00  0.00     0.025 A 
HETATM    7  C6  UNK     1      18.975  -0.170  32.181  1.00  0.00    -0.061 A 
HETATM    8  C7  UNK     1      18.654   3.296  30.744  1.00  0.00     0.187 A 
HETATM    9  C8  UNK     1      18.270   4.611  31.297  1.00  0.00     0.093 A 
HETATM   10  C9  UNK     1      18.259   1.345  33.924  1.00  0.00     0.039 A 
HETATM   11  C10 UNK     1      18.609   0.060  33.508  1.00  0.00     0.009 A 
HETATM   12  C13 UNK     1      19.348  -1.547  31.741  1.00  0.00     0.048 C 
ENDROOT
BRANCH   5  13
HETATM   13  C4  UNK     1      17.540   5.994  33.202  1.00  0.00    -0.002 A 
HETATM   14  C11 UNK     1      18.344   6.591  34.176  1.00  0.00     0.017 A 
HETATM   15  C14 UNK     1      17.964   7.804  34.749  1.00  0.00     0.037 A 
HETATM   16  C16 UNK     1      16.780   8.425  34.351  1.00  0.00     0.068 A 
HETATM   17  C15 UNK     1      15.976   7.831  33.378  1.00  0.00     0.037 A 
HETATM   18  C12 UNK     1      16.355   6.617  32.805  1.00  0.00     0.017 A 
BRANCH  16  19
HETATM   19  O3  UNK     1      16.411   9.610  34.909  1.00  0.00    -0.356 OA
HETATM   20  C17 UNK     1      16.733  10.797  34.186  1.00  0.00     0.210 C 
ENDBRANCH  16  19
ENDBRANCH   5  13
TORSDOF 2
ENDMDL
MODEL 10
REMARK VINA RESULT:      -7.3     16.818     18.198
REMARK  2 active torsions:
REMARK  status: ('A' for Active; 'I' for Inactive)
REMARK    1  A    between atoms: C16_19  and  O3_3 
REMARK    2  A    between atoms: C3_6  and  C4_7 
ROOT
HETATM    1  O1  UNK     1      25.636  -6.434  38.615  1.00  0.00    -0.309 OA
HETATM    2  O2  UNK     1      28.254  -9.544  38.894  1.00  0.00    -0.287 OA
HETATM    3  C1  UNK     1      27.936  -7.208  38.726  1.00  0.00     0.048 A 
HETATM    4  C2  UNK     1      26.986  -6.191  38.635  1.00  0.00     0.090 A 
HETATM    5  C3  UNK     1      25.200  -7.749  38.682  1.00  0.00     0.090 A 
HETATM    6  C5  UNK     1      29.298  -6.902  38.742  1.00  0.00     0.025 A 
HETATM    7  C6  UNK     1      29.705  -5.569  38.665  1.00  0.00    -0.061 A 
HETATM    8  C7  UNK     1      27.477  -8.602  38.808  1.00  0.00     0.187 A 
HETATM    9  C8  UNK     1      26.015  -8.811  38.779  1.00  0.00     0.093 A 
HETATM   10  C9  UNK     1      27.396  -4.860  38.557  1.00  0.00     0.039 A 
HETATM   11  C10 UNK     1      28.756  -4.550  38.572  1.00  0.00     0.009 A 
HETATM   12  C13 UNK     1      31.158  -5.232  38.680  1.00  0.00     0.048 C 
ENDROOT
BRANCH   5  13
HETATM   13  C4  UNK     1      23.731  -7.895  38.659  1.00  0.00    -0.002 A 
HETATM   14  C11 UNK     1      23.112  -8.602  37.625  1.00  0.00     0.017 A 
HETATM   15  C14 UNK     1      21.725  -8.739  37.603  1.00  0.00     0.037 A 
HETATM   16  C16 UNK     1      20.950  -8.170  38.615  1.00  0.00     0.068 A 
HETATM   17  C15 UNK     1      21.566  -7.464  39.649  1.00  0.00     0.037 A 
HETATM   18  C12 UNK     1      22.953  -7.327  39.670  1.00  0.00     0.017 A 
BRANCH  16  19
HETATM   19  O3  UNK     1      19.596  -8.306  38.593  1.00  0.00    -0.356 OA
HETATM   20  C17 UNK     1      19.077  -9.568  38.178  1.00  0.00     0.210 C 
ENDBRANCH  16  19
ENDBRANCH   5  13
TORSDOF 2
ENDMDL
