MODEL 1
REMARK VINA RESULT:      -7.7      0.000      0.000
REMARK  5 active torsions:
REMARK  status: ('A' for Active; 'I' for Inactive)
REMARK    1  A    between atoms: C12_20  and  O3_5 
REMARK    2  A    between atoms: C20_28  and  O3_5 
REMARK    3  A    between atoms: C7_15  and  N1_8 
REMARK    4  A    between atoms: C1_9  and  C5_13 
REMARK    5  A    between atoms: C12_20  and  C3_11 
ROOT
HETATM    1  O1  UNK     1      30.591  -8.755  33.115  1.00  0.00    -0.292 OA
HETATM    2  O2  UNK     1      29.175  -5.159  31.510  1.00  0.00    -0.274 OA
HETATM    3  O4  UNK     1      30.721  -4.004  32.722  1.00  0.00    -0.259 OA
HETATM    4  C1  UNK     1      31.789  -6.321  34.059  1.00  0.00     0.106 C 
HETATM    5  C2  UNK     1      30.683  -6.362  33.020  1.00  0.00     0.066 A 
HETATM    6  C3  UNK     1      32.339  -7.708  34.350  1.00  0.00     0.081 C 
HETATM    7  C4  UNK     1      30.157  -7.534  32.629  1.00  0.00     0.104 A 
HETATM    8  C6  UNK     1      29.070  -7.586  31.655  1.00  0.00     0.033 A 
HETATM    9  C7  UNK     1      31.746  -8.833  33.899  1.00  0.00     0.155 C 
HETATM   10  C8  UNK     1      30.218  -5.082  32.426  1.00  0.00     0.298 A 
HETATM   11  C9  UNK     1      28.605  -6.388  31.124  1.00  0.00     0.092 A 
HETATM   12  C13 UNK     1      28.469  -8.776  31.227  1.00  0.00     0.017 A 
HETATM   13  C14 UNK     1      27.568  -6.343  30.190  1.00  0.00     0.038 A 
HETATM   14  C17 UNK     1      27.429  -8.748  30.292  1.00  0.00     0.001 A 
HETATM   15  C19 UNK     1      26.979  -7.533  29.776  1.00  0.00     0.003 A 
ENDROOT
BRANCH   4  16
HETATM   16  C5  UNK     1      31.294  -5.683  35.323  1.00  0.00    -0.023 A 
HETATM   17  C10 UNK     1      31.975  -4.624  35.916  1.00  0.00     0.043 A 
HETATM   18 Cl1  UNK     1      33.424  -3.986  35.228  1.00  0.00    -0.084 Cl
HETATM   19  C15 UNK     1      31.485  -4.057  37.092  1.00  0.00     0.048 A 
HETATM   20  C18 UNK     1      30.316  -4.551  37.670  1.00  0.00     0.035 A 
HETATM   21  C16 UNK     1      29.637  -5.614  37.073  1.00  0.00     0.024 A 
HETATM   22 Cl2  UNK     1      29.710  -3.852  39.121  1.00  0.00    -0.084 Cl
HETATM   23  C11 UNK     1      30.128  -6.180  35.897  1.00  0.00     0.011 A 
ENDBRANCH   4  16
BRANCH   6  24
HETATM   24  C12 UNK     1      33.586  -7.767  35.134  1.00  0.00     0.294 C 
HETATM   25  O5  UNK     1      34.639  -7.297  34.749  1.00  0.00    -0.259 OA
BRANCH  24  26
HETATM   26  O3  UNK     1      33.327  -8.412  36.296  1.00  0.00    -0.318 OA
BRANCH  26  27
HETATM   27  C20 UNK     1      33.481  -7.617  37.477  1.00  0.00     0.174 C 
HETATM   28  C21 UNK     1      32.291  -7.846  38.385  1.00  0.00     0.034 C 
ENDBRANCH  26  27
ENDBRANCH  24  26
ENDBRANCH   6  24
BRANCH   9  29
HETATM   29  N1  UNK     1      32.159 -10.115  34.124  1.00  0.00    -0.379 N 
HETATM   30  H7  UNK     1      32.510 -10.683  33.364  1.00  0.00     0.158 HD
HETATM   31  H8  UNK     1      32.112 -10.488  35.063  1.00  0.00     0.158 HD
ENDBRANCH   9  29
TORSDOF 5
ENDMDL
MODEL 2
REMARK VINA RESULT:      -7.3      3.132      6.380
REMARK  5 active torsions:
REMARK  status: ('A' for Active; 'I' for Inactive)
REMARK    1  A    between atoms: C12_20  and  O3_5 
REMARK    2  A    between atoms: C20_28  and  O3_5 
REMARK    3  A    between atoms: C7_15  and  N1_8 
REMARK    4  A    between atoms: C1_9  and  C5_13 
REMARK    5  A    between atoms: C12_20  and  C3_11 
ROOT
HETATM    1  O1  UNK     1      31.623  -5.740  35.228  1.00  0.00    -0.292 OA
HETATM    2  O2  UNK     1      28.183  -7.148  37.151  1.00  0.00    -0.274 OA
HETATM    3  O4  UNK     1      27.935  -8.747  35.545  1.00  0.00    -0.259 OA
HETATM    4  C1  UNK     1      30.190  -7.889  33.972  1.00  0.00     0.106 C 
HETATM    5  C2  UNK     1      29.763  -7.251  35.282  1.00  0.00     0.066 A 
HETATM    6  C3  UNK     1      31.572  -7.424  33.544  1.00  0.00     0.081 C 
HETATM    7  C4  UNK     1      30.471  -6.241  35.811  1.00  0.00     0.104 A 
HETATM    8  C6  UNK     1      30.054  -5.596  37.053  1.00  0.00     0.033 A 
HETATM    9  C7  UNK     1      32.214  -6.403  34.150  1.00  0.00     0.155 C 
HETATM   10  C8  UNK     1      28.565  -7.788  35.978  1.00  0.00     0.298 A 
HETATM   11  C9  UNK     1      28.911  -6.070  37.689  1.00  0.00     0.092 A 
HETATM   12  C13 UNK     1      30.740  -4.526  37.640  1.00  0.00     0.017 A 
HETATM   13  C14 UNK     1      28.437  -5.512  38.878  1.00  0.00     0.038 A 
HETATM   14  C17 UNK     1      30.279  -3.956  38.831  1.00  0.00     0.001 A 
HETATM   15  C19 UNK     1      29.129  -4.448  39.448  1.00  0.00     0.003 A 
ENDROOT
BRANCH   4  16
HETATM   16  C5  UNK     1      29.186  -7.594  32.896  1.00  0.00    -0.023 A 
HETATM   17  C10 UNK     1      28.670  -8.603  32.089  1.00  0.00     0.043 A 
HETATM   18 Cl1  UNK     1      29.154 -10.248  32.282  1.00  0.00    -0.084 Cl
HETATM   19  C15 UNK     1      27.740  -8.289  31.098  1.00  0.00     0.048 A 
HETATM   20  C18 UNK     1      27.329  -6.968  30.920  1.00  0.00     0.035 A 
HETATM   21  C16 UNK     1      27.850  -5.960  31.731  1.00  0.00     0.024 A 
HETATM   22 Cl2  UNK     1      26.180  -6.581  29.698  1.00  0.00    -0.084 Cl
HETATM   23  C11 UNK     1      28.780  -6.274  32.722  1.00  0.00     0.011 A 
ENDBRANCH   4  16
BRANCH   6  24
HETATM   24  C12 UNK     1      32.201  -8.170  32.439  1.00  0.00     0.294 C 
HETATM   25  O5  UNK     1      32.490  -9.349  32.510  1.00  0.00    -0.259 OA
BRANCH  24  26
HETATM   26  O3  UNK     1      32.376  -7.321  31.399  1.00  0.00    -0.318 OA
BRANCH  26  27
HETATM   27  C20 UNK     1      31.746  -7.723  30.178  1.00  0.00     0.174 C 
HETATM   28  C21 UNK     1      30.900  -6.580  29.659  1.00  0.00     0.034 C 
ENDBRANCH  26  27
ENDBRANCH  24  26
ENDBRANCH   6  24
BRANCH   9  29
HETATM   29  N1  UNK     1      33.445  -5.910  33.823  1.00  0.00    -0.379 N 
HETATM   30  H7  UNK     1      34.242  -6.528  33.746  1.00  0.00     0.158 HD
HETATM   31  H8  UNK     1      33.548  -4.918  33.656  1.00  0.00     0.158 HD
ENDBRANCH   9  29
TORSDOF 5
ENDMDL
MODEL 3
REMARK VINA RESULT:      -7.3      2.453      3.087
REMARK  5 active torsions:
REMARK  status: ('A' for Active; 'I' for Inactive)
REMARK    1  A    between atoms: C12_20  and  O3_5 
REMARK    2  A    between atoms: C20_28  and  O3_5 
REMARK    3  A    between atoms: C7_15  and  N1_8 
REMARK    4  A    between atoms: C1_9  and  C5_13 
REMARK    5  A    between atoms: C12_20  and  C3_11 
ROOT
HETATM    1  O1  UNK     1      31.213 -10.031  32.753  1.00  0.00    -0.292 OA
HETATM    2  O2  UNK     1      28.120  -7.696  31.173  1.00  0.00    -0.274 OA
HETATM    3  O4  UNK     1      28.218  -6.327  32.993  1.00  0.00    -0.259 OA
HETATM    4  C1  UNK     1      30.262  -7.839  34.347  1.00  0.00     0.106 C 
HETATM    5  C2  UNK     1      29.703  -8.184  32.978  1.00  0.00     0.066 A 
HETATM    6  C3  UNK     1      31.523  -8.629  34.655  1.00  0.00     0.081 C 
HETATM    7  C4  UNK     1      30.184  -9.229  32.288  1.00  0.00     0.104 A 
HETATM    8  C6  UNK     1      29.633  -9.592  30.985  1.00  0.00     0.033 A 
HETATM    9  C7  UNK     1      31.937  -9.662  33.890  1.00  0.00     0.155 C 
HETATM   10  C8  UNK     1      28.635  -7.322  32.409  1.00  0.00     0.298 A 
HETATM   11  C9  UNK     1      28.607  -8.811  30.464  1.00  0.00     0.092 A 
HETATM   12  C13 UNK     1      30.080 -10.684  30.231  1.00  0.00     0.017 A 
HETATM   13  C14 UNK     1      28.019  -9.086  29.229  1.00  0.00     0.038 A 
HETATM   14  C17 UNK     1      29.502 -10.973  28.991  1.00  0.00     0.001 A 
HETATM   15  C19 UNK     1      28.472 -10.175  28.491  1.00  0.00     0.003 A 
ENDROOT
BRANCH   4  16
HETATM   16  C5  UNK     1      29.228  -8.076  35.408  1.00  0.00    -0.023 A 
HETATM   17  C10 UNK     1      28.952  -7.118  36.379  1.00  0.00     0.043 A 
HETATM   18 Cl1  UNK     1      29.782  -5.605  36.415  1.00  0.00    -0.084 Cl
HETATM   19  C15 UNK     1      27.985  -7.375  37.350  1.00  0.00     0.048 A 
HETATM   20  C18 UNK     1      27.298  -8.589  37.346  1.00  0.00     0.035 A 
HETATM   21  C16 UNK     1      27.578  -9.546  36.371  1.00  0.00     0.024 A 
HETATM   22 Cl2  UNK     1      26.103  -8.907  38.544  1.00  0.00    -0.084 Cl
HETATM   23  C11 UNK     1      28.545  -9.289  35.400  1.00  0.00     0.011 A 
ENDBRANCH   4  16
BRANCH   6  24
HETATM   24  C12 UNK     1      32.300  -8.192  35.828  1.00  0.00     0.294 C 
HETATM   25  O5  UNK     1      32.819  -7.095  35.913  1.00  0.00    -0.259 OA
BRANCH  24  26
HETATM   26  O3  UNK     1      32.314  -9.201  36.729  1.00  0.00    -0.318 OA
BRANCH  26  27
HETATM   27  C20 UNK     1      31.789  -8.868  38.019  1.00  0.00     0.174 C 
HETATM   28  C21 UNK     1      30.730  -9.881  38.398  1.00  0.00     0.034 C 
ENDBRANCH  26  27
ENDBRANCH  24  26
ENDBRANCH   6  24
BRANCH   9  29
HETATM   29  N1  UNK     1      33.043 -10.435  34.099  1.00  0.00    -0.379 N 
HETATM   30  H7  UNK     1      33.836 -10.378  33.473  1.00  0.00     0.158 HD
HETATM   31  H8  UNK     1      33.060 -11.064  34.891  1.00  0.00     0.158 HD
ENDBRANCH   9  29
TORSDOF 5
ENDMDL
MODEL 4
REMARK VINA RESULT:      -7.2      0.804      1.559
REMARK  5 active torsions:
REMARK  status: ('A' for Active; 'I' for Inactive)
REMARK    1  A    between atoms: C12_20  and  O3_5 
REMARK    2  A    between atoms: C20_28  and  O3_5 
REMARK    3  A    between atoms: C7_15  and  N1_8 
REMARK    4  A    between atoms: C1_9  and  C5_13 
REMARK    5  A    between atoms: C12_20  and  C3_11 
ROOT
HETATM    1  O1  UNK     1      30.666  -8.790  33.167  1.00  0.00    -0.292 OA
HETATM    2  O2  UNK     1      29.254  -5.184  31.582  1.00  0.00    -0.274 OA
HETATM    3  O4  UNK     1      30.798  -4.037  32.806  1.00  0.00    -0.259 OA
HETATM    4  C1  UNK     1      31.861  -6.363  34.130  1.00  0.00     0.106 C 
HETATM    5  C2  UNK     1      30.758  -6.397  33.088  1.00  0.00     0.066 A 
HETATM    6  C3  UNK     1      32.410  -7.751  34.414  1.00  0.00     0.081 C 
HETATM    7  C4  UNK     1      30.233  -7.565  32.688  1.00  0.00     0.104 A 
HETATM    8  C6  UNK     1      29.150  -7.611  31.710  1.00  0.00     0.033 A 
HETATM    9  C7  UNK     1      31.818  -8.874  33.954  1.00  0.00     0.155 C 
HETATM   10  C8  UNK     1      30.295  -5.113  32.501  1.00  0.00     0.298 A 
HETATM   11  C9  UNK     1      28.686  -6.409  31.185  1.00  0.00     0.092 A 
HETATM   12  C13 UNK     1      28.549  -8.798  31.272  1.00  0.00     0.017 A 
HETATM   13  C14 UNK     1      27.652  -6.358  30.249  1.00  0.00     0.038 A 
HETATM   14  C17 UNK     1      27.513  -8.764  30.335  1.00  0.00     0.001 A 
HETATM   15  C19 UNK     1      27.064  -7.546  29.824  1.00  0.00     0.003 A 
ENDROOT
BRANCH   4  16
HETATM   16  C5  UNK     1      31.362  -5.733  35.398  1.00  0.00    -0.023 A 
HETATM   17  C10 UNK     1      32.017  -4.649  35.976  1.00  0.00     0.043 A 
HETATM   18 Cl1  UNK     1      33.436  -3.970  35.266  1.00  0.00    -0.084 Cl
HETATM   19  C15 UNK     1      31.524  -4.091  37.155  1.00  0.00     0.048 A 
HETATM   20  C18 UNK     1      30.378  -4.618  37.751  1.00  0.00     0.035 A 
HETATM   21  C16 UNK     1      29.726  -5.705  37.168  1.00  0.00     0.024 A 
HETATM   22 Cl2  UNK     1      29.769  -3.929  39.205  1.00  0.00    -0.084 Cl
HETATM   23  C11 UNK     1      30.219  -6.263  35.989  1.00  0.00     0.011 A 
ENDBRANCH   4  16
BRANCH   6  24
HETATM   24  C12 UNK     1      33.654  -7.816  35.202  1.00  0.00     0.294 C 
HETATM   25  O5  UNK     1      33.678  -7.753  36.416  1.00  0.00    -0.259 OA
BRANCH  24  26
HETATM   26  O3  UNK     1      34.693  -7.950  34.345  1.00  0.00    -0.318 OA
BRANCH  26  27
HETATM   27  C20 UNK     1      35.539  -6.801  34.235  1.00  0.00     0.174 C 
HETATM   28  C21 UNK     1      35.678  -6.428  32.774  1.00  0.00     0.034 C 
ENDBRANCH  26  27
ENDBRANCH  24  26
ENDBRANCH   6  24
BRANCH   9  29
HETATM   29  N1  UNK     1      32.230 -10.157  34.172  1.00  0.00    -0.379 N 
HETATM   30  H7  UNK     1      31.680 -10.937  33.837  1.00  0.00     0.158 HD
HETATM   31  H8  UNK     1      33.095 -10.317  34.671  1.00  0.00     0.158 HD
ENDBRANCH   9  29
TORSDOF 5
ENDMDL
MODEL 5
REMARK VINA RESULT:      -7.2      2.326      2.964
REMARK  5 active torsions:
REMARK  status: ('A' for Active; 'I' for Inactive)
REMARK    1  A    between atoms: C12_20  and  O3_5 
REMARK    2  A    between atoms: C20_28  and  O3_5 
REMARK    3  A    between atoms: C7_15  and  N1_8 
REMARK    4  A    between atoms: C1_9  and  C5_13 
REMARK    5  A    between atoms: C12_20  and  C3_11 
ROOT
HETATM    1  O1  UNK     1      32.025  -7.822  31.798  1.00  0.00    -0.292 OA
HETATM    2  O2  UNK     1      27.864  -7.698  32.224  1.00  0.00    -0.274 OA
HETATM    3  O4  UNK     1      28.096  -6.629  34.224  1.00  0.00    -0.259 OA
HETATM    4  C1  UNK     1      30.975  -6.702  34.226  1.00  0.00     0.106 C 
HETATM    5  C2  UNK     1      30.103  -7.242  33.107  1.00  0.00     0.066 A 
HETATM    6  C3  UNK     1      32.433  -6.607  33.807  1.00  0.00     0.081 C 
HETATM    7  C4  UNK     1      30.656  -7.764  32.002  1.00  0.00     0.104 A 
HETATM    8  C6  UNK     1      29.830  -8.316  30.932  1.00  0.00     0.033 A 
HETATM    9  C7  UNK     1      32.896  -7.154  32.663  1.00  0.00     0.155 C 
HETATM   10  C8  UNK     1      28.627  -7.153  33.250  1.00  0.00     0.298 A 
HETATM   11  C9  UNK     1      28.448  -8.270  31.078  1.00  0.00     0.092 A 
HETATM   12  C13 UNK     1      30.352  -8.892  29.767  1.00  0.00     0.017 A 
HETATM   13  C14 UNK     1      27.582  -8.778  30.108  1.00  0.00     0.038 A 
HETATM   14  C17 UNK     1      29.498  -9.405  28.786  1.00  0.00     0.001 A 
HETATM   15  C19 UNK     1      28.115  -9.348  28.957  1.00  0.00     0.003 A 
ENDROOT
BRANCH   4  16
HETATM   16  C5  UNK     1      30.842  -7.559  35.451  1.00  0.00    -0.023 A 
HETATM   17  C10 UNK     1      30.435  -7.024  36.670  1.00  0.00     0.043 A 
HETATM   18 Cl1  UNK     1      30.059  -5.348  36.838  1.00  0.00    -0.084 Cl
HETATM   19  C15 UNK     1      30.324  -7.851  37.787  1.00  0.00     0.048 A 
HETATM   20  C18 UNK     1      30.621  -9.210  37.681  1.00  0.00     0.035 A 
HETATM   21  C16 UNK     1      31.029  -9.741  36.457  1.00  0.00     0.024 A 
HETATM   22 Cl2  UNK     1      30.483 -10.232  39.059  1.00  0.00    -0.084 Cl
HETATM   23  C11 UNK     1      31.140  -8.914  35.340  1.00  0.00     0.011 A 
ENDBRANCH   4  16
BRANCH   6  24
HETATM   24  C12 UNK     1      33.325  -5.853  34.706  1.00  0.00     0.294 C 
HETATM   25  O5  UNK     1      33.176  -4.673  34.957  1.00  0.00    -0.259 OA
BRANCH  24  26
HETATM   26  O3  UNK     1      34.281  -6.697  35.161  1.00  0.00    -0.318 OA
BRANCH  26  27
HETATM   27  C20 UNK     1      34.803  -6.377  36.455  1.00  0.00     0.174 C 
HETATM   28  C21 UNK     1      34.027  -7.144  37.505  1.00  0.00     0.034 C 
ENDBRANCH  26  27
ENDBRANCH  24  26
ENDBRANCH   6  24
BRANCH   9  29
HETATM   29  N1  UNK     1      34.186  -7.131  32.216  1.00  0.00    -0.379 N 
HETATM   30  H7  UNK     1      34.955  -7.281  32.858  1.00  0.00     0.158 HD
HETATM   31  H8  UNK     1      34.363  -6.965  31.235  1.00  0.00     0.158 HD
ENDBRANCH   9  29
TORSDOF 5
ENDMDL
MODEL 6
REMARK VINA RESULT:      -7.2      3.211      6.941
REMARK  5 active torsions:
REMARK  status: ('A' for Active; 'I' for Inactive)
REMARK    1  A    between atoms: C12_20  and  O3_5 
REMARK    2  A    between atoms: C20_28  and  O3_5 
REMARK    3  A    between atoms: C7_15  and  N1_8 
REMARK    4  A    between atoms: C1_9  and  C5_13 
REMARK    5  A    between atoms: C12_20  and  C3_11 
ROOT
HETATM    1  O1  UNK     1      30.478  -5.559  33.805  1.00  0.00    -0.292 OA
HETATM    2  O2  UNK     1      33.898  -7.314  35.457  1.00  0.00    -0.274 OA
HETATM    3  O4  UNK     1      34.360  -8.306  33.458  1.00  0.00    -0.259 OA
HETATM    4  C1  UNK     1      32.003  -7.322  32.127  1.00  0.00     0.106 C 
HETATM    5  C2  UNK     1      32.376  -7.002  33.564  1.00  0.00     0.066 A 
HETATM    6  C3  UNK     1      30.886  -6.424  31.623  1.00  0.00     0.081 C 
HETATM    7  C4  UNK     1      31.613  -6.178  34.299  1.00  0.00     0.104 A 
HETATM    8  C6  UNK     1      31.942  -5.887  35.692  1.00  0.00     0.033 A 
HETATM    9  C7  UNK     1      30.181  -5.613  32.441  1.00  0.00     0.155 C 
HETATM   10  C8  UNK     1      33.616  -7.597  34.126  1.00  0.00     0.298 A 
HETATM   11  C9  UNK     1      33.081  -6.472  36.235  1.00  0.00     0.092 A 
HETATM   12  C13 UNK     1      31.172  -5.054  36.513  1.00  0.00     0.017 A 
HETATM   13  C14 UNK     1      33.469  -6.254  37.558  1.00  0.00     0.038 A 
HETATM   14  C17 UNK     1      31.547  -4.824  37.840  1.00  0.00     0.001 A 
HETATM   15  C19 UNK     1      32.694  -5.424  38.362  1.00  0.00     0.003 A 
ENDROOT
BRANCH   4  16
HETATM   16  C5  UNK     1      31.608  -8.764  31.999  1.00  0.00    -0.023 A 
HETATM   17  C10 UNK     1      32.222  -9.605  31.076  1.00  0.00     0.043 A 
HETATM   18 Cl1  UNK     1      33.472  -9.036  30.030  1.00  0.00    -0.084 Cl
HETATM   19  C15 UNK     1      31.826 -10.939  30.985  1.00  0.00     0.048 A 
HETATM   20  C18 UNK     1      30.819 -11.427  31.818  1.00  0.00     0.035 A 
HETATM   21  C16 UNK     1      30.206 -10.579  32.741  1.00  0.00     0.024 A 
HETATM   22 Cl2  UNK     1      30.332 -13.074  31.707  1.00  0.00    -0.084 Cl
HETATM   23  C11 UNK     1      30.602  -9.245  32.832  1.00  0.00     0.011 A 
ENDBRANCH   4  16
BRANCH   6  24
HETATM   24  C12 UNK     1      30.623  -6.456  30.173  1.00  0.00     0.294 C 
HETATM   25  O5  UNK     1      31.467  -6.198  29.336  1.00  0.00    -0.259 OA
BRANCH  24  26
HETATM   26  O3  UNK     1      29.330  -6.810  29.983  1.00  0.00    -0.318 OA
BRANCH  26  27
HETATM   27  C20 UNK     1      29.135  -8.121  29.443  1.00  0.00     0.174 C 
HETATM   28  C21 UNK     1      27.977  -8.784  30.160  1.00  0.00     0.034 C 
ENDBRANCH  26  27
ENDBRANCH  24  26
ENDBRANCH   6  24
BRANCH   9  29
HETATM   29  N1  UNK     1      29.155  -4.788  32.079  1.00  0.00    -0.379 N 
HETATM   30  H7  UNK     1      28.210  -5.143  32.009  1.00  0.00     0.158 HD
HETATM   31  H8  UNK     1      29.352  -3.815  31.885  1.00  0.00     0.158 HD
ENDBRANCH   9  29
TORSDOF 5
ENDMDL
MODEL 7
REMARK VINA RESULT:      -7.2      3.945      7.533
REMARK  5 active torsions:
REMARK  status: ('A' for Active; 'I' for Inactive)
REMARK    1  A    between atoms: C12_20  and  O3_5 
REMARK    2  A    between atoms: C20_28  and  O3_5 
REMARK    3  A    between atoms: C7_15  and  N1_8 
REMARK    4  A    between atoms: C1_9  and  C5_13 
REMARK    5  A    between atoms: C12_20  and  C3_11 
ROOT
HETATM    1  O1  UNK     1      32.236  -6.635  33.486  1.00  0.00    -0.292 OA
HETATM    2  O2  UNK     1      35.560  -8.164  31.456  1.00  0.00    -0.274 OA
HETATM    3  O4  UNK     1      34.261  -8.576  29.629  1.00  0.00    -0.259 OA
HETATM    4  C1  UNK     1      31.806  -7.693  30.851  1.00  0.00     0.106 C 
HETATM    5  C2  UNK     1      33.163  -7.663  31.530  1.00  0.00     0.066 A 
HETATM    6  C3  UNK     1      30.773  -6.890  31.623  1.00  0.00     0.081 C 
HETATM    7  C4  UNK     1      33.295  -7.165  32.769  1.00  0.00     0.104 A 
HETATM    8  C6  UNK     1      34.588  -7.159  33.448  1.00  0.00     0.033 A 
HETATM    9  C7  UNK     1      31.003  -6.415  32.865  1.00  0.00     0.155 C 
HETATM   10  C8  UNK     1      34.344  -8.169  30.783  1.00  0.00     0.298 A 
HETATM   11  C9  UNK     1      35.690  -7.667  32.767  1.00  0.00     0.092 A 
HETATM   12  C13 UNK     1      34.781  -6.673  34.747  1.00  0.00     0.017 A 
HETATM   13  C14 UNK     1      36.963  -7.705  33.339  1.00  0.00     0.038 A 
HETATM   14  C17 UNK     1      36.050  -6.703  35.334  1.00  0.00     0.001 A 
HETATM   15  C19 UNK     1      37.139  -7.219  34.631  1.00  0.00     0.003 A 
ENDROOT
BRANCH   4  16
HETATM   16  C5  UNK     1      31.340  -9.109  30.677  1.00  0.00    -0.023 A 
HETATM   17  C10 UNK     1      31.071  -9.636  29.418  1.00  0.00     0.043 A 
HETATM   18 Cl1  UNK     1      31.261  -8.690  27.986  1.00  0.00    -0.084 Cl
HETATM   19  C15 UNK     1      30.639 -10.956  29.297  1.00  0.00     0.048 A 
HETATM   20  C18 UNK     1      30.478 -11.744  30.436  1.00  0.00     0.035 A 
HETATM   21  C16 UNK     1      30.748 -11.212  31.697  1.00  0.00     0.024 A 
HETATM   22 Cl2  UNK     1      29.945 -13.374  30.288  1.00  0.00    -0.084 Cl
HETATM   23  C11 UNK     1      31.181  -9.892  31.817  1.00  0.00     0.011 A 
ENDBRANCH   4  16
BRANCH   6  24
HETATM   24  C12 UNK     1      29.499  -6.625  30.931  1.00  0.00     0.294 C 
HETATM   25  O5  UNK     1      29.407  -5.905  29.955  1.00  0.00    -0.259 OA
BRANCH  24  26
HETATM   26  O3  UNK     1      28.518  -7.306  31.569  1.00  0.00    -0.318 OA
BRANCH  26  27
HETATM   27  C20 UNK     1      27.357  -7.579  30.777  1.00  0.00     0.174 C 
HETATM   28  C21 UNK     1      27.583  -8.855  29.994  1.00  0.00     0.034 C 
ENDBRANCH  26  27
ENDBRANCH  24  26
ENDBRANCH   6  24
BRANCH   9  29
HETATM   29  N1  UNK     1      30.131  -5.701  33.636  1.00  0.00    -0.379 N 
HETATM   30  H7  UNK     1      29.312  -6.146  34.032  1.00  0.00     0.158 HD
HETATM   31  H8  UNK     1      30.316  -4.722  33.808  1.00  0.00     0.158 HD
ENDBRANCH   9  29
TORSDOF 5
ENDMDL
MODEL 8
REMARK VINA RESULT:      -7.2      3.303      6.036
REMARK  5 active torsions:
REMARK  status: ('A' for Active; 'I' for Inactive)
REMARK    1  A    between atoms: C12_20  and  O3_5 
REMARK    2  A    between atoms: C20_28  and  O3_5 
REMARK    3  A    between atoms: C7_15  and  N1_8 
REMARK    4  A    between atoms: C1_9  and  C5_13 
REMARK    5  A    between atoms: C12_20  and  C3_11 
ROOT
HETATM    1  O1  UNK     1      29.832  -5.549  37.440  1.00  0.00    -0.292 OA
HETATM    2  O2  UNK     1      29.979  -9.718  37.113  1.00  0.00    -0.274 OA
HETATM    3  O4  UNK     1      31.530  -9.538  35.453  1.00  0.00    -0.259 OA
HETATM    4  C1  UNK     1      31.517  -6.658  35.396  1.00  0.00     0.106 C 
HETATM    5  C2  UNK     1      30.691  -7.502  36.349  1.00  0.00     0.066 A 
HETATM    6  C3  UNK     1      31.531  -5.195  35.807  1.00  0.00     0.081 C 
HETATM    7  C4  UNK     1      29.913  -6.921  37.276  1.00  0.00     0.104 A 
HETATM    8  C6  UNK     1      29.088  -7.720  38.178  1.00  0.00     0.033 A 
HETATM    9  C7  UNK     1      30.717  -4.704  36.766  1.00  0.00     0.155 C 
HETATM   10  C8  UNK     1      30.784  -8.982  36.252  1.00  0.00     0.298 A 
HETATM   11  C9  UNK     1      29.142  -9.105  38.066  1.00  0.00     0.092 A 
HETATM   12  C13 UNK     1      28.242  -7.169  39.148  1.00  0.00     0.017 A 
HETATM   13  C14 UNK     1      28.385  -9.946  38.883  1.00  0.00     0.038 A 
HETATM   14  C17 UNK     1      27.477  -7.997  39.975  1.00  0.00     0.001 A 
HETATM   15  C19 UNK     1      27.548  -9.384  39.842  1.00  0.00     0.003 A 
ENDROOT
BRANCH   4  16
HETATM   16  C5  UNK     1      31.003  -6.799  33.993  1.00  0.00    -0.023 A 
HETATM   17  C10 UNK     1      31.836  -7.194  32.951  1.00  0.00     0.043 A 
HETATM   18 Cl1  UNK     1      33.505  -7.545  33.215  1.00  0.00    -0.084 Cl
HETATM   19  C15 UNK     1      31.322  -7.312  31.660  1.00  0.00     0.048 A 
HETATM   20  C18 UNK     1      29.976  -7.035  31.417  1.00  0.00     0.035 A 
HETATM   21  C16 UNK     1      29.145  -6.639  32.465  1.00  0.00     0.024 A 
HETATM   22 Cl2  UNK     1      29.341  -7.182  29.825  1.00  0.00    -0.084 Cl
HETATM   23  C11 UNK     1      29.660  -6.521  33.756  1.00  0.00     0.011 A 
ENDBRANCH   4  16
BRANCH   6  24
HETATM   24  C12 UNK     1      32.508  -4.331  35.121  1.00  0.00     0.294 C 
HETATM   25  O5  UNK     1      32.321  -3.860  34.015  1.00  0.00    -0.259 OA
BRANCH  24  26
HETATM   26  O3  UNK     1      33.583  -4.181  35.930  1.00  0.00    -0.318 OA
BRANCH  26  27
HETATM   27  C20 UNK     1      34.785  -4.799  35.458  1.00  0.00     0.174 C 
HETATM   28  C21 UNK     1      35.167  -5.920  36.400  1.00  0.00     0.034 C 
ENDBRANCH  26  27
ENDBRANCH  24  26
ENDBRANCH   6  24
BRANCH   9  29
HETATM   29  N1  UNK     1      30.650  -3.406  37.187  1.00  0.00    -0.379 N 
HETATM   30  H7  UNK     1      30.987  -3.145  38.104  1.00  0.00     0.158 HD
HETATM   31  H8  UNK     1      30.260  -2.708  36.566  1.00  0.00     0.158 HD
ENDBRANCH   9  29
TORSDOF 5
ENDMDL
MODEL 9
REMARK VINA RESULT:      -7.0      3.280      6.051
REMARK  5 active torsions:
REMARK  status: ('A' for Active; 'I' for Inactive)
REMARK    1  A    between atoms: C12_20  and  O3_5 
REMARK    2  A    between atoms: C20_28  and  O3_5 
REMARK    3  A    between atoms: C7_15  and  N1_8 
REMARK    4  A    between atoms: C1_9  and  C5_13 
REMARK    5  A    between atoms: C12_20  and  C3_11 
ROOT
HETATM    1  O1  UNK     1      32.641  -5.123  35.410  1.00  0.00    -0.292 OA
HETATM    2  O2  UNK     1      29.610  -7.721  36.667  1.00  0.00    -0.274 OA
HETATM    3  O4  UNK     1      30.377  -9.317  35.233  1.00  0.00    -0.259 OA
HETATM    4  C1  UNK     1      32.466  -7.681  34.113  1.00  0.00     0.106 C 
HETATM    5  C2  UNK     1      31.524  -7.235  35.217  1.00  0.00     0.066 A 
HETATM    6  C3  UNK     1      33.636  -6.725  33.953  1.00  0.00     0.081 C 
HETATM    7  C4  UNK     1      31.652  -6.021  35.775  1.00  0.00     0.104 A 
HETATM    8  C6  UNK     1      30.733  -5.567  36.815  1.00  0.00     0.033 A 
HETATM    9  C7  UNK     1      33.683  -5.525  34.569  1.00  0.00     0.155 C 
HETATM   10  C8  UNK     1      30.479  -8.182  35.685  1.00  0.00     0.298 A 
HETATM   11  C9  UNK     1      29.728  -6.436  37.230  1.00  0.00     0.092 A 
HETATM   12  C13 UNK     1      30.805  -4.305  37.417  1.00  0.00     0.017 A 
HETATM   13  C14 UNK     1      28.804  -6.084  38.215  1.00  0.00     0.038 A 
HETATM   14  C17 UNK     1      29.886  -3.938  38.405  1.00  0.00     0.001 A 
HETATM   15  C19 UNK     1      28.887  -4.826  38.803  1.00  0.00     0.003 A 
ENDROOT
BRANCH   4  16
HETATM   16  C5  UNK     1      31.724  -7.815  32.816  1.00  0.00    -0.023 A 
HETATM   17  C10 UNK     1      31.704  -9.015  32.112  1.00  0.00     0.043 A 
HETATM   18 Cl1  UNK     1      32.531 -10.414  32.693  1.00  0.00    -0.084 Cl
HETATM   19  C15 UNK     1      31.004  -9.101  30.909  1.00  0.00     0.048 A 
HETATM   20  C18 UNK     1      30.326  -7.986  30.415  1.00  0.00     0.035 A 
HETATM   21  C16 UNK     1      30.349  -6.785  31.124  1.00  0.00     0.024 A 
HETATM   22 Cl2  UNK     1      29.461  -8.092  28.931  1.00  0.00    -0.084 Cl
HETATM   23  C11 UNK     1      31.049  -6.699  32.327  1.00  0.00     0.011 A 
ENDBRANCH   4  16
BRANCH   6  24
HETATM   24  C12 UNK     1      34.749  -7.187  33.104  1.00  0.00     0.294 C 
HETATM   25  O5  UNK     1      35.070  -6.638  32.068  1.00  0.00    -0.259 OA
BRANCH  24  26
HETATM   26  O3  UNK     1      35.300  -8.280  33.683  1.00  0.00    -0.318 OA
BRANCH  26  27
HETATM   27  C20 UNK     1      36.731  -8.314  33.673  1.00  0.00     0.174 C 
HETATM   28  C21 UNK     1      37.257  -7.258  34.622  1.00  0.00     0.034 C 
ENDBRANCH  26  27
ENDBRANCH  24  26
ENDBRANCH   6  24
BRANCH   9  29
HETATM   29  N1  UNK     1      34.682  -4.599  34.470  1.00  0.00    -0.379 N 
HETATM   30  H7  UNK     1      34.910  -4.182  33.577  1.00  0.00     0.158 HD
HETATM   31  H8  UNK     1      35.190  -4.334  35.304  1.00  0.00     0.158 HD
ENDBRANCH   9  29
TORSDOF 5
ENDMDL
MODEL 10
REMARK VINA RESULT:      -6.9      2.740      4.780
REMARK  5 active torsions:
REMARK  status: ('A' for Active; 'I' for Inactive)
REMARK    1  A    between atoms: C12_20  and  O3_5 
REMARK    2  A    between atoms: C20_28  and  O3_5 
REMARK    3  A    between atoms: C7_15  and  N1_8 
REMARK    4  A    between atoms: C1_9  and  C5_13 
REMARK    5  A    between atoms: C12_20  and  C3_11 
ROOT
HETATM    1  O1  UNK     1      30.301  -6.731  31.599  1.00  0.00    -0.292 OA
HETATM    2  O2  UNK     1      31.161 -10.813  31.939  1.00  0.00    -0.274 OA
HETATM    3  O4  UNK     1      32.035 -10.460  34.015  1.00  0.00    -0.259 OA
HETATM    4  C1  UNK     1      31.663  -7.604  33.972  1.00  0.00     0.106 C 
HETATM    5  C2  UNK     1      31.247  -8.541  32.853  1.00  0.00     0.066 A 
HETATM    6  C3  UNK     1      31.066  -6.218  33.796  1.00  0.00     0.081 C 
HETATM    7  C4  UNK     1      30.623  -8.068  31.763  1.00  0.00     0.104 A 
HETATM    8  C6  UNK     1      30.246  -8.953  30.664  1.00  0.00     0.033 A 
HETATM    9  C7  UNK     1      30.441  -5.836  32.662  1.00  0.00     0.155 C 
HETATM   10  C8  UNK     1      31.519  -9.994  33.004  1.00  0.00     0.298 A 
HETATM   11  C9  UNK     1      30.533 -10.309  30.784  1.00  0.00     0.092 A 
HETATM   12  C13 UNK     1      29.614  -8.513  29.495  1.00  0.00     0.017 A 
HETATM   13  C14 UNK     1      30.212 -11.227  29.782  1.00  0.00     0.038 A 
HETATM   14  C17 UNK     1      29.286  -9.419  28.482  1.00  0.00     0.001 A 
HETATM   15  C19 UNK     1      29.586 -10.774  28.626  1.00  0.00     0.003 A 
ENDROOT
BRANCH   4  16
HETATM   16  C5  UNK     1      33.159  -7.519  34.053  1.00  0.00    -0.023 A 
HETATM   17  C10 UNK     1      33.835  -7.746  35.249  1.00  0.00     0.043 A 
HETATM   18 Cl1  UNK     1      32.990  -8.140  36.701  1.00  0.00    -0.084 Cl
HETATM   19  C15 UNK     1      35.226  -7.657  35.285  1.00  0.00     0.048 A 
HETATM   20  C18 UNK     1      35.935  -7.342  34.126  1.00  0.00     0.035 A 
HETATM   21  C16 UNK     1      35.253  -7.114  32.931  1.00  0.00     0.024 A 
HETATM   22 Cl2  UNK     1      37.652  -7.232  34.170  1.00  0.00    -0.084 Cl
HETATM   23  C11 UNK     1      33.862  -7.203  32.894  1.00  0.00     0.011 A 
ENDBRANCH   4  16
BRANCH   6  24
HETATM   24  C12 UNK     1      31.178  -5.305  34.948  1.00  0.00     0.294 C 
HETATM   25  O5  UNK     1      30.589  -5.481  35.997  1.00  0.00    -0.259 OA
BRANCH  24  26
HETATM   26  O3  UNK     1      32.017  -4.297  34.612  1.00  0.00    -0.318 OA
BRANCH  26  27
HETATM   27  C20 UNK     1      33.086  -4.067  35.536  1.00  0.00     0.174 C 
HETATM   28  C21 UNK     1      34.389  -3.981  34.771  1.00  0.00     0.034 C 
ENDBRANCH  26  27
ENDBRANCH  24  26
ENDBRANCH   6  24
BRANCH   9  29
HETATM   29  N1  UNK     1      29.892  -4.611  32.411  1.00  0.00    -0.379 N 
HETATM   30  H7  UNK     1      28.936  -4.412  32.678  1.00  0.00     0.158 HD
HETATM   31  H8  UNK     1      30.455  -3.904  31.957  1.00  0.00     0.158 HD
ENDBRANCH   9  29
TORSDOF 5
ENDMDL
