MODEL 1
REMARK VINA RESULT:      -8.0      0.000      0.000
REMARK  4 active torsions:
REMARK  status: ('A' for Active; 'I' for Inactive)
REMARK    1  A    between atoms: C5_10  and  O2_2 
REMARK    2  A    between atoms: C9_14  and  O3_3 
REMARK    3  A    between atoms: C13_18  and  O5_5 
REMARK    4  A    between atoms: C2_7  and  C4_9 
ROOT
HETATM    1  O1  UNK     1      12.926   8.251   8.116  1.00  0.00    -0.306 OA
HETATM    2  O4  UNK     1      14.836   5.689  10.644  1.00  0.00    -0.284 OA
HETATM    3  C1  UNK     1      14.852   7.754   9.506  1.00  0.00     0.053 A 
HETATM    4  C2  UNK     1      12.359   7.040   8.482  1.00  0.00     0.123 A 
HETATM    5  C3  UNK     1      14.149   8.584   8.635  1.00  0.00     0.090 A 
HETATM    6  C5  UNK     1      12.937   6.146   9.306  1.00  0.00     0.152 A 
HETATM    7  C6  UNK     1      14.263   6.462   9.887  1.00  0.00     0.220 A 
HETATM    8  C7  UNK     1      16.097   8.147  10.003  1.00  0.00     0.055 A 
HETATM    9  C8  UNK     1      14.688   9.814   8.257  1.00  0.00     0.041 A 
HETATM   10  C9  UNK     1      16.635   9.378   9.623  1.00  0.00     0.069 A 
HETATM   11  C11 UNK     1      15.931  10.209   8.752  1.00  0.00     0.039 A 
ENDROOT
BRANCH   4  12
HETATM   12  C4  UNK     1      11.048   6.805   7.854  1.00  0.00     0.003 A 
HETATM   13  C10 UNK     1       9.875   7.058   8.567  1.00  0.00     0.051 A 
HETATM   14  C13 UNK     1       8.634   6.836   7.971  1.00  0.00     0.069 A 
HETATM   15  C15 UNK     1       8.564   6.360   6.662  1.00  0.00     0.037 A 
HETATM   16  C14 UNK     1       9.736   6.107   5.948  1.00  0.00     0.004 A 
HETATM   17  C12 UNK     1      10.976   6.329   6.544  1.00  0.00     0.014 A 
BRANCH  14  18
HETATM   18  O5  UNK     1       7.491   7.084   8.668  1.00  0.00    -0.356 OA
HETATM   19  C17 UNK     1       7.625   7.773   9.910  1.00  0.00     0.210 C 
ENDBRANCH  14  18
ENDBRANCH   4  12
BRANCH   6  20
HETATM   20  O2  UNK     1      12.361   4.934   9.624  1.00  0.00    -0.355 OA
HETATM   21  H8  UNK     1      12.534   4.722  10.555  1.00  0.00     0.218 HD
ENDBRANCH   6  20
BRANCH  10  22
HETATM   22  O3  UNK     1      17.847   9.768  10.104  1.00  0.00    -0.356 OA
HETATM   23  C16 UNK     1      18.236  11.119   9.863  1.00  0.00     0.210 C 
ENDBRANCH  10  22
TORSDOF 4
ENDMDL
MODEL 2
REMARK VINA RESULT:      -7.9     22.384     24.392
REMARK  4 active torsions:
REMARK  status: ('A' for Active; 'I' for Inactive)
REMARK    1  A    between atoms: C5_10  and  O2_2 
REMARK    2  A    between atoms: C9_14  and  O3_3 
REMARK    3  A    between atoms: C13_18  and  O5_5 
REMARK    4  A    between atoms: C2_7  and  C4_9 
ROOT
HETATM    1  O1  UNK     1      18.526   3.991  30.867  1.00  0.00    -0.306 OA
HETATM    2  O4  UNK     1      18.178   3.071  34.821  1.00  0.00    -0.284 OA
HETATM    3  C1  UNK     1      18.238   4.741  33.156  1.00  0.00     0.053 A 
HETATM    4  C2  UNK     1      18.551   2.677  31.308  1.00  0.00     0.123 A 
HETATM    5  C3  UNK     1      18.365   4.988  31.792  1.00  0.00     0.090 A 
HETATM    6  C5  UNK     1      18.448   2.304  32.597  1.00  0.00     0.152 A 
HETATM    7  C6  UNK     1      18.278   3.350  33.633  1.00  0.00     0.220 A 
HETATM    8  C7  UNK     1      18.077   5.799  34.054  1.00  0.00     0.055 A 
HETATM    9  C8  UNK     1      18.332   6.300  31.315  1.00  0.00     0.041 A 
HETATM   10  C9  UNK     1      18.044   7.110  33.575  1.00  0.00     0.069 A 
HETATM   11  C11 UNK     1      18.171   7.359  32.208  1.00  0.00     0.039 A 
ENDROOT
BRANCH   4  12
HETATM   12  C4  UNK     1      18.730   1.706  30.215  1.00  0.00     0.003 A 
HETATM   13  C10 UNK     1      19.723   0.730  30.301  1.00  0.00     0.051 A 
HETATM   14  C13 UNK     1      19.891  -0.188  29.266  1.00  0.00     0.069 A 
HETATM   15  C15 UNK     1      19.067  -0.132  28.142  1.00  0.00     0.037 A 
HETATM   16  C14 UNK     1      18.074   0.845  28.054  1.00  0.00     0.004 A 
HETATM   17  C12 UNK     1      17.906   1.762  29.090  1.00  0.00     0.014 A 
BRANCH  14  18
HETATM   18  O5  UNK     1      20.861  -1.141  29.352  1.00  0.00    -0.356 OA
HETATM   19  C17 UNK     1      20.561  -2.304  30.122  1.00  0.00     0.210 C 
ENDBRANCH  14  18
ENDBRANCH   4  12
BRANCH   6  20
HETATM   20  O2  UNK     1      18.511   0.989  33.007  1.00  0.00    -0.355 OA
HETATM   21  H8  UNK     1      19.438   0.723  33.119  1.00  0.00     0.218 HD
ENDBRANCH   6  20
BRANCH  10  22
HETATM   22  O3  UNK     1      17.887   8.147  34.442  1.00  0.00    -0.356 OA
HETATM   23  C16 UNK     1      17.830   9.458  33.882  1.00  0.00     0.210 C 
ENDBRANCH  10  22
TORSDOF 4
ENDMDL
MODEL 3
REMARK VINA RESULT:      -7.7     23.225     25.174
REMARK  4 active torsions:
REMARK  status: ('A' for Active; 'I' for Inactive)
REMARK    1  A    between atoms: C5_10  and  O2_2 
REMARK    2  A    between atoms: C9_14  and  O3_3 
REMARK    3  A    between atoms: C13_18  and  O5_5 
REMARK    4  A    between atoms: C2_7  and  C4_9 
ROOT
HETATM    1  O1  UNK     1      16.957   7.482  32.404  1.00  0.00    -0.306 OA
HETATM    2  O4  UNK     1      19.847   9.393  34.548  1.00  0.00    -0.284 OA
HETATM    3  C1  UNK     1      17.627   9.385  33.752  1.00  0.00     0.053 A 
HETATM    4  C2  UNK     1      18.223   6.937  32.558  1.00  0.00     0.123 A 
HETATM    5  C3  UNK     1      16.685   8.683  33.004  1.00  0.00     0.090 A 
HETATM    6  C5  UNK     1      19.223   7.517  33.246  1.00  0.00     0.152 A 
HETATM    7  C6  UNK     1      18.976   8.820  33.908  1.00  0.00     0.220 A 
HETATM    8  C7  UNK     1      17.292  10.607  34.341  1.00  0.00     0.055 A 
HETATM    9  C8  UNK     1      15.399   9.200  32.840  1.00  0.00     0.041 A 
HETATM   10  C9  UNK     1      16.006  11.122  34.175  1.00  0.00     0.069 A 
HETATM   11  C11 UNK     1      15.061  10.420  33.427  1.00  0.00     0.039 A 
ENDROOT
BRANCH   4  12
HETATM   12  C4  UNK     1      18.382   5.648  31.864  1.00  0.00     0.003 A 
HETATM   13  C10 UNK     1      18.017   4.461  32.500  1.00  0.00     0.051 A 
HETATM   14  C13 UNK     1      18.168   3.241  31.841  1.00  0.00     0.069 A 
HETATM   15  C15 UNK     1      18.685   3.206  30.547  1.00  0.00     0.037 A 
HETATM   16  C14 UNK     1      19.051   4.393  29.910  1.00  0.00     0.004 A 
HETATM   17  C12 UNK     1      18.899   5.612  30.568  1.00  0.00     0.014 A 
BRANCH  14  18
HETATM   18  O5  UNK     1      17.811   2.083  32.463  1.00  0.00    -0.356 OA
HETATM   19  C17 UNK     1      18.114   1.974  33.853  1.00  0.00     0.210 C 
ENDBRANCH  14  18
ENDBRANCH   4  12
BRANCH   6  20
HETATM   20  O2  UNK     1      20.482   6.964  33.352  1.00  0.00    -0.355 OA
HETATM   21  H8  UNK     1      20.730   6.546  32.512  1.00  0.00     0.218 HD
ENDBRANCH   6  20
BRANCH  10  22
HETATM   22  O3  UNK     1      15.671  12.312  34.746  1.00  0.00    -0.356 OA
HETATM   23  C16 UNK     1      16.646  12.925  35.587  1.00  0.00     0.210 C 
ENDBRANCH  10  22
TORSDOF 4
ENDMDL
MODEL 4
REMARK VINA RESULT:      -7.6     27.733     29.948
REMARK  4 active torsions:
REMARK  status: ('A' for Active; 'I' for Inactive)
REMARK    1  A    between atoms: C5_10  and  O2_2 
REMARK    2  A    between atoms: C9_14  and  O3_3 
REMARK    3  A    between atoms: C13_18  and  O5_5 
REMARK    4  A    between atoms: C2_7  and  C4_9 
ROOT
HETATM    1  O1  UNK     1      20.227  -3.329  34.800  1.00  0.00    -0.306 OA
HETATM    2  O4  UNK     1      17.799  -0.346  36.147  1.00  0.00    -0.284 OA
HETATM    3  C1  UNK     1      19.020  -1.272  34.353  1.00  0.00     0.053 A 
HETATM    4  C2  UNK     1      19.753  -3.315  36.103  1.00  0.00     0.123 A 
HETATM    5  C3  UNK     1      19.849  -2.318  33.956  1.00  0.00     0.090 A 
HETATM    6  C5  UNK     1      18.956  -2.359  36.614  1.00  0.00     0.152 A 
HETATM    7  C6  UNK     1      18.526  -1.243  35.738  1.00  0.00     0.220 A 
HETATM    8  C7  UNK     1      18.669  -0.267  33.448  1.00  0.00     0.055 A 
HETATM    9  C8  UNK     1      20.333  -2.366  32.648  1.00  0.00     0.041 A 
HETATM   10  C9  UNK     1      19.154  -0.317  32.140  1.00  0.00     0.069 A 
HETATM   11  C11 UNK     1      19.984  -1.365  31.741  1.00  0.00     0.039 A 
ENDROOT
BRANCH   4  12
HETATM   12  C4  UNK     1      20.234  -4.455  36.902  1.00  0.00     0.003 A 
HETATM   13  C10 UNK     1      19.480  -5.627  36.974  1.00  0.00     0.051 A 
HETATM   14  C13 UNK     1      19.936  -6.706  37.730  1.00  0.00     0.069 A 
HETATM   15  C15 UNK     1      21.147  -6.615  38.416  1.00  0.00     0.037 A 
HETATM   16  C14 UNK     1      21.903  -5.443  38.345  1.00  0.00     0.004 A 
HETATM   17  C12 UNK     1      21.446  -4.365  37.588  1.00  0.00     0.014 A 
BRANCH  14  18
HETATM   18  O5  UNK     1      19.199  -7.848  37.799  1.00  0.00    -0.356 OA
HETATM   19  C17 UNK     1      18.840  -8.464  36.563  1.00  0.00     0.210 C 
ENDBRANCH  14  18
ENDBRANCH   4  12
BRANCH   6  20
HETATM   20  O2  UNK     1      18.529  -2.357  37.925  1.00  0.00    -0.355 OA
HETATM   21  H8  UNK     1      17.842  -3.031  38.049  1.00  0.00     0.218 HD
ENDBRANCH   6  20
BRANCH  10  22
HETATM   22  O3  UNK     1      18.816   0.658  31.252  1.00  0.00    -0.356 OA
HETATM   23  C16 UNK     1      19.522   0.678  30.012  1.00  0.00     0.210 C 
ENDBRANCH  10  22
TORSDOF 4
ENDMDL
MODEL 5
REMARK VINA RESULT:      -7.6     27.744     30.027
REMARK  4 active torsions:
REMARK  status: ('A' for Active; 'I' for Inactive)
REMARK    1  A    between atoms: C5_10  and  O2_2 
REMARK    2  A    between atoms: C9_14  and  O3_3 
REMARK    3  A    between atoms: C13_18  and  O5_5 
REMARK    4  A    between atoms: C2_7  and  C4_9 
ROOT
HETATM    1  O1  UNK     1      20.183  -3.241  34.661  1.00  0.00    -0.306 OA
HETATM    2  O4  UNK     1      17.734  -0.262  35.974  1.00  0.00    -0.284 OA
HETATM    3  C1  UNK     1      18.996  -1.175  34.203  1.00  0.00     0.053 A 
HETATM    4  C2  UNK     1      19.678  -3.237  35.952  1.00  0.00     0.123 A 
HETATM    5  C3  UNK     1      19.831  -2.221  33.817  1.00  0.00     0.090 A 
HETATM    6  C5  UNK     1      18.871  -2.283  36.451  1.00  0.00     0.152 A 
HETATM    7  C6  UNK     1      18.467  -1.157  35.576  1.00  0.00     0.220 A 
HETATM    8  C7  UNK     1      18.672  -0.161  33.299  1.00  0.00     0.055 A 
HETATM    9  C8  UNK     1      20.347  -2.260  32.521  1.00  0.00     0.041 A 
HETATM   10  C9  UNK     1      19.189  -0.201  32.003  1.00  0.00     0.069 A 
HETATM   11  C11 UNK     1      20.025  -1.249  31.616  1.00  0.00     0.039 A 
ENDROOT
BRANCH   4  12
HETATM   12  C4  UNK     1      20.134  -4.387  36.752  1.00  0.00     0.003 A 
HETATM   13  C10 UNK     1      21.391  -4.363  37.357  1.00  0.00     0.051 A 
HETATM   14  C13 UNK     1      21.822  -5.451  38.114  1.00  0.00     0.069 A 
HETATM   15  C15 UNK     1      20.998  -6.566  38.267  1.00  0.00     0.037 A 
HETATM   16  C14 UNK     1      19.740  -6.591  37.662  1.00  0.00     0.004 A 
HETATM   17  C12 UNK     1      19.309  -5.502  36.906  1.00  0.00     0.014 A 
BRANCH  14  18
HETATM   18  O5  UNK     1      23.049  -5.427  38.704  1.00  0.00    -0.356 OA
HETATM   19  C17 UNK     1      23.511  -6.642  39.292  1.00  0.00     0.210 C 
ENDBRANCH  14  18
ENDBRANCH   4  12
BRANCH   6  20
HETATM   20  O2  UNK     1      18.411  -2.291  37.751  1.00  0.00    -0.355 OA
HETATM   21  H8  UNK     1      18.221  -1.384  38.039  1.00  0.00     0.218 HD
ENDBRANCH   6  20
BRANCH  10  22
HETATM   22  O3  UNK     1      18.877   0.782  31.116  1.00  0.00    -0.356 OA
HETATM   23  C16 UNK     1      19.438   0.678  29.808  1.00  0.00     0.210 C 
ENDBRANCH  10  22
TORSDOF 4
ENDMDL
MODEL 6
REMARK VINA RESULT:      -7.5      3.633      8.636
REMARK  4 active torsions:
REMARK  status: ('A' for Active; 'I' for Inactive)
REMARK    1  A    between atoms: C5_10  and  O2_2 
REMARK    2  A    between atoms: C9_14  and  O3_3 
REMARK    3  A    between atoms: C13_18  and  O5_5 
REMARK    4  A    between atoms: C2_7  and  C4_9 
ROOT
HETATM    1  O1  UNK     1       7.710   4.490   9.033  1.00  0.00    -0.306 OA
HETATM    2  O4  UNK     1       6.578   7.308  11.749  1.00  0.00    -0.284 OA
HETATM    3  C1  UNK     1       6.326   5.112  10.926  1.00  0.00     0.053 A 
HETATM    4  C2  UNK     1       8.282   5.753   9.046  1.00  0.00     0.123 A 
HETATM    5  C3  UNK     1       6.755   4.195   9.970  1.00  0.00     0.090 A 
HETATM    6  C5  UNK     1       7.951   6.731   9.909  1.00  0.00     0.152 A 
HETATM    7  C6  UNK     1       6.918   6.459  10.937  1.00  0.00     0.220 A 
HETATM    8  C7  UNK     1       5.348   4.755  11.857  1.00  0.00     0.055 A 
HETATM    9  C8  UNK     1       6.207   2.912   9.939  1.00  0.00     0.041 A 
HETATM   10  C9  UNK     1       4.801   3.471  11.824  1.00  0.00     0.069 A 
HETATM   11  C11 UNK     1       5.230   2.552  10.866  1.00  0.00     0.039 A 
ENDROOT
BRANCH   4  12
HETATM   12  C4  UNK     1       9.290   5.939   7.988  1.00  0.00     0.003 A 
HETATM   13  C10 UNK     1      10.646   5.779   8.278  1.00  0.00     0.051 A 
HETATM   14  C13 UNK     1      11.599   5.954   7.276  1.00  0.00     0.069 A 
HETATM   15  C15 UNK     1      11.200   6.290   5.983  1.00  0.00     0.037 A 
HETATM   16  C14 UNK     1       9.844   6.451   5.692  1.00  0.00     0.004 A 
HETATM   17  C12 UNK     1       8.891   6.275   6.694  1.00  0.00     0.014 A 
BRANCH  14  18
HETATM   18  O5  UNK     1      12.922   5.798   7.561  1.00  0.00    -0.356 OA
HETATM   19  C17 UNK     1      13.251   4.988   8.689  1.00  0.00     0.210 C 
ENDBRANCH  14  18
ENDBRANCH   4  12
BRANCH   6  20
HETATM   20  O2  UNK     1       8.515   7.989   9.873  1.00  0.00    -0.355 OA
HETATM   21  H8  UNK     1       9.179   8.072  10.576  1.00  0.00     0.218 HD
ENDBRANCH   6  20
BRANCH  10  22
HETATM   22  O3  UNK     1       3.847   3.115  12.728  1.00  0.00    -0.356 OA
HETATM   23  C16 UNK     1       4.283   2.403  13.885  1.00  0.00     0.210 C 
ENDBRANCH  10  22
TORSDOF 4
ENDMDL
MODEL 7
REMARK VINA RESULT:      -7.5     23.550     25.596
REMARK  4 active torsions:
REMARK  status: ('A' for Active; 'I' for Inactive)
REMARK    1  A    between atoms: C5_10  and  O2_2 
REMARK    2  A    between atoms: C9_14  and  O3_3 
REMARK    3  A    between atoms: C13_18  and  O5_5 
REMARK    4  A    between atoms: C2_7  and  C4_9 
ROOT
HETATM    1  O1  UNK     1      18.428   4.706  33.910  1.00  0.00    -0.306 OA
HETATM    2  O4  UNK     1      18.645   3.381  30.063  1.00  0.00    -0.284 OA
HETATM    3  C1  UNK     1      18.451   2.846  32.352  1.00  0.00     0.053 A 
HETATM    4  C2  UNK     1      18.533   5.588  32.846  1.00  0.00     0.123 A 
HETATM    5  C3  UNK     1      18.384   3.363  33.643  1.00  0.00     0.090 A 
HETATM    6  C5  UNK     1      18.616   5.219  31.554  1.00  0.00     0.152 A 
HETATM    7  C6  UNK     1      18.576   3.776  31.219  1.00  0.00     0.220 A 
HETATM    8  C7  UNK     1      18.401   1.466  32.140  1.00  0.00     0.055 A 
HETATM    9  C8  UNK     1      18.266   2.500  34.734  1.00  0.00     0.041 A 
HETATM   10  C9  UNK     1      18.283   0.605  33.233  1.00  0.00     0.069 A 
HETATM   11  C11 UNK     1      18.216   1.122  34.527  1.00  0.00     0.039 A 
ENDROOT
BRANCH   4  12
HETATM   12  C4  UNK     1      18.572   6.999  33.270  1.00  0.00     0.003 A 
HETATM   13  C10 UNK     1      17.460   7.818  33.077  1.00  0.00     0.051 A 
HETATM   14  C13 UNK     1      17.498   9.153  33.480  1.00  0.00     0.069 A 
HETATM   15  C15 UNK     1      18.648   9.670  34.075  1.00  0.00     0.037 A 
HETATM   16  C14 UNK     1      19.762   8.851  34.268  1.00  0.00     0.004 A 
HETATM   17  C12 UNK     1      19.723   7.517  33.866  1.00  0.00     0.014 A 
BRANCH  14  18
HETATM   18  O5  UNK     1      16.411   9.951  33.291  1.00  0.00    -0.356 OA
HETATM   19  C17 UNK     1      15.244   9.340  32.743  1.00  0.00     0.210 C 
ENDBRANCH  14  18
ENDBRANCH   4  12
BRANCH   6  20
HETATM   20  O2  UNK     1      18.753   6.122  30.521  1.00  0.00    -0.355 OA
HETATM   21  H8  UNK     1      18.187   5.860  29.778  1.00  0.00     0.218 HD
ENDBRANCH   6  20
BRANCH  10  22
HETATM   22  O3  UNK     1      18.234  -0.741  33.036  1.00  0.00    -0.356 OA
HETATM   23  C16 UNK     1      19.225  -1.308  32.180  1.00  0.00     0.210 C 
ENDBRANCH  10  22
TORSDOF 4
ENDMDL
MODEL 8
REMARK VINA RESULT:      -7.5     24.211     26.355
REMARK  4 active torsions:
REMARK  status: ('A' for Active; 'I' for Inactive)
REMARK    1  A    between atoms: C5_10  and  O2_2 
REMARK    2  A    between atoms: C9_14  and  O3_3 
REMARK    3  A    between atoms: C13_18  and  O5_5 
REMARK    4  A    between atoms: C2_7  and  C4_9 
ROOT
HETATM    1  O1  UNK     1      18.285   3.884  34.591  1.00  0.00    -0.306 OA
HETATM    2  O4  UNK     1      18.371   1.500  31.287  1.00  0.00    -0.284 OA
HETATM    3  C1  UNK     1      18.337   1.652  33.641  1.00  0.00     0.053 A 
HETATM    4  C2  UNK     1      18.276   4.420  33.312  1.00  0.00     0.123 A 
HETATM    5  C3  UNK     1      18.310   2.522  34.729  1.00  0.00     0.090 A 
HETATM    6  C5  UNK     1      18.309   3.693  32.180  1.00  0.00     0.152 A 
HETATM    7  C6  UNK     1      18.342   2.214  32.281  1.00  0.00     0.220 A 
HETATM    8  C7  UNK     1      18.362   0.270  33.843  1.00  0.00     0.055 A 
HETATM    9  C8  UNK     1      18.306   2.013  36.028  1.00  0.00     0.041 A 
HETATM   10  C9  UNK     1      18.359  -0.237  35.143  1.00  0.00     0.069 A 
HETATM   11  C11 UNK     1      18.331   0.633  36.233  1.00  0.00     0.039 A 
ENDROOT
BRANCH   4  12
HETATM   12  C4  UNK     1      18.250   5.893  33.306  1.00  0.00     0.003 A 
HETATM   13  C10 UNK     1      17.239   6.572  32.625  1.00  0.00     0.051 A 
HETATM   14  C13 UNK     1      17.215   7.966  32.620  1.00  0.00     0.069 A 
HETATM   15  C15 UNK     1      18.203   8.683  33.295  1.00  0.00     0.037 A 
HETATM   16  C14 UNK     1      19.215   8.005  33.976  1.00  0.00     0.004 A 
HETATM   17  C12 UNK     1      19.237   6.611  33.981  1.00  0.00     0.014 A 
BRANCH  14  18
HETATM   18  O5  UNK     1      16.228   8.627  31.955  1.00  0.00    -0.356 OA
HETATM   19  C17 UNK     1      15.279   9.342  32.747  1.00  0.00     0.210 C 
ENDBRANCH  14  18
ENDBRANCH   4  12
BRANCH   6  20
HETATM   20  O2  UNK     1      18.333   4.258  30.923  1.00  0.00    -0.355 OA
HETATM   21  H8  UNK     1      17.774   3.742  30.320  1.00  0.00     0.218 HD
ENDBRANCH   6  20
BRANCH  10  22
HETATM   22  O3  UNK     1      18.383  -1.582  35.349  1.00  0.00    -0.356 OA
HETATM   23  C16 UNK     1      18.248  -2.035  36.695  1.00  0.00     0.210 C 
ENDBRANCH  10  22
TORSDOF 4
ENDMDL
MODEL 9
REMARK VINA RESULT:      -7.3     22.898     25.000
REMARK  4 active torsions:
REMARK  status: ('A' for Active; 'I' for Inactive)
REMARK    1  A    between atoms: C5_10  and  O2_2 
REMARK    2  A    between atoms: C9_14  and  O3_3 
REMARK    3  A    between atoms: C13_18  and  O5_5 
REMARK    4  A    between atoms: C2_7  and  C4_9 
ROOT
HETATM    1  O1  UNK     1      18.283   4.585  31.628  1.00  0.00    -0.306 OA
HETATM    2  O4  UNK     1      18.646   1.046  33.614  1.00  0.00    -0.284 OA
HETATM    3  C1  UNK     1      18.587   2.179  31.546  1.00  0.00     0.053 A 
HETATM    4  C2  UNK     1      18.252   4.526  33.013  1.00  0.00     0.123 A 
HETATM    5  C3  UNK     1      18.454   3.420  30.928  1.00  0.00     0.090 A 
HETATM    6  C5  UNK     1      18.359   3.393  33.730  1.00  0.00     0.152 A 
HETATM    7  C6  UNK     1      18.541   2.108  33.015  1.00  0.00     0.220 A 
HETATM    8  C7  UNK     1      18.758   1.024  30.780  1.00  0.00     0.055 A 
HETATM    9  C8  UNK     1      18.492   3.513  29.536  1.00  0.00     0.041 A 
HETATM   10  C9  UNK     1      18.796   1.119  29.388  1.00  0.00     0.069 A 
HETATM   11  C11 UNK     1      18.663   2.362  28.768  1.00  0.00     0.039 A 
ENDROOT
BRANCH   4  12
HETATM   12  C4  UNK     1      18.062   5.846  33.640  1.00  0.00     0.003 A 
HETATM   13  C10 UNK     1      16.784   6.396  33.740  1.00  0.00     0.051 A 
HETATM   14  C13 UNK     1      16.606   7.645  34.334  1.00  0.00     0.069 A 
HETATM   15  C15 UNK     1      17.705   8.346  34.828  1.00  0.00     0.037 A 
HETATM   16  C14 UNK     1      18.984   7.797  34.729  1.00  0.00     0.004 A 
HETATM   17  C12 UNK     1      19.162   6.548  34.135  1.00  0.00     0.014 A 
BRANCH  14  18
HETATM   18  O5  UNK     1      15.357   8.180  34.431  1.00  0.00    -0.356 OA
HETATM   19  C17 UNK     1      14.398   7.770  33.456  1.00  0.00     0.210 C 
ENDBRANCH  14  18
ENDBRANCH   4  12
BRANCH   6  20
HETATM   20  O2  UNK     1      18.291   3.365  35.107  1.00  0.00    -0.355 OA
HETATM   21  H8  UNK     1      17.872   4.178  35.433  1.00  0.00     0.218 HD
ENDBRANCH   6  20
BRANCH  10  22
HETATM   22  O3  UNK     1      18.963  -0.001  28.634  1.00  0.00    -0.356 OA
HETATM   23  C16 UNK     1      20.168  -0.740  28.827  1.00  0.00     0.210 C 
ENDBRANCH  10  22
TORSDOF 4
ENDMDL
MODEL 10
REMARK VINA RESULT:      -7.3     33.717     35.823
REMARK  4 active torsions:
REMARK  status: ('A' for Active; 'I' for Inactive)
REMARK    1  A    between atoms: C5_10  and  O2_2 
REMARK    2  A    between atoms: C9_14  and  O3_3 
REMARK    3  A    between atoms: C13_18  and  O5_5 
REMARK    4  A    between atoms: C2_7  and  C4_9 
ROOT
HETATM    1  O1  UNK     1      25.931  -6.574  38.572  1.00  0.00    -0.306 OA
HETATM    2  O4  UNK     1      28.878  -9.385  38.700  1.00  0.00    -0.284 OA
HETATM    3  C1  UNK     1      28.297  -7.099  38.687  1.00  0.00     0.053 A 
HETATM    4  C2  UNK     1      25.638  -7.929  38.564  1.00  0.00     0.123 A 
HETATM    5  C3  UNK     1      27.244  -6.189  38.638  1.00  0.00     0.090 A 
HETATM    6  C5  UNK     1      26.560  -8.909  38.597  1.00  0.00     0.152 A 
HETATM    7  C6  UNK     1      27.994  -8.538  38.665  1.00  0.00     0.220 A 
HETATM    8  C7  UNK     1      29.617  -6.648  38.754  1.00  0.00     0.055 A 
HETATM    9  C8  UNK     1      27.506  -4.818  38.656  1.00  0.00     0.041 A 
HETATM   10  C9  UNK     1      29.877  -5.277  38.772  1.00  0.00     0.069 A 
HETATM   11  C11 UNK     1      28.822  -4.364  38.723  1.00  0.00     0.039 A 
ENDROOT
BRANCH   4  12
HETATM   12  C4  UNK     1      24.193  -8.205  38.489  1.00  0.00     0.003 A 
HETATM   13  C10 UNK     1      23.633  -8.682  37.303  1.00  0.00     0.051 A 
HETATM   14  C13 UNK     1      22.265  -8.943  37.234  1.00  0.00     0.069 A 
HETATM   15  C15 UNK     1      21.455  -8.726  38.348  1.00  0.00     0.037 A 
HETATM   16  C14 UNK     1      22.015  -8.249  39.534  1.00  0.00     0.004 A 
HETATM   17  C12 UNK     1      23.383  -7.989  39.604  1.00  0.00     0.014 A 
BRANCH  14  18
HETATM   18  O5  UNK     1      21.719  -9.409  36.076  1.00  0.00    -0.356 OA
HETATM   19  C17 UNK     1      21.048  -8.460  35.248  1.00  0.00     0.210 C 
ENDBRANCH  14  18
ENDBRANCH   4  12
BRANCH   6  20
HETATM   20  O2  UNK     1      26.237 -10.248  38.554  1.00  0.00    -0.355 OA
HETATM   21  H8  UNK     1      27.004 -10.780  38.821  1.00  0.00     0.218 HD
ENDBRANCH   6  20
BRANCH  10  22
HETATM   22  O3  UNK     1      31.160  -4.828  38.837  1.00  0.00    -0.356 OA
HETATM   23  C16 UNK     1      32.173  -5.678  38.300  1.00  0.00     0.210 C 
ENDBRANCH  10  22
TORSDOF 4
ENDMDL
