MODEL 1
REMARK VINA RESULT:      -6.7      0.000      0.000
REMARK  2 active torsions:
REMARK  status: ('A' for Active; 'I' for Inactive)
REMARK    1  A    between atoms: C4_8  and  O2_2 
REMARK    2  A    between atoms: C7_11  and  O3_3 
ROOT
HETATM    1  O1  UNK     1      19.521   0.953  29.430  1.00  0.00    -0.275 OA
HETATM    2  O4  UNK     1      20.452  -0.677  28.125  1.00  0.00    -0.260 OA
HETATM    3  C1  UNK     1      19.104   0.500  31.794  1.00  0.00     0.037 A 
HETATM    4  C2  UNK     1      19.055   1.361  30.697  1.00  0.00     0.095 A 
HETATM    5  C3  UNK     1      19.655  -0.848  31.606  1.00  0.00    -0.040 A 
HETATM    6  C4  UNK     1      18.622   0.981  33.019  1.00  0.00     0.084 A 
HETATM    7  C5  UNK     1      18.548   2.658  30.788  1.00  0.00     0.075 A 
HETATM    8  C6  UNK     1      18.111   2.279  33.127  1.00  0.00     0.074 A 
HETATM    9  C7  UNK     1      18.074   3.116  32.013  1.00  0.00     0.073 A 
HETATM   10  C8  UNK     1      20.090  -1.209  30.391  1.00  0.00     0.090 A 
HETATM   11  C9  UNK     1      19.746  -1.841  32.731  1.00  0.00     0.049 C 
HETATM   12  C10 UNK     1      20.045  -0.313  29.223  1.00  0.00     0.288 A 
ENDROOT
BRANCH   6  13
HETATM   13  O2  UNK     1      18.617   0.240  34.164  1.00  0.00    -0.355 OA
HETATM   14  C11 UNK     1      18.725   0.953  35.395  1.00  0.00     0.210 C 
ENDBRANCH   6  13
BRANCH   9  15
HETATM   15  O3  UNK     1      17.576   4.378  32.124  1.00  0.00    -0.356 OA
HETATM   16  C12 UNK     1      18.009   5.152  33.242  1.00  0.00     0.210 C 
ENDBRANCH   9  15
TORSDOF 2
ENDMDL
MODEL 2
REMARK VINA RESULT:      -6.4      2.348      4.374
REMARK  2 active torsions:
REMARK  status: ('A' for Active; 'I' for Inactive)
REMARK    1  A    between atoms: C4_8  and  O2_2 
REMARK    2  A    between atoms: C7_11  and  O3_3 
ROOT
HETATM    1  O1  UNK     1      18.323   1.738  30.727  1.00  0.00    -0.275 OA
HETATM    2  O4  UNK     1      18.441   1.406  28.468  1.00  0.00    -0.260 OA
HETATM    3  C1  UNK     1      18.596   3.996  31.620  1.00  0.00     0.037 A 
HETATM    4  C2  UNK     1      18.377   2.631  31.817  1.00  0.00     0.095 A 
HETATM    5  C3  UNK     1      18.771   4.489  30.248  1.00  0.00    -0.040 A 
HETATM    6  C4  UNK     1      18.635   4.818  32.754  1.00  0.00     0.084 A 
HETATM    7  C5  UNK     1      18.201   2.080  33.086  1.00  0.00     0.075 A 
HETATM    8  C6  UNK     1      18.460   4.279  34.035  1.00  0.00     0.074 A 
HETATM    9  C7  UNK     1      18.243   2.912  34.200  1.00  0.00     0.073 A 
HETATM   10  C8  UNK     1      18.715   3.617  29.232  1.00  0.00     0.090 A 
HETATM   11  C9  UNK     1      19.011   5.942  29.943  1.00  0.00     0.049 C 
HETATM   12  C10 UNK     1      18.485   2.175  29.422  1.00  0.00     0.288 A 
ENDROOT
BRANCH   6  13
HETATM   13  O2  UNK     1      18.840   6.165  32.696  1.00  0.00    -0.355 OA
HETATM   14  C11 UNK     1      19.678   6.735  33.699  1.00  0.00     0.210 C 
ENDBRANCH   6  13
BRANCH   9  15
HETATM   15  O3  UNK     1      18.073   2.395  35.447  1.00  0.00    -0.356 OA
HETATM   16  C12 UNK     1      18.620   1.100  35.693  1.00  0.00     0.210 C 
ENDBRANCH   9  15
TORSDOF 2
ENDMDL
MODEL 3
REMARK VINA RESULT:      -6.4      2.504      6.057
REMARK  2 active torsions:
REMARK  status: ('A' for Active; 'I' for Inactive)
REMARK    1  A    between atoms: C4_8  and  O2_2 
REMARK    2  A    between atoms: C7_11  and  O3_3 
ROOT
HETATM    1  O1  UNK     1      18.288   5.470  34.161  1.00  0.00    -0.275 OA
HETATM    2  O4  UNK     1      18.432   7.737  34.420  1.00  0.00    -0.260 OA
HETATM    3  C1  UNK     1      18.521   4.504  31.928  1.00  0.00     0.037 A 
HETATM    4  C2  UNK     1      18.319   4.352  33.301  1.00  0.00     0.095 A 
HETATM    5  C3  UNK     1      18.704   5.858  31.390  1.00  0.00    -0.040 A 
HETATM    6  C4  UNK     1      18.539   3.345  31.142  1.00  0.00     0.084 A 
HETATM    7  C5  UNK     1      18.137   3.103  33.895  1.00  0.00     0.075 A 
HETATM    8  C6  UNK     1      18.358   2.084  31.723  1.00  0.00     0.074 A 
HETATM    9  C7  UNK     1      18.158   1.963  33.097  1.00  0.00     0.073 A 
HETATM   10  C8  UNK     1      18.670   6.902  32.231  1.00  0.00     0.090 A 
HETATM   11  C9  UNK     1      18.927   6.115  29.926  1.00  0.00     0.049 C 
HETATM   12  C10 UNK     1      18.457   6.759  33.681  1.00  0.00     0.288 A 
ENDROOT
BRANCH   6  13
HETATM   13  O2  UNK     1      18.729   3.359  29.792  1.00  0.00    -0.355 OA
HETATM   14  C11 UNK     1      18.168   2.278  29.049  1.00  0.00     0.210 C 
ENDBRANCH   6  13
BRANCH   9  15
HETATM   15  O3  UNK     1      17.983   0.735  33.656  1.00  0.00    -0.356 OA
HETATM   16  C12 UNK     1      17.146   0.658  34.808  1.00  0.00     0.210 C 
ENDBRANCH   9  15
TORSDOF 2
ENDMDL
MODEL 4
REMARK VINA RESULT:      -6.4      1.453      3.760
REMARK  2 active torsions:
REMARK  status: ('A' for Active; 'I' for Inactive)
REMARK    1  A    between atoms: C4_8  and  O2_2 
REMARK    2  A    between atoms: C7_11  and  O3_3 
ROOT
HETATM    1  O1  UNK     1      19.954  -1.085  30.510  1.00  0.00    -0.275 OA
HETATM    2  O4  UNK     1      20.524  -0.771  28.318  1.00  0.00    -0.260 OA
HETATM    3  C1  UNK     1      18.880   0.734  31.738  1.00  0.00     0.037 A 
HETATM    4  C2  UNK     1      19.387  -0.566  31.692  1.00  0.00     0.095 A 
HETATM    5  C3  UNK     1      18.948   1.559  30.524  1.00  0.00    -0.040 A 
HETATM    6  C4  UNK     1      18.332   1.175  32.949  1.00  0.00     0.084 A 
HETATM    7  C5  UNK     1      19.362  -1.416  32.798  1.00  0.00     0.075 A 
HETATM    8  C6  UNK     1      18.300   0.334  34.068  1.00  0.00     0.074 A 
HETATM    9  C7  UNK     1      18.814  -0.959  33.992  1.00  0.00     0.073 A 
HETATM   10  C8  UNK     1      19.493   1.039  29.415  1.00  0.00     0.090 A 
HETATM   11  C9  UNK     1      18.427   2.968  30.483  1.00  0.00     0.049 C 
HETATM   12  C10 UNK     1      20.032  -0.329  29.350  1.00  0.00     0.288 A 
ENDROOT
BRANCH   6  13
HETATM   13  O2  UNK     1      17.804   2.420  33.123  1.00  0.00    -0.355 OA
HETATM   14  C11 UNK     1      18.267   3.168  34.246  1.00  0.00     0.210 C 
ENDBRANCH   6  13
BRANCH   9  15
HETATM   15  O3  UNK     1      18.779  -1.772  35.083  1.00  0.00    -0.356 OA
HETATM   16  C12 UNK     1      20.032  -2.203  35.612  1.00  0.00     0.210 C 
ENDBRANCH   9  15
TORSDOF 2
ENDMDL
MODEL 5
REMARK VINA RESULT:      -6.3      2.704      5.721
REMARK  2 active torsions:
REMARK  status: ('A' for Active; 'I' for Inactive)
REMARK    1  A    between atoms: C4_8  and  O2_2 
REMARK    2  A    between atoms: C7_11  and  O3_3 
ROOT
HETATM    1  O1  UNK     1      20.653  -3.285  35.283  1.00  0.00    -0.275 OA
HETATM    2  O4  UNK     1      20.771  -4.008  37.448  1.00  0.00    -0.260 OA
HETATM    3  C1  UNK     1      19.096  -1.493  34.704  1.00  0.00     0.037 A 
HETATM    4  C2  UNK     1      20.075  -2.417  34.334  1.00  0.00     0.095 A 
HETATM    5  C3  UNK     1      18.676  -1.439  36.110  1.00  0.00    -0.040 A 
HETATM    6  C4  UNK     1      18.572  -0.665  33.702  1.00  0.00     0.084 A 
HETATM    7  C5  UNK     1      20.532  -2.534  33.021  1.00  0.00     0.075 A 
HETATM    8  C6  UNK     1      19.021  -0.770  32.380  1.00  0.00     0.074 A 
HETATM    9  C7  UNK     1      19.999  -1.703  32.040  1.00  0.00     0.073 A 
HETATM   10  C8  UNK     1      19.242  -2.277  36.990  1.00  0.00     0.090 A 
HETATM   11  C9  UNK     1      17.629  -0.476  36.597  1.00  0.00     0.049 C 
HETATM   12  C10 UNK     1      20.275  -3.257  36.616  1.00  0.00     0.288 A 
ENDROOT
BRANCH   6  13
HETATM   13  O2  UNK     1      17.615   0.278  33.934  1.00  0.00    -0.355 OA
HETATM   14  C11 UNK     1      17.992   1.641  33.749  1.00  0.00     0.210 C 
ENDBRANCH   6  13
BRANCH   9  15
HETATM   15  O3  UNK     1      20.431  -1.800  30.753  1.00  0.00    -0.356 OA
HETATM   16  C12 UNK     1      20.557  -0.585  30.016  1.00  0.00     0.210 C 
ENDBRANCH   9  15
TORSDOF 2
ENDMDL
MODEL 6
REMARK VINA RESULT:      -6.3     22.661     24.592
REMARK  2 active torsions:
REMARK  status: ('A' for Active; 'I' for Inactive)
REMARK    1  A    between atoms: C4_8  and  O2_2 
REMARK    2  A    between atoms: C7_11  and  O3_3 
ROOT
HETATM    1  O1  UNK     1      14.385   4.977   8.632  1.00  0.00    -0.275 OA
HETATM    2  O4  UNK     1      16.502   4.678   9.441  1.00  0.00    -0.260 OA
HETATM    3  C1  UNK     1      13.087   6.913   9.366  1.00  0.00     0.037 A 
HETATM    4  C2  UNK     1      13.204   5.748   8.606  1.00  0.00     0.095 A 
HETATM    5  C3  UNK     1      14.223   7.325  10.200  1.00  0.00    -0.040 A 
HETATM    6  C4  UNK     1      11.882   7.623   9.284  1.00  0.00     0.084 A 
HETATM    7  C5  UNK     1      12.174   5.284   7.786  1.00  0.00     0.075 A 
HETATM    8  C6  UNK     1      10.839   7.171   8.466  1.00  0.00     0.074 A 
HETATM    9  C7  UNK     1      10.985   6.004   7.719  1.00  0.00     0.073 A 
HETATM   10  C8  UNK     1      15.332   6.573  10.206  1.00  0.00     0.090 A 
HETATM   11  C9  UNK     1      14.184   8.565  11.050  1.00  0.00     0.049 C 
HETATM   12  C10 UNK     1      15.472   5.342   9.410  1.00  0.00     0.288 A 
ENDROOT
BRANCH   6  13
HETATM   13  O2  UNK     1      11.643   8.774   9.974  1.00  0.00    -0.355 OA
HETATM   14  C11 UNK     1      10.359   9.372   9.809  1.00  0.00     0.210 C 
ENDBRANCH   6  13
BRANCH   9  15
HETATM   15  O3  UNK     1       9.968   5.570   6.926  1.00  0.00    -0.356 OA
HETATM   16  C12 UNK     1       9.688   6.332   5.752  1.00  0.00     0.210 C 
ENDBRANCH   9  15
TORSDOF 2
ENDMDL
MODEL 7
REMARK VINA RESULT:      -6.3      1.623      4.362
REMARK  2 active torsions:
REMARK  status: ('A' for Active; 'I' for Inactive)
REMARK    1  A    between atoms: C4_8  and  O2_2 
REMARK    2  A    between atoms: C7_11  and  O3_3 
ROOT
HETATM    1  O1  UNK     1      17.991   2.906  32.883  1.00  0.00    -0.275 OA
HETATM    2  O4  UNK     1      17.970   4.725  31.498  1.00  0.00    -0.260 OA
HETATM    3  C1  UNK     1      18.790   0.761  32.029  1.00  0.00     0.037 A 
HETATM    4  C2  UNK     1      18.273   1.537  33.068  1.00  0.00     0.095 A 
HETATM    5  C3  UNK     1      19.037   1.400  30.730  1.00  0.00    -0.040 A 
HETATM    6  C4  UNK     1      19.045  -0.591  32.293  1.00  0.00     0.084 A 
HETATM    7  C5  UNK     1      18.010   1.010  34.333  1.00  0.00     0.075 A 
HETATM    8  C6  UNK     1      18.786  -1.135  33.557  1.00  0.00     0.074 A 
HETATM    9  C7  UNK     1      18.270  -0.335  34.575  1.00  0.00     0.073 A 
HETATM   10  C8  UNK     1      18.759   2.703  30.583  1.00  0.00     0.090 A 
HETATM   11  C9  UNK     1      19.592   0.642  29.557  1.00  0.00     0.049 C 
HETATM   12  C10 UNK     1      18.213   3.535  31.669  1.00  0.00     0.288 A 
ENDROOT
BRANCH   6  13
HETATM   13  O2  UNK     1      19.551  -1.452  31.365  1.00  0.00    -0.355 OA
HETATM   14  C11 UNK     1      20.686  -2.225  31.751  1.00  0.00     0.210 C 
ENDBRANCH   6  13
BRANCH   9  15
HETATM   15  O3  UNK     1      18.020  -0.869  35.801  1.00  0.00    -0.356 OA
HETATM   16  C12 UNK     1      17.310  -0.054  36.733  1.00  0.00     0.210 C 
ENDBRANCH   9  15
TORSDOF 2
ENDMDL
MODEL 8
REMARK VINA RESULT:      -6.2      8.268     11.110
REMARK  2 active torsions:
REMARK  status: ('A' for Active; 'I' for Inactive)
REMARK    1  A    between atoms: C4_8  and  O2_2 
REMARK    2  A    between atoms: C7_11  and  O3_3 
ROOT
HETATM    1  O1  UNK     1      18.982  -9.362  38.350  1.00  0.00    -0.275 OA
HETATM    2  O4  UNK     1      19.134 -11.501  39.143  1.00  0.00    -0.260 OA
HETATM    3  C1  UNK     1      20.194  -8.751  36.318  1.00  0.00     0.037 A 
HETATM    4  C2  UNK     1      19.348  -8.411  37.375  1.00  0.00     0.095 A 
HETATM    5  C3  UNK     1      20.701 -10.127  36.238  1.00  0.00    -0.040 A 
HETATM    6  C4  UNK     1      20.509  -7.749  35.390  1.00  0.00     0.084 A 
HETATM    7  C5  UNK     1      18.821  -7.127  37.526  1.00  0.00     0.075 A 
HETATM    8  C6  UNK     1      19.989  -6.457  35.528  1.00  0.00     0.074 A 
HETATM    9  C7  UNK     1      19.146  -6.147  36.594  1.00  0.00     0.073 A 
HETATM   10  C8  UNK     1      20.337 -11.009  37.179  1.00  0.00     0.090 A 
HETATM   11  C9  UNK     1      21.616 -10.580  35.135  1.00  0.00     0.049 C 
HETATM   12  C10 UNK     1      19.446 -10.667  38.299  1.00  0.00     0.288 A 
ENDROOT
BRANCH   6  13
HETATM   13  O2  UNK     1      21.322  -7.954  34.315  1.00  0.00    -0.355 OA
HETATM   14  C11 UNK     1      21.008  -7.238  33.122  1.00  0.00     0.210 C 
ENDBRANCH   6  13
BRANCH   9  15
HETATM   15  O3  UNK     1      18.643  -4.889  36.723  1.00  0.00    -0.356 OA
HETATM   16  C12 UNK     1      19.567  -3.806  36.621  1.00  0.00     0.210 C 
ENDBRANCH   9  15
TORSDOF 2
ENDMDL
MODEL 9
REMARK VINA RESULT:      -6.2      1.884      4.469
REMARK  2 active torsions:
REMARK  status: ('A' for Active; 'I' for Inactive)
REMARK    1  A    between atoms: C4_8  and  O2_2 
REMARK    2  A    between atoms: C7_11  and  O3_3 
ROOT
HETATM    1  O1  UNK     1      18.257   2.861  35.357  1.00  0.00    -0.275 OA
HETATM    2  O4  UNK     1      18.308   1.496  37.190  1.00  0.00    -0.260 OA
HETATM    3  C1  UNK     1      18.376   1.871  33.126  1.00  0.00     0.037 A 
HETATM    4  C2  UNK     1      18.280   2.992  33.953  1.00  0.00     0.095 A 
HETATM    5  C3  UNK     1      18.451   0.543  33.747  1.00  0.00    -0.040 A 
HETATM    6  C4  UNK     1      18.392   2.086  31.741  1.00  0.00     0.084 A 
HETATM    7  C5  UNK     1      18.204   4.289  33.446  1.00  0.00     0.075 A 
HETATM    8  C6  UNK     1      18.316   3.382  31.217  1.00  0.00     0.074 A 
HETATM    9  C7  UNK     1      18.222   4.481  32.068  1.00  0.00     0.073 A 
HETATM   10  C8  UNK     1      18.427   0.449  35.084  1.00  0.00     0.090 A 
HETATM   11  C9  UNK     1      18.555  -0.717  32.934  1.00  0.00     0.049 C 
HETATM   12  C10 UNK     1      18.327   1.620  35.971  1.00  0.00     0.288 A 
ENDROOT
BRANCH   6  13
HETATM   13  O2  UNK     1      18.480   1.077  30.829  1.00  0.00    -0.355 OA
HETATM   14  C11 UNK     1      18.619   1.453  29.460  1.00  0.00     0.210 C 
ENDBRANCH   6  13
BRANCH   9  15
HETATM   15  O3  UNK     1      18.148   5.739  31.552  1.00  0.00    -0.356 OA
HETATM   16  C12 UNK     1      18.869   5.990  30.347  1.00  0.00     0.210 C 
ENDBRANCH   9  15
TORSDOF 2
ENDMDL
MODEL 10
REMARK VINA RESULT:      -6.1      4.614      7.456
REMARK  2 active torsions:
REMARK  status: ('A' for Active; 'I' for Inactive)
REMARK    1  A    between atoms: C4_8  and  O2_2 
REMARK    2  A    between atoms: C7_11  and  O3_3 
ROOT
HETATM    1  O1  UNK     1      16.655   5.550  32.250  1.00  0.00    -0.275 OA
HETATM    2  O4  UNK     1      17.891   3.668  31.849  1.00  0.00    -0.260 OA
HETATM    3  C1  UNK     1      17.767   7.551  33.102  1.00  0.00     0.037 A 
HETATM    4  C2  UNK     1      16.611   6.891  32.682  1.00  0.00     0.095 A 
HETATM    5  C3  UNK     1      19.041   6.820  33.084  1.00  0.00    -0.040 A 
HETATM    6  C4  UNK     1      17.640   8.884  33.516  1.00  0.00     0.084 A 
HETATM    7  C5  UNK     1      15.361   7.511  32.667  1.00  0.00     0.075 A 
HETATM    8  C6  UNK     1      16.393   9.520  33.506  1.00  0.00     0.074 A 
HETATM    9  C7  UNK     1      15.256   8.835  33.082  1.00  0.00     0.073 A 
HETATM   10  C8  UNK     1      19.053   5.546  32.668  1.00  0.00     0.090 A 
HETATM   11  C9  UNK     1      20.334   7.452  33.518  1.00  0.00     0.049 C 
HETATM   12  C10 UNK     1      17.842   4.835  32.223  1.00  0.00     0.288 A 
ENDROOT
BRANCH   6  13
HETATM   13  O2  UNK     1      18.691   9.638  33.945  1.00  0.00    -0.355 OA
HETATM   14  C11 UNK     1      18.499  11.051  33.987  1.00  0.00     0.210 C 
ENDBRANCH   6  13
BRANCH   9  15
HETATM   15  O3  UNK     1      14.046   9.459  33.074  1.00  0.00    -0.356 OA
HETATM   16  C12 UNK     1      14.051  10.885  33.108  1.00  0.00     0.210 C 
ENDBRANCH   9  15
TORSDOF 2
ENDMDL
