MODEL 1
REMARK VINA RESULT:      -8.9      0.000      0.000
REMARK  1 active torsions:
REMARK  status: ('A' for Active; 'I' for Inactive)
REMARK    1  A    between atoms: C12_14  and  C5_7 
ROOT
HETATM    1  S1  UNK     1      13.171   8.111   8.339  1.00  0.00    -0.088 SA
HETATM    2  O1  UNK     1      15.154   4.377   9.599  1.00  0.00    -0.287 OA
HETATM    3  C1  UNK     1      14.794   7.972   9.092  1.00  0.00     0.031 A 
HETATM    4  C2  UNK     1      15.555   9.172   9.317  1.00  0.00    -0.008 A 
HETATM    5  C3  UNK     1      15.334   6.727   9.462  1.00  0.00     0.032 A 
HETATM    6  C4  UNK     1      16.841   9.069   9.910  1.00  0.00    -0.025 A 
HETATM    7  C5  UNK     1      12.609   6.493   8.279  1.00  0.00     0.019 A 
HETATM    8  C6  UNK     1      16.605   6.662  10.044  1.00  0.00     0.018 A 
HETATM    9  C7  UNK     1      17.347   7.817  10.264  1.00  0.00     0.013 A 
HETATM   10  C8  UNK     1      14.629   5.438   9.273  1.00  0.00     0.184 A 
HETATM   11  C9  UNK     1      15.121  10.486   8.988  1.00  0.00     0.013 A 
HETATM   12  C10 UNK     1      13.275   5.412   8.689  1.00  0.00     0.075 A 
HETATM   13  C11 UNK     1      17.619  10.215  10.149  1.00  0.00     0.012 A 
HETATM   14  C13 UNK     1      15.904  11.618   9.232  1.00  0.00     0.001 A 
HETATM   15  C14 UNK     1      17.154  11.482   9.813  1.00  0.00     0.001 A 
ENDROOT
BRANCH   7  16
HETATM   16  C12 UNK     1      11.262   6.325   7.713  1.00  0.00    -0.019 A 
HETATM   17  C16 UNK     1      10.160   6.195   8.559  1.00  0.00     0.013 A 
HETATM   18  C18 UNK     1       8.882   6.036   8.023  1.00  0.00     0.001 A 
HETATM   19  C19 UNK     1       8.704   6.007   6.640  1.00  0.00     0.000 A 
HETATM   20  C17 UNK     1       9.805   6.137   5.793  1.00  0.00     0.001 A 
HETATM   21  C15 UNK     1      11.083   6.296   6.328  1.00  0.00     0.013 A 
ENDBRANCH   7  16
TORSDOF 1
ENDMDL
MODEL 2
REMARK VINA RESULT:      -8.5     23.182     25.299
REMARK  1 active torsions:
REMARK  status: ('A' for Active; 'I' for Inactive)
REMARK    1  A    between atoms: C12_14  and  C5_7 
ROOT
HETATM    1  S1  UNK     1      18.829   3.008  31.630  1.00  0.00    -0.088 SA
HETATM    2  O1  UNK     1      17.751   1.304  35.554  1.00  0.00    -0.287 OA
HETATM    3  C1  UNK     1      18.919   1.278  32.098  1.00  0.00     0.031 A 
HETATM    4  C2  UNK     1      19.379   0.323  31.124  1.00  0.00    -0.008 A 
HETATM    5  C3  UNK     1      18.554   0.838  33.383  1.00  0.00     0.032 A 
HETATM    6  C4  UNK     1      19.451  -1.048  31.487  1.00  0.00    -0.025 A 
HETATM    7  C5  UNK     1      18.277   3.787  33.053  1.00  0.00     0.019 A 
HETATM    8  C6  UNK     1      18.637  -0.520  33.707  1.00  0.00     0.018 A 
HETATM    9  C7  UNK     1      19.079  -1.449  32.771  1.00  0.00     0.013 A 
HETATM   10  C8  UNK     1      18.072   1.743  34.453  1.00  0.00     0.184 A 
HETATM   11  C9  UNK     1      19.776   0.641  29.795  1.00  0.00     0.013 A 
HETATM   12  C10 UNK     1      17.975   3.194  34.209  1.00  0.00     0.075 A 
HETATM   13  C11 UNK     1      19.894  -2.015  30.568  1.00  0.00     0.012 A 
HETATM   14  C13 UNK     1      20.215  -0.331  28.891  1.00  0.00     0.001 A 
HETATM   15  C14 UNK     1      20.274  -1.659  29.278  1.00  0.00     0.001 A 
ENDROOT
BRANCH   7  16
HETATM   16  C12 UNK     1      18.134   5.247  32.946  1.00  0.00    -0.019 A 
HETATM   17  C16 UNK     1      17.014   5.795  32.320  1.00  0.00     0.013 A 
HETATM   18  C18 UNK     1      16.878   7.180  32.218  1.00  0.00     0.001 A 
HETATM   19  C19 UNK     1      17.862   8.018  32.742  1.00  0.00     0.000 A 
HETATM   20  C17 UNK     1      18.983   7.471  33.368  1.00  0.00     0.001 A 
HETATM   21  C15 UNK     1      19.119   6.087  33.470  1.00  0.00     0.013 A 
ENDBRANCH   7  16
TORSDOF 1
ENDMDL
MODEL 3
REMARK VINA RESULT:      -8.4     35.218     36.442
REMARK  1 active torsions:
REMARK  status: ('A' for Active; 'I' for Inactive)
REMARK    1  A    between atoms: C12_14  and  C5_7 
ROOT
HETATM    1  S1  UNK     1      32.281  -6.930  36.284  1.00  0.00    -0.088 SA
HETATM    2  O1  UNK     1      32.024  -2.531  36.508  1.00  0.00    -0.287 OA
HETATM    3  C1  UNK     1      31.045  -5.981  37.176  1.00  0.00     0.031 A 
HETATM    4  C2  UNK     1      30.020  -6.689  37.896  1.00  0.00    -0.008 A 
HETATM    5  C3  UNK     1      31.056  -4.575  37.187  1.00  0.00     0.032 A 
HETATM    6  C4  UNK     1      29.038  -5.945  38.602  1.00  0.00    -0.025 A 
HETATM    7  C5  UNK     1      33.305  -5.732  35.609  1.00  0.00     0.019 A 
HETATM    8  C6  UNK     1      30.073  -3.873  37.892  1.00  0.00     0.018 A 
HETATM    9  C7  UNK     1      29.078  -4.550  38.589  1.00  0.00     0.013 A 
HETATM   10  C8  UNK     1      32.070  -3.757  36.480  1.00  0.00     0.184 A 
HETATM   11  C9  UNK     1      29.900  -8.105  37.962  1.00  0.00     0.013 A 
HETATM   12  C10 UNK     1      33.158  -4.412  35.730  1.00  0.00     0.075 A 
HETATM   13  C11 UNK     1      28.018  -6.595  39.318  1.00  0.00     0.012 A 
HETATM   14  C13 UNK     1      28.882  -8.739  38.680  1.00  0.00     0.001 A 
HETATM   15  C14 UNK     1      27.940  -7.983  39.357  1.00  0.00     0.001 A 
ENDROOT
BRANCH   7  16
HETATM   16  C12 UNK     1      34.438  -6.253  34.830  1.00  0.00    -0.019 A 
HETATM   17  C16 UNK     1      34.298  -6.480  33.460  1.00  0.00     0.013 A 
HETATM   18  C18 UNK     1      35.373  -6.974  32.720  1.00  0.00     0.001 A 
HETATM   19  C19 UNK     1      36.589  -7.240  33.349  1.00  0.00     0.000 A 
HETATM   20  C17 UNK     1      36.730  -7.014  34.719  1.00  0.00     0.001 A 
HETATM   21  C15 UNK     1      35.656  -6.520  35.458  1.00  0.00     0.013 A 
ENDBRANCH   7  16
TORSDOF 1
ENDMDL
MODEL 4
REMARK VINA RESULT:      -8.2     24.324     26.165
REMARK  1 active torsions:
REMARK  status: ('A' for Active; 'I' for Inactive)
REMARK    1  A    between atoms: C12_14  and  C5_7 
ROOT
HETATM    1  S1  UNK     1      18.148   2.518  34.520  1.00  0.00    -0.088 SA
HETATM    2  O1  UNK     1      18.975   0.217  30.847  1.00  0.00    -0.287 OA
HETATM    3  C1  UNK     1      18.345   3.189  32.867  1.00  0.00     0.031 A 
HETATM    4  C2  UNK     1      18.223   4.611  32.681  1.00  0.00    -0.008 A 
HETATM    5  C3  UNK     1      18.613   2.364  31.760  1.00  0.00     0.032 A 
HETATM    6  C4  UNK     1      18.376   5.148  31.375  1.00  0.00    -0.025 A 
HETATM    7  C5  UNK     1      18.393   0.835  34.308  1.00  0.00     0.019 A 
HETATM    8  C6  UNK     1      18.756   2.927  30.487  1.00  0.00     0.018 A 
HETATM    9  C7  UNK     1      18.639   4.300  30.299  1.00  0.00     0.013 A 
HETATM   10  C8  UNK     1      18.758   0.892  31.849  1.00  0.00     0.184 A 
HETATM   11  C9  UNK     1      17.956   5.549  33.716  1.00  0.00     0.013 A 
HETATM   12  C10 UNK     1      18.645   0.215  33.154  1.00  0.00     0.075 A 
HETATM   13  C11 UNK     1      18.265   6.531  31.147  1.00  0.00     0.012 A 
HETATM   14  C13 UNK     1      17.849   6.922  33.476  1.00  0.00     0.001 A 
HETATM   15  C14 UNK     1      18.003   7.412  32.190  1.00  0.00     0.001 A 
ENDROOT
BRANCH   7  16
HETATM   16  C12 UNK     1      18.306   0.036  35.540  1.00  0.00    -0.019 A 
HETATM   17  C16 UNK     1      17.794   0.605  36.707  1.00  0.00     0.013 A 
HETATM   18  C18 UNK     1      17.711  -0.152  37.876  1.00  0.00     0.001 A 
HETATM   19  C19 UNK     1      18.139  -1.479  37.879  1.00  0.00     0.000 A 
HETATM   20  C17 UNK     1      18.651  -2.050  36.713  1.00  0.00     0.001 A 
HETATM   21  C15 UNK     1      18.734  -1.293  35.544  1.00  0.00     0.013 A 
ENDBRANCH   7  16
TORSDOF 1
ENDMDL
MODEL 5
REMARK VINA RESULT:      -8.0     24.618     26.654
REMARK  1 active torsions:
REMARK  status: ('A' for Active; 'I' for Inactive)
REMARK    1  A    between atoms: C12_14  and  C5_7 
ROOT
HETATM    1  S1  UNK     1      18.101   3.347  34.587  1.00  0.00    -0.088 SA
HETATM    2  O1  UNK     1      18.746   1.375  30.693  1.00  0.00    -0.287 OA
HETATM    3  C1  UNK     1      18.256   1.582  34.303  1.00  0.00     0.031 A 
HETATM    4  C2  UNK     1      18.173   0.691  35.430  1.00  0.00    -0.008 A 
HETATM    5  C3  UNK     1      18.457   1.054  33.014  1.00  0.00     0.032 A 
HETATM    6  C4  UNK     1      18.297  -0.706  35.213  1.00  0.00    -0.025 A 
HETATM    7  C5  UNK     1      18.225   4.025  33.018  1.00  0.00     0.019 A 
HETATM    8  C6  UNK     1      18.576  -0.329  32.836  1.00  0.00     0.018 A 
HETATM    9  C7  UNK     1      18.497  -1.195  33.921  1.00  0.00     0.013 A 
HETATM   10  C8  UNK     1      18.554   1.886  31.793  1.00  0.00     0.184 A 
HETATM   11  C9  UNK     1      17.973   1.100  36.778  1.00  0.00     0.013 A 
HETATM   12  C10 UNK     1      18.417   3.352  31.882  1.00  0.00     0.075 A 
HETATM   13  C11 UNK     1      18.221  -1.612  36.285  1.00  0.00     0.012 A 
HETATM   14  C13 UNK     1      17.898   0.188  37.835  1.00  0.00     0.001 A 
HETATM   15  C14 UNK     1      18.023  -1.169  37.588  1.00  0.00     0.001 A 
ENDROOT
BRANCH   7  16
HETATM   16  C12 UNK     1      18.106   5.490  32.964  1.00  0.00    -0.019 A 
HETATM   17  C16 UNK     1      17.039   6.079  32.283  1.00  0.00     0.013 A 
HETATM   18  C18 UNK     1      16.925   7.469  32.233  1.00  0.00     0.001 A 
HETATM   19  C19 UNK     1      17.877   8.271  32.863  1.00  0.00     0.000 A 
HETATM   20  C17 UNK     1      18.943   7.682  33.544  1.00  0.00     0.001 A 
HETATM   21  C15 UNK     1      19.058   6.294  33.595  1.00  0.00     0.013 A 
ENDBRANCH   7  16
TORSDOF 1
ENDMDL
MODEL 6
REMARK VINA RESULT:      -7.8      5.030      9.350
REMARK  1 active torsions:
REMARK  status: ('A' for Active; 'I' for Inactive)
REMARK    1  A    between atoms: C12_14  and  C5_7 
ROOT
HETATM    1  S1  UNK     1       7.686   5.315   9.696  1.00  0.00    -0.088 SA
HETATM    2  O1  UNK     1       7.010   9.363  11.317  1.00  0.00    -0.287 OA
HETATM    3  C1  UNK     1       6.631   5.742  11.085  1.00  0.00     0.031 A 
HETATM    4  C2  UNK     1       5.917   4.689  11.757  1.00  0.00    -0.008 A 
HETATM    5  C3  UNK     1       6.488   7.069  11.526  1.00  0.00     0.032 A 
HETATM    6  C4  UNK     1       5.079   5.019  12.855  1.00  0.00    -0.025 A 
HETATM    7  C5  UNK     1       8.356   6.818   9.217  1.00  0.00     0.019 A 
HETATM    8  C6  UNK     1       5.654   7.360  12.611  1.00  0.00     0.018 A 
HETATM    9  C7  UNK     1       4.960   6.348  13.265  1.00  0.00     0.013 A 
HETATM   10  C8  UNK     1       7.183   8.220  10.902  1.00  0.00     0.184 A 
HETATM   11  C9  UNK     1       5.977   3.311  11.408  1.00  0.00     0.013 A 
HETATM   12  C10 UNK     1       8.100   8.006   9.768  1.00  0.00     0.075 A 
HETATM   13  C11 UNK     1       4.363   4.023  13.541  1.00  0.00     0.012 A 
HETATM   14  C13 UNK     1       5.260   2.330  12.099  1.00  0.00     0.001 A 
HETATM   15  C14 UNK     1       4.452   2.687  13.166  1.00  0.00     0.001 A 
ENDROOT
BRANCH   7  16
HETATM   16  C12 UNK     1       9.294   6.746   8.087  1.00  0.00    -0.019 A 
HETATM   17  C16 UNK     1      10.597   7.227   8.229  1.00  0.00     0.013 A 
HETATM   18  C18 UNK     1      11.488   7.158   7.156  1.00  0.00     0.001 A 
HETATM   19  C19 UNK     1      11.077   6.609   5.942  1.00  0.00     0.000 A 
HETATM   20  C17 UNK     1       9.775   6.128   5.799  1.00  0.00     0.001 A 
HETATM   21  C15 UNK     1       8.884   6.196   6.870  1.00  0.00     0.013 A 
ENDBRANCH   7  16
TORSDOF 1
ENDMDL
MODEL 7
REMARK VINA RESULT:      -7.7     23.177     25.338
REMARK  1 active torsions:
REMARK  status: ('A' for Active; 'I' for Inactive)
REMARK    1  A    between atoms: C12_14  and  C5_7 
ROOT
HETATM    1  S1  UNK     1      18.171   4.484  33.576  1.00  0.00    -0.088 SA
HETATM    2  O1  UNK     1      18.972   4.288  29.242  1.00  0.00    -0.287 OA
HETATM    3  C1  UNK     1      18.450   2.995  32.613  1.00  0.00     0.031 A 
HETATM    4  C2  UNK     1      18.423   1.723  33.286  1.00  0.00    -0.008 A 
HETATM    5  C3  UNK     1      18.694   3.043  31.229  1.00  0.00     0.032 A 
HETATM    6  C4  UNK     1      18.646   0.542  32.531  1.00  0.00    -0.025 A 
HETATM    7  C5  UNK     1      18.255   5.742  32.415  1.00  0.00     0.019 A 
HETATM    8  C6  UNK     1      18.910   1.859  30.515  1.00  0.00     0.018 A 
HETATM    9  C7  UNK     1      18.887   0.627  31.158  1.00  0.00     0.013 A 
HETATM   10  C8  UNK     1      18.739   4.301  30.447  1.00  0.00     0.184 A 
HETATM   11  C9  UNK     1      18.188   1.542  34.677  1.00  0.00     0.013 A 
HETATM   12  C10 UNK     1      18.499   5.596  31.112  1.00  0.00     0.075 A 
HETATM   13  C11 UNK     1      18.629  -0.722  33.147  1.00  0.00     0.012 A 
HETATM   14  C13 UNK     1      18.173   0.280  35.277  1.00  0.00     0.001 A 
HETATM   15  C14 UNK     1      18.394  -0.853  34.511  1.00  0.00     0.001 A 
ENDROOT
BRANCH   7  16
HETATM   16  C12 UNK     1      18.033   7.094  32.949  1.00  0.00    -0.019 A 
HETATM   17  C16 UNK     1      16.800   7.722  32.771  1.00  0.00     0.013 A 
HETATM   18  C18 UNK     1      16.589   9.005  33.278  1.00  0.00     0.001 A 
HETATM   19  C19 UNK     1      17.611   9.660  33.964  1.00  0.00     0.000 A 
HETATM   20  C17 UNK     1      18.845   9.034  34.143  1.00  0.00     0.001 A 
HETATM   21  C15 UNK     1      19.056   7.752  33.636  1.00  0.00     0.013 A 
ENDBRANCH   7  16
TORSDOF 1
ENDMDL
MODEL 8
REMARK VINA RESULT:      -7.7     33.035     35.178
REMARK  1 active torsions:
REMARK  status: ('A' for Active; 'I' for Inactive)
REMARK    1  A    between atoms: C12_14  and  C5_7 
ROOT
HETATM    1  S1  UNK     1      24.773  -8.831  37.513  1.00  0.00    -0.088 SA
HETATM    2  O1  UNK     1      24.230 -12.524  35.162  1.00  0.00    -0.287 OA
HETATM    3  C1  UNK     1      23.232  -9.428  36.814  1.00  0.00     0.031 A 
HETATM    4  C2  UNK     1      22.034  -8.658  37.024  1.00  0.00    -0.008 A 
HETATM    5  C3  UNK     1      23.168 -10.622  36.073  1.00  0.00     0.032 A 
HETATM    6  C4  UNK     1      20.811  -9.126  36.475  1.00  0.00    -0.025 A 
HETATM    7  C5  UNK     1      25.925  -9.998  37.016  1.00  0.00     0.019 A 
HETATM    8  C6  UNK     1      21.946 -11.055  35.547  1.00  0.00     0.018 A 
HETATM    9  C7  UNK     1      20.785 -10.316  35.746  1.00  0.00     0.013 A 
HETATM   10  C8  UNK     1      24.344 -11.482  35.801  1.00  0.00     0.184 A 
HETATM   11  C9  UNK     1      21.968  -7.438  37.752  1.00  0.00     0.013 A 
HETATM   12  C10 UNK     1      25.677 -11.093  36.296  1.00  0.00     0.075 A 
HETATM   13  C11 UNK     1      19.618  -8.406  36.655  1.00  0.00     0.012 A 
HETATM   14  C13 UNK     1      20.774  -6.731  37.923  1.00  0.00     0.001 A 
HETATM   15  C14 UNK     1      19.599  -7.216  37.374  1.00  0.00     0.001 A 
ENDROOT
BRANCH   7  16
HETATM   16  C12 UNK     1      27.306  -9.729  37.447  1.00  0.00    -0.019 A 
HETATM   17  C16 UNK     1      27.685  -9.970  38.768  1.00  0.00     0.013 A 
HETATM   18  C18 UNK     1      28.994  -9.715  39.177  1.00  0.00     0.001 A 
HETATM   19  C19 UNK     1      29.926  -9.219  38.266  1.00  0.00     0.000 A 
HETATM   20  C17 UNK     1      29.548  -8.978  36.944  1.00  0.00     0.001 A 
HETATM   21  C15 UNK     1      28.240  -9.232  36.535  1.00  0.00     0.013 A 
ENDBRANCH   7  16
TORSDOF 1
ENDMDL
MODEL 9
REMARK VINA RESULT:      -7.7      2.168      7.128
REMARK  1 active torsions:
REMARK  status: ('A' for Active; 'I' for Inactive)
REMARK    1  A    between atoms: C12_14  and  C5_7 
ROOT
HETATM    1  S1  UNK     1      11.919   8.504   9.375  1.00  0.00    -0.088 SA
HETATM    2  O1  UNK     1      12.129   6.014   5.738  1.00  0.00    -0.287 OA
HETATM    3  C1  UNK     1      10.538   7.706   8.552  1.00  0.00     0.031 A 
HETATM    4  C2  UNK     1       9.219   7.866   9.106  1.00  0.00    -0.008 A 
HETATM    5  C3  UNK     1      10.714   6.933   7.390  1.00  0.00     0.032 A 
HETATM    6  C4  UNK     1       8.122   7.236   8.461  1.00  0.00    -0.025 A 
HETATM    7  C5  UNK     1      13.267   8.093   8.399  1.00  0.00     0.019 A 
HETATM    8  C6  UNK     1       9.611   6.325   6.781  1.00  0.00     0.018 A 
HETATM    9  C7  UNK     1       8.334   6.475   7.310  1.00  0.00     0.013 A 
HETATM   10  C8  UNK     1      12.029   6.711   6.744  1.00  0.00     0.184 A 
HETATM   11  C9  UNK     1       8.911   8.620  10.272  1.00  0.00     0.013 A 
HETATM   12  C10 UNK     1      13.244   7.333   7.303  1.00  0.00     0.075 A 
HETATM   13  C11 UNK     1       6.817   7.366   8.967  1.00  0.00     0.012 A 
HETATM   14  C13 UNK     1       7.608   8.741  10.764  1.00  0.00     0.001 A 
HETATM   15  C14 UNK     1       6.561   8.113  10.111  1.00  0.00     0.001 A 
ENDROOT
BRANCH   7  16
HETATM   16  C12 UNK     1      14.551   8.652   8.849  1.00  0.00    -0.019 A 
HETATM   17  C16 UNK     1      14.951   9.918   8.419  1.00  0.00     0.013 A 
HETATM   18  C18 UNK     1      16.169  10.449   8.846  1.00  0.00     0.001 A 
HETATM   19  C19 UNK     1      16.987   9.714   9.703  1.00  0.00     0.000 A 
HETATM   20  C17 UNK     1      16.588   8.448  10.134  1.00  0.00     0.001 A 
HETATM   21  C15 UNK     1      15.371   7.918   9.708  1.00  0.00     0.013 A 
ENDBRANCH   7  16
TORSDOF 1
ENDMDL
MODEL 10
REMARK VINA RESULT:      -7.7     34.933     36.216
REMARK  1 active torsions:
REMARK  status: ('A' for Active; 'I' for Inactive)
REMARK    1  A    between atoms: C12_14  and  C5_7 
ROOT
HETATM    1  S1  UNK     1      30.433  -6.966  36.466  1.00  0.00    -0.088 SA
HETATM    2  O1  UNK     1      29.175  -4.065  39.544  1.00  0.00    -0.287 OA
HETATM    3  C1  UNK     1      28.888  -6.988  37.379  1.00  0.00     0.031 A 
HETATM    4  C2  UNK     1      27.940  -8.036  37.105  1.00  0.00    -0.008 A 
HETATM    5  C3  UNK     1      28.586  -6.014  38.347  1.00  0.00     0.032 A 
HETATM    6  C4  UNK     1      26.715  -8.058  37.822  1.00  0.00    -0.025 A 
HETATM    7  C5  UNK     1      31.263  -5.608  37.104  1.00  0.00     0.019 A 
HETATM    8  C6  UNK     1      27.368  -6.065  39.035  1.00  0.00     0.018 A 
HETATM    9  C7  UNK     1      26.447  -7.074  38.775  1.00  0.00     0.013 A 
HETATM   10  C8  UNK     1      29.496  -4.899  38.701  1.00  0.00     0.184 A 
HETATM   11  C9  UNK     1      28.128  -9.076  36.153  1.00  0.00     0.013 A 
HETATM   12  C10 UNK     1      30.810  -4.778  38.044  1.00  0.00     0.075 A 
HETATM   13  C11 UNK     1      25.760  -9.063  37.587  1.00  0.00     0.012 A 
HETATM   14  C13 UNK     1      27.171 -10.070  35.930  1.00  0.00     0.001 A 
HETATM   15  C14 UNK     1      25.986 -10.062  36.647  1.00  0.00     0.001 A 
ENDROOT
BRANCH   7  16
HETATM   16  C12 UNK     1      32.597  -5.372  36.530  1.00  0.00    -0.019 A 
HETATM   17  C16 UNK     1      33.719  -5.979  37.096  1.00  0.00     0.013 A 
HETATM   18  C18 UNK     1      34.984  -5.755  36.552  1.00  0.00     0.001 A 
HETATM   19  C19 UNK     1      35.128  -4.925  35.441  1.00  0.00     0.000 A 
HETATM   20  C17 UNK     1      34.007  -4.317  34.874  1.00  0.00     0.001 A 
HETATM   21  C15 UNK     1      32.743  -4.541  35.417  1.00  0.00     0.013 A 
ENDBRANCH   7  16
TORSDOF 1
ENDMDL
