MODEL 1
REMARK VINA RESULT:      -8.2      0.000      0.000
REMARK  4 active torsions:
REMARK  status: ('A' for Active; 'I' for Inactive)
REMARK    1  A    between atoms: C8_13  and  O2_2 
REMARK    2  A    between atoms: C4_9  and  O3_3 
REMARK    3  A    between atoms: C9_14  and  O4_4 
REMARK    4  A    between atoms: C10_15  and  C3_8 
ROOT
HETATM    1  O1  UNK     1      18.824   0.241  33.290  1.00  0.00    -0.309 OA
HETATM    2  O5  UNK     1      20.722  -3.308  32.658  1.00  0.00    -0.287 OA
HETATM    3  C1  UNK     1      19.901  -1.290  31.742  1.00  0.00     0.084 A 
HETATM    4  C2  UNK     1      19.247  -0.092  32.028  1.00  0.00     0.096 A 
HETATM    5  C3  UNK     1      19.049  -0.658  34.321  1.00  0.00     0.090 A 
HETATM    6  C4  UNK     1      20.312  -1.576  30.438  1.00  0.00     0.118 A 
HETATM    7  C5  UNK     1      20.151  -2.241  32.836  1.00  0.00     0.190 A 
HETATM    8  C6  UNK     1      18.999   0.827  31.009  1.00  0.00     0.078 A 
HETATM    9  C7  UNK     1      19.673  -1.837  34.174  1.00  0.00     0.094 A 
HETATM   10  C8  UNK     1      19.407   0.545  29.706  1.00  0.00     0.106 A 
HETATM   11  C9  UNK     1      20.063  -0.654  29.421  1.00  0.00     0.133 A 
ENDROOT
BRANCH   5  12
HETATM   12  C10 UNK     1      18.558  -0.198  35.636  1.00  0.00    -0.002 A 
HETATM   13  C11 UNK     1      18.283  -1.124  36.646  1.00  0.00     0.014 A 
HETATM   14  C13 UNK     1      17.820  -0.690  37.888  1.00  0.00     0.001 A 
HETATM   15  C15 UNK     1      17.629   0.672  38.124  1.00  0.00     0.000 A 
HETATM   16  C14 UNK     1      17.903   1.599  37.119  1.00  0.00     0.001 A 
HETATM   17  C12 UNK     1      18.365   1.165  35.877  1.00  0.00     0.014 A 
ENDBRANCH   5  12
BRANCH   6  18
HETATM   18  O3  UNK     1      20.954  -2.737  30.120  1.00  0.00    -0.357 OA
HETATM   19  H7  UNK     1      20.450  -3.504  30.432  1.00  0.00     0.217 HD
ENDBRANCH   6  18
BRANCH  10  20
HETATM   20  O2  UNK     1      19.160   1.449  28.717  1.00  0.00    -0.353 OA
HETATM   21  C16 UNK     1      17.846   2.000  28.657  1.00  0.00     0.210 C 
ENDBRANCH  10  20
BRANCH  11  22
HETATM   22  O4  UNK     1      20.459  -0.922  28.143  1.00  0.00    -0.356 OA
HETATM   23  H9  UNK     1      21.171  -1.584  28.175  1.00  0.00     0.218 HD
ENDBRANCH  11  22
TORSDOF 4
ENDMDL
MODEL 2
REMARK VINA RESULT:      -8.0      4.141      6.504
REMARK  4 active torsions:
REMARK  status: ('A' for Active; 'I' for Inactive)
REMARK    1  A    between atoms: C8_13  and  O2_2 
REMARK    2  A    between atoms: C4_9  and  O3_3 
REMARK    3  A    between atoms: C9_14  and  O4_4 
REMARK    4  A    between atoms: C10_15  and  C3_8 
ROOT
HETATM    1  O1  UNK     1      18.284   3.816  34.354  1.00  0.00    -0.309 OA
HETATM    2  O5  UNK     1      18.315   1.793  30.818  1.00  0.00    -0.287 OA
HETATM    3  C1  UNK     1      18.334   1.691  33.179  1.00  0.00     0.084 A 
HETATM    4  C2  UNK     1      18.320   2.444  34.352  1.00  0.00     0.096 A 
HETATM    5  C3  UNK     1      18.269   4.478  33.136  1.00  0.00     0.090 A 
HETATM    6  C4  UNK     1      18.370   0.296  33.236  1.00  0.00     0.118 A 
HETATM    7  C5  UNK     1      18.308   2.391  31.886  1.00  0.00     0.190 A 
HETATM    8  C6  UNK     1      18.344   1.805  35.591  1.00  0.00     0.078 A 
HETATM    9  C7  UNK     1      18.272   3.865  31.942  1.00  0.00     0.094 A 
HETATM   10  C8  UNK     1      18.380   0.413  35.653  1.00  0.00     0.106 A 
HETATM   11  C9  UNK     1      18.393  -0.341  34.478  1.00  0.00     0.133 A 
ENDROOT
BRANCH   5  12
HETATM   12  C10 UNK     1      18.225   5.950  33.254  1.00  0.00    -0.002 A 
HETATM   13  C11 UNK     1      17.118   6.660  32.782  1.00  0.00     0.014 A 
HETATM   14  C13 UNK     1      17.075   8.049  32.894  1.00  0.00     0.001 A 
HETATM   15  C15 UNK     1      18.140   8.734  33.480  1.00  0.00     0.000 A 
HETATM   16  C14 UNK     1      19.247   8.030  33.953  1.00  0.00     0.001 A 
HETATM   17  C12 UNK     1      19.289   6.640  33.840  1.00  0.00     0.014 A 
ENDBRANCH   5  12
BRANCH   6  18
HETATM   18  O3  UNK     1      18.385  -0.474  32.111  1.00  0.00    -0.357 OA
HETATM   19  H7  UNK     1      19.227  -0.379  31.641  1.00  0.00     0.217 HD
ENDBRANCH   6  18
BRANCH  10  20
HETATM   20  O2  UNK     1      18.402  -0.202  36.869  1.00  0.00    -0.353 OA
HETATM   21  C16 UNK     1      17.646   0.404  37.915  1.00  0.00     0.210 C 
ENDBRANCH  10  20
BRANCH  11  22
HETATM   22  O4  UNK     1      18.428  -1.703  34.547  1.00  0.00    -0.356 OA
HETATM   23  H9  UNK     1      18.783  -2.044  33.709  1.00  0.00     0.218 HD
ENDBRANCH  11  22
TORSDOF 4
ENDMDL
MODEL 3
REMARK VINA RESULT:      -8.0     24.484     26.691
REMARK  4 active torsions:
REMARK  status: ('A' for Active; 'I' for Inactive)
REMARK    1  A    between atoms: C8_13  and  O2_2 
REMARK    2  A    between atoms: C4_9  and  O3_3 
REMARK    3  A    between atoms: C9_14  and  O4_4 
REMARK    4  A    between atoms: C10_15  and  C3_8 
ROOT
HETATM    1  O1  UNK     1       9.634   5.013   9.617  1.00  0.00    -0.309 OA
HETATM    2  O5  UNK     1       8.582   6.721   6.071  1.00  0.00    -0.287 OA
HETATM    3  C1  UNK     1      10.317   6.013   7.511  1.00  0.00     0.084 A 
HETATM    4  C2  UNK     1      10.607   5.420   8.739  1.00  0.00     0.096 A 
HETATM    5  C3  UNK     1       8.306   5.207   9.268  1.00  0.00     0.090 A 
HETATM    6  C4  UNK     1      11.348   6.407   6.656  1.00  0.00     0.118 A 
HETATM    7  C5  UNK     1       8.908   6.211   7.134  1.00  0.00     0.190 A 
HETATM    8  C6  UNK     1      11.933   5.220   9.120  1.00  0.00     0.078 A 
HETATM    9  C7  UNK     1       7.901   5.759   8.113  1.00  0.00     0.094 A 
HETATM   10  C8  UNK     1      12.966   5.613   8.269  1.00  0.00     0.106 A 
HETATM   11  C9  UNK     1      12.674   6.205   7.039  1.00  0.00     0.133 A 
ENDROOT
BRANCH   5  12
HETATM   12  C10 UNK     1       7.344   4.729  10.281  1.00  0.00    -0.002 A 
HETATM   13  C11 UNK     1       6.724   3.485  10.129  1.00  0.00     0.014 A 
HETATM   14  C13 UNK     1       5.816   3.032  11.086  1.00  0.00     0.001 A 
HETATM   15  C15 UNK     1       5.525   3.821  12.199  1.00  0.00     0.000 A 
HETATM   16  C14 UNK     1       6.141   5.062  12.355  1.00  0.00     0.001 A 
HETATM   17  C12 UNK     1       7.049   5.515  11.397  1.00  0.00     0.014 A 
ENDBRANCH   5  12
BRANCH   6  18
HETATM   18  O3  UNK     1      11.103   6.990   5.448  1.00  0.00    -0.357 OA
HETATM   19  H7  UNK     1      10.350   6.565   5.009  1.00  0.00     0.217 HD
ENDBRANCH   6  18
BRANCH  10  20
HETATM   20  O2  UNK     1      14.259   5.412   8.651  1.00  0.00    -0.353 OA
HETATM   21  C16 UNK     1      14.512   5.304  10.050  1.00  0.00     0.210 C 
ENDBRANCH  10  20
BRANCH  11  22
HETATM   22  O4  UNK     1      13.690   6.586   6.213  1.00  0.00    -0.356 OA
HETATM   23  H9  UNK     1      14.348   5.870   6.185  1.00  0.00     0.218 HD
ENDBRANCH  11  22
TORSDOF 4
ENDMDL
MODEL 4
REMARK VINA RESULT:      -8.0      2.499      7.142
REMARK  4 active torsions:
REMARK  status: ('A' for Active; 'I' for Inactive)
REMARK    1  A    between atoms: C8_13  and  O2_2 
REMARK    2  A    between atoms: C4_9  and  O3_3 
REMARK    3  A    between atoms: C9_14  and  O4_4 
REMARK    4  A    between atoms: C10_15  and  C3_8 
ROOT
HETATM    1  O1  UNK     1      19.772  -1.597  33.472  1.00  0.00    -0.309 OA
HETATM    2  O5  UNK     1      17.167   1.072  35.113  1.00  0.00    -0.287 OA
HETATM    3  C1  UNK     1      18.597  -0.782  35.435  1.00  0.00     0.084 A 
HETATM    4  C2  UNK     1      19.479  -1.662  34.811  1.00  0.00     0.096 A 
HETATM    5  C3  UNK     1      19.155  -0.618  32.708  1.00  0.00     0.090 A 
HETATM    6  C4  UNK     1      18.337  -0.894  36.803  1.00  0.00     0.118 A 
HETATM    7  C5  UNK     1      17.949   0.264  34.629  1.00  0.00     0.190 A 
HETATM    8  C6  UNK     1      20.107  -2.663  35.552  1.00  0.00     0.078 A 
HETATM    9  C7  UNK     1      18.294   0.290  33.194  1.00  0.00     0.094 A 
HETATM   10  C8  UNK     1      19.851  -2.778  36.918  1.00  0.00     0.106 A 
HETATM   11  C9  UNK     1      18.968  -1.896  37.543  1.00  0.00     0.133 A 
ENDROOT
BRANCH   5  12
HETATM   12  C10 UNK     1      19.544  -0.635  31.283  1.00  0.00    -0.002 A 
HETATM   13  C11 UNK     1      20.103  -1.786  30.722  1.00  0.00     0.014 A 
HETATM   14  C13 UNK     1      20.470  -1.804  29.377  1.00  0.00     0.001 A 
HETATM   15  C15 UNK     1      20.279  -0.670  28.587  1.00  0.00     0.000 A 
HETATM   16  C14 UNK     1      19.721   0.481  29.143  1.00  0.00     0.001 A 
HETATM   17  C12 UNK     1      19.355   0.499  30.489  1.00  0.00     0.014 A 
ENDBRANCH   5  12
BRANCH   6  18
HETATM   18  O3  UNK     1      17.481  -0.052  37.448  1.00  0.00    -0.357 OA
HETATM   19  H7  UNK     1      17.847   0.220  38.303  1.00  0.00     0.217 HD
ENDBRANCH   6  18
BRANCH  10  20
HETATM   20  O2  UNK     1      20.469  -3.759  37.634  1.00  0.00    -0.353 OA
HETATM   21  C16 UNK     1      20.277  -5.102  37.193  1.00  0.00     0.210 C 
ENDBRANCH  10  20
BRANCH  11  22
HETATM   22  O4  UNK     1      18.723  -2.016  38.879  1.00  0.00    -0.356 OA
HETATM   23  H9  UNK     1      19.525  -2.358  39.309  1.00  0.00     0.218 HD
ENDBRANCH  11  22
TORSDOF 4
ENDMDL
MODEL 5
REMARK VINA RESULT:      -7.9      3.055      6.350
REMARK  4 active torsions:
REMARK  status: ('A' for Active; 'I' for Inactive)
REMARK    1  A    between atoms: C8_13  and  O2_2 
REMARK    2  A    between atoms: C4_9  and  O3_3 
REMARK    3  A    between atoms: C9_14  and  O4_4 
REMARK    4  A    between atoms: C10_15  and  C3_8 
ROOT
HETATM    1  O1  UNK     1      17.992   2.799  33.468  1.00  0.00    -0.309 OA
HETATM    2  O5  UNK     1      19.366  -0.313  31.225  1.00  0.00    -0.287 OA
HETATM    3  C1  UNK     1      18.522   0.434  33.303  1.00  0.00     0.084 A 
HETATM    4  C2  UNK     1      18.061   1.541  34.013  1.00  0.00     0.096 A 
HETATM    5  C3  UNK     1      18.407   2.974  32.157  1.00  0.00     0.090 A 
HETATM    6  C4  UNK     1      18.570  -0.824  33.908  1.00  0.00     0.118 A 
HETATM    7  C5  UNK     1      18.954   0.615  31.908  1.00  0.00     0.190 A 
HETATM    8  C6  UNK     1      17.645   1.397  35.336  1.00  0.00     0.078 A 
HETATM    9  C7  UNK     1      18.863   1.987  31.369  1.00  0.00     0.094 A 
HETATM   10  C8  UNK     1      17.691   0.143  35.945  1.00  0.00     0.106 A 
HETATM   11  C9  UNK     1      18.152  -0.965  35.232  1.00  0.00     0.133 A 
ENDROOT
BRANCH   5  12
HETATM   12  C10 UNK     1      18.286   4.363  31.670  1.00  0.00    -0.002 A 
HETATM   13  C11 UNK     1      18.971   4.767  30.520  1.00  0.00     0.014 A 
HETATM   14  C13 UNK     1      18.856   6.078  30.059  1.00  0.00     0.001 A 
HETATM   15  C15 UNK     1      18.056   6.991  30.747  1.00  0.00     0.000 A 
HETATM   16  C14 UNK     1      17.370   6.592  31.894  1.00  0.00     0.001 A 
HETATM   17  C12 UNK     1      17.486   5.281  32.355  1.00  0.00     0.014 A 
ENDBRANCH   5  12
BRANCH   6  18
HETATM   18  O3  UNK     1      19.015  -1.929  33.246  1.00  0.00    -0.357 OA
HETATM   19  H7  UNK     1      19.949  -1.833  33.006  1.00  0.00     0.217 HD
ENDBRANCH   6  18
BRANCH  10  20
HETATM   20  O2  UNK     1      17.282   0.012  37.238  1.00  0.00    -0.353 OA
HETATM   21  C16 UNK     1      17.591   1.084  38.126  1.00  0.00     0.210 C 
ENDBRANCH  10  20
BRANCH  11  22
HETATM   22  O4  UNK     1      18.194  -2.188  35.835  1.00  0.00    -0.356 OA
HETATM   23  H9  UNK     1      18.943  -2.687  35.466  1.00  0.00     0.218 HD
ENDBRANCH  11  22
TORSDOF 4
ENDMDL
MODEL 6
REMARK VINA RESULT:      -7.9     13.363     16.469
REMARK  4 active torsions:
REMARK  status: ('A' for Active; 'I' for Inactive)
REMARK    1  A    between atoms: C8_13  and  O2_2 
REMARK    2  A    between atoms: C4_9  and  O3_3 
REMARK    3  A    between atoms: C9_14  and  O4_4 
REMARK    4  A    between atoms: C10_15  and  C3_8 
ROOT
HETATM    1  O1  UNK     1      20.456  -1.796  17.611  1.00  0.00    -0.309 OA
HETATM    2  O5  UNK     1      17.648  -2.939  14.890  1.00  0.00    -0.287 OA
HETATM    3  C1  UNK     1      19.763  -3.338  15.867  1.00  0.00     0.084 A 
HETATM    4  C2  UNK     1      20.680  -2.893  16.818  1.00  0.00     0.096 A 
HETATM    5  C3  UNK     1      19.269  -1.097  17.452  1.00  0.00     0.090 A 
HETATM    6  C4  UNK     1      20.043  -4.462  15.087  1.00  0.00     0.118 A 
HETATM    7  C5  UNK     1      18.499  -2.603  15.703  1.00  0.00     0.190 A 
HETATM    8  C6  UNK     1      21.885  -3.572  16.994  1.00  0.00     0.078 A 
HETATM    9  C7  UNK     1      18.307  -1.429  16.577  1.00  0.00     0.094 A 
HETATM   10  C8  UNK     1      22.169  -4.695  16.218  1.00  0.00     0.106 A 
HETATM   11  C9  UNK     1      21.250  -5.140  15.266  1.00  0.00     0.133 A 
ENDROOT
BRANCH   5  12
HETATM   12  C10 UNK     1      19.130   0.062  18.357  1.00  0.00    -0.002 A 
HETATM   13  C11 UNK     1      19.011   1.352  17.834  1.00  0.00     0.014 A 
HETATM   14  C13 UNK     1      18.878   2.446  18.689  1.00  0.00     0.001 A 
HETATM   15  C15 UNK     1      18.863   2.254  20.070  1.00  0.00     0.000 A 
HETATM   16  C14 UNK     1      18.981   0.968  20.597  1.00  0.00     0.001 A 
HETATM   17  C12 UNK     1      19.115  -0.126  19.742  1.00  0.00     0.014 A 
ENDBRANCH   5  12
BRANCH   6  18
HETATM   18  O3  UNK     1      19.171  -4.926  14.147  1.00  0.00    -0.357 OA
HETATM   19  H7  UNK     1      18.486  -4.267  13.960  1.00  0.00     0.217 HD
ENDBRANCH   6  18
BRANCH  10  20
HETATM   20  O2  UNK     1      23.350  -5.351  16.398  1.00  0.00    -0.353 OA
HETATM   21  C16 UNK     1      24.381  -4.651  17.091  1.00  0.00     0.210 C 
ENDBRANCH  10  20
BRANCH  11  22
HETATM   22  O4  UNK     1      21.535  -6.239  14.512  1.00  0.00    -0.356 OA
HETATM   23  H9  UNK     1      21.381  -6.019  13.577  1.00  0.00     0.218 HD
ENDBRANCH  11  22
TORSDOF 4
ENDMDL
MODEL 7
REMARK VINA RESULT:      -7.8      2.219      6.540
REMARK  4 active torsions:
REMARK  status: ('A' for Active; 'I' for Inactive)
REMARK    1  A    between atoms: C8_13  and  O2_2 
REMARK    2  A    between atoms: C4_9  and  O3_3 
REMARK    3  A    between atoms: C9_14  and  O4_4 
REMARK    4  A    between atoms: C10_15  and  C3_8 
ROOT
HETATM    1  O1  UNK     1      18.984  -0.413  33.577  1.00  0.00    -0.309 OA
HETATM    2  O5  UNK     1      20.502  -3.919  34.993  1.00  0.00    -0.287 OA
HETATM    3  C1  UNK     1      19.354  -1.905  35.457  1.00  0.00     0.084 A 
HETATM    4  C2  UNK     1      18.858  -0.724  34.907  1.00  0.00     0.096 A 
HETATM    5  C3  UNK     1      19.642  -1.309  32.748  1.00  0.00     0.090 A 
HETATM    6  C4  UNK     1      19.196  -2.171  36.819  1.00  0.00     0.118 A 
HETATM    7  C5  UNK     1      20.044  -2.862  34.578  1.00  0.00     0.190 A 
HETATM    8  C6  UNK     1      18.199   0.199  35.718  1.00  0.00     0.078 A 
HETATM    9  C7  UNK     1      20.157  -2.479  33.157  1.00  0.00     0.094 A 
HETATM   10  C8  UNK     1      18.039  -0.063  37.078  1.00  0.00     0.106 A 
HETATM   11  C9  UNK     1      18.536  -1.246  37.628  1.00  0.00     0.133 A 
ENDROOT
BRANCH   5  12
HETATM   12  C10 UNK     1      19.718  -0.877  31.338  1.00  0.00    -0.002 A 
HETATM   13  C11 UNK     1      20.214  -1.746  30.362  1.00  0.00     0.014 A 
HETATM   14  C13 UNK     1      20.284  -1.339  29.030  1.00  0.00     0.001 A 
HETATM   15  C15 UNK     1      19.858  -0.061  28.668  1.00  0.00     0.000 A 
HETATM   16  C14 UNK     1      19.362   0.810  29.638  1.00  0.00     0.001 A 
HETATM   17  C12 UNK     1      19.292   0.403  30.971  1.00  0.00     0.014 A 
ENDBRANCH   5  12
BRANCH   6  18
HETATM   18  O3  UNK     1      19.668  -3.315  37.392  1.00  0.00    -0.357 OA
HETATM   19  H7  UNK     1      20.229  -3.109  38.155  1.00  0.00     0.217 HD
ENDBRANCH   6  18
BRANCH  10  20
HETATM   20  O2  UNK     1      17.394   0.846  37.862  1.00  0.00    -0.353 OA
HETATM   21  C16 UNK     1      16.354   1.608  37.250  1.00  0.00     0.210 C 
ENDBRANCH  10  20
BRANCH  11  22
HETATM   22  O4  UNK     1      18.374  -1.494  38.959  1.00  0.00    -0.356 OA
HETATM   23  H9  UNK     1      17.724  -2.210  39.062  1.00  0.00     0.218 HD
ENDBRANCH  11  22
TORSDOF 4
ENDMDL
MODEL 8
REMARK VINA RESULT:      -7.8      3.712      5.068
REMARK  4 active torsions:
REMARK  status: ('A' for Active; 'I' for Inactive)
REMARK    1  A    between atoms: C8_13  and  O2_2 
REMARK    2  A    between atoms: C4_9  and  O3_3 
REMARK    3  A    between atoms: C9_14  and  O4_4 
REMARK    4  A    between atoms: C10_15  and  C3_8 
ROOT
HETATM    1  O1  UNK     1      18.202   3.314  34.430  1.00  0.00    -0.309 OA
HETATM    2  O5  UNK     1      18.573   1.586  30.760  1.00  0.00    -0.287 OA
HETATM    3  C1  UNK     1      18.453   3.576  32.029  1.00  0.00     0.084 A 
HETATM    4  C2  UNK     1      18.324   4.102  33.314  1.00  0.00     0.096 A 
HETATM    5  C3  UNK     1      18.199   1.937  34.271  1.00  0.00     0.090 A 
HETATM    6  C4  UNK     1      18.574   4.426  30.927  1.00  0.00     0.118 A 
HETATM    7  C5  UNK     1      18.460   2.115  31.857  1.00  0.00     0.190 A 
HETATM    8  C6  UNK     1      18.315   5.483  33.503  1.00  0.00     0.078 A 
HETATM    9  C7  UNK     1      18.323   1.312  33.089  1.00  0.00     0.094 A 
HETATM   10  C8  UNK     1      18.436   6.335  32.406  1.00  0.00     0.106 A 
HETATM   11  C9  UNK     1      18.566   5.808  31.120  1.00  0.00     0.133 A 
ENDROOT
BRANCH   5  12
HETATM   12  C10 UNK     1      18.067   1.187  35.536  1.00  0.00    -0.002 A 
HETATM   13  C11 UNK     1      17.625   1.833  36.693  1.00  0.00     0.014 A 
HETATM   14  C13 UNK     1      17.500   1.126  37.888  1.00  0.00     0.001 A 
HETATM   15  C15 UNK     1      17.816  -0.233  37.930  1.00  0.00     0.000 A 
HETATM   16  C14 UNK     1      18.257  -0.882  36.778  1.00  0.00     0.001 A 
HETATM   17  C12 UNK     1      18.383  -0.174  35.583  1.00  0.00     0.014 A 
ENDBRANCH   5  12
BRANCH   6  18
HETATM   18  O3  UNK     1      18.702   3.949  29.656  1.00  0.00    -0.357 OA
HETATM   19  H7  UNK     1      19.627   3.981  29.369  1.00  0.00     0.217 HD
ENDBRANCH   6  18
BRANCH  10  20
HETATM   20  O2  UNK     1      18.426   7.683  32.603  1.00  0.00    -0.353 OA
HETATM   21  C16 UNK     1      17.175   8.281  32.935  1.00  0.00     0.210 C 
ENDBRANCH  10  20
BRANCH  11  22
HETATM   22  O4  UNK     1      18.684   6.648  30.053  1.00  0.00    -0.356 OA
HETATM   23  H9  UNK     1      19.606   6.624  29.744  1.00  0.00     0.218 HD
ENDBRANCH  11  22
TORSDOF 4
ENDMDL
MODEL 9
REMARK VINA RESULT:      -7.7     24.543     26.419
REMARK  4 active torsions:
REMARK  status: ('A' for Active; 'I' for Inactive)
REMARK    1  A    between atoms: C8_13  and  O2_2 
REMARK    2  A    between atoms: C4_9  and  O3_3 
REMARK    3  A    between atoms: C9_14  and  O4_4 
REMARK    4  A    between atoms: C10_15  and  C3_8 
ROOT
HETATM    1  O1  UNK     1      13.002   7.760   8.321  1.00  0.00    -0.309 OA
HETATM    2  O5  UNK     1      15.342   4.638   9.495  1.00  0.00    -0.287 OA
HETATM    3  C1  UNK     1      15.111   6.976   9.236  1.00  0.00     0.084 A 
HETATM    4  C2  UNK     1      14.259   7.997   8.818  1.00  0.00     0.096 A 
HETATM    5  C3  UNK     1      12.567   6.447   8.225  1.00  0.00     0.090 A 
HETATM    6  C4  UNK     1      16.381   7.276   9.734  1.00  0.00     0.118 A 
HETATM    7  C5  UNK     1      14.648   5.583   9.143  1.00  0.00     0.190 A 
HETATM    8  C6  UNK     1      14.674   9.326   8.895  1.00  0.00     0.078 A 
HETATM    9  C7  UNK     1      13.290   5.381   8.601  1.00  0.00     0.094 A 
HETATM   10  C8  UNK     1      15.941   9.630   9.392  1.00  0.00     0.106 A 
HETATM   11  C9  UNK     1      16.793   8.607   9.811  1.00  0.00     0.133 A 
ENDROOT
BRANCH   5  12
HETATM   12  C10 UNK     1      11.200   6.307   7.683  1.00  0.00    -0.002 A 
HETATM   13  C11 UNK     1      10.110   6.182   8.549  1.00  0.00     0.014 A 
HETATM   14  C13 UNK     1       8.819   6.051   8.039  1.00  0.00     0.001 A 
HETATM   15  C15 UNK     1       8.613   6.044   6.659  1.00  0.00     0.000 A 
HETATM   16  C14 UNK     1       9.697   6.169   5.791  1.00  0.00     0.001 A 
HETATM   17  C12 UNK     1      10.988   6.300   6.302  1.00  0.00     0.014 A 
ENDBRANCH   5  12
BRANCH   6  18
HETATM   18  O3  UNK     1      17.242   6.304  10.152  1.00  0.00    -0.357 OA
HETATM   19  H7  UNK     1      17.174   6.174  11.110  1.00  0.00     0.217 HD
ENDBRANCH   6  18
BRANCH  10  20
HETATM   20  O2  UNK     1      16.336  10.932   9.464  1.00  0.00    -0.353 OA
HETATM   21  C16 UNK     1      16.684  11.571   8.237  1.00  0.00     0.210 C 
ENDBRANCH  10  20
BRANCH  11  22
HETATM   22  O4  UNK     1      18.031   8.912  10.296  1.00  0.00    -0.356 OA
HETATM   23  H9  UNK     1      18.121   8.515  11.179  1.00  0.00     0.218 HD
ENDBRANCH  11  22
TORSDOF 4
ENDMDL
MODEL 10
REMARK VINA RESULT:      -7.7      3.078      4.793
REMARK  4 active torsions:
REMARK  status: ('A' for Active; 'I' for Inactive)
REMARK    1  A    between atoms: C8_13  and  O2_2 
REMARK    2  A    between atoms: C4_9  and  O3_3 
REMARK    3  A    between atoms: C9_14  and  O4_4 
REMARK    4  A    between atoms: C10_15  and  C3_8 
ROOT
HETATM    1  O1  UNK     1      18.030   1.982  33.139  1.00  0.00    -0.309 OA
HETATM    2  O5  UNK     1      18.951   5.833  34.099  1.00  0.00    -0.287 OA
HETATM    3  C1  UNK     1      18.581   4.230  32.403  1.00  0.00     0.084 A 
HETATM    4  C2  UNK     1      18.260   2.898  32.144  1.00  0.00     0.096 A 
HETATM    5  C3  UNK     1      18.130   2.400  34.458  1.00  0.00     0.090 A 
HETATM    6  C4  UNK     1      18.804   5.120  31.349  1.00  0.00     0.118 A 
HETATM    7  C5  UNK     1      18.677   4.678  33.800  1.00  0.00     0.190 A 
HETATM    8  C6  UNK     1      18.162   2.448  30.828  1.00  0.00     0.078 A 
HETATM    9  C7  UNK     1      18.424   3.655  34.833  1.00  0.00     0.094 A 
HETATM   10  C8  UNK     1      18.384   3.333  29.774  1.00  0.00     0.106 A 
HETATM   11  C9  UNK     1      18.704   4.666  30.033  1.00  0.00     0.133 A 
ENDROOT
BRANCH   5  12
HETATM   12  C10 UNK     1      17.859   1.336  35.446  1.00  0.00    -0.002 A 
HETATM   13  C11 UNK     1      17.802   1.641  36.809  1.00  0.00     0.014 A 
HETATM   14  C13 UNK     1      17.545   0.638  37.742  1.00  0.00     0.001 A 
HETATM   15  C15 UNK     1      17.343  -0.676  37.317  1.00  0.00     0.000 A 
HETATM   16  C14 UNK     1      17.398  -0.984  35.958  1.00  0.00     0.001 A 
HETATM   17  C12 UNK     1      17.656   0.020  35.024  1.00  0.00     0.014 A 
ENDBRANCH   5  12
BRANCH   6  18
HETATM   18  O3  UNK     1      19.119   6.429  31.563  1.00  0.00    -0.357 OA
HETATM   19  H7  UNK     1      18.401   6.883  32.030  1.00  0.00     0.217 HD
ENDBRANCH   6  18
BRANCH  10  20
HETATM   20  O2  UNK     1      18.285   2.882  28.491  1.00  0.00    -0.353 OA
HETATM   21  C16 UNK     1      17.862   1.532  28.309  1.00  0.00     0.210 C 
ENDBRANCH  10  20
BRANCH  11  22
HETATM   22  O4  UNK     1      18.919   5.525  28.996  1.00  0.00    -0.356 OA
HETATM   23  H9  UNK     1      18.989   5.006  28.177  1.00  0.00     0.218 HD
ENDBRANCH  11  22
TORSDOF 4
ENDMDL
