MODEL 1
REMARK VINA RESULT:      -8.3      0.000      0.000
REMARK  4 active torsions:
REMARK  status: ('A' for Active; 'I' for Inactive)
REMARK    1  A    between atoms: C11_16  and  O1_2 
REMARK    2  A    between atoms: C17_22  and  O1_2 
REMARK    3  A    between atoms: C15_20  and  O4_5 
REMARK    4  A    between atoms: C6_11  and  C7_12 
ROOT
HETATM    1  I1  UNK     1      17.040   0.380  37.024  1.00  0.00    -0.042 I 
HETATM    2  C7  UNK     1      20.120  -2.501  36.074  1.00  0.00    -0.031 A 
HETATM    3  C10 UNK     1      20.180  -2.537  34.692  1.00  0.00     0.051 A 
HETATM    4  C11 UNK     1      19.324  -1.724  33.950  1.00  0.00     0.103 A 
HETATM    5  C12 UNK     1      19.230  -1.674  36.738  1.00  0.00     0.032 A 
HETATM    6  C15 UNK     1      18.421  -0.884  34.603  1.00  0.00     0.115 A 
HETATM    7  C16 UNK     1      18.373  -0.860  35.996  1.00  0.00     0.043 A 
ENDROOT
BRANCH   2   8
HETATM    8  C6  UNK     1      21.026  -3.363  36.858  1.00  0.00     0.031 C 
HETATM    9  C1  UNK     1      20.749  -4.586  37.305  1.00  0.00     0.067 A 
HETATM   10  C4  UNK     1      21.677  -5.437  38.091  1.00  0.00     0.197 A 
HETATM   11  C5  UNK     1      19.465  -5.301  37.088  1.00  0.00     0.197 A 
HETATM   12  C2  UNK     1      20.919  -6.673  38.340  1.00  0.00     0.029 A 
HETATM   13  O2  UNK     1      22.805  -5.183  38.455  1.00  0.00    -0.286 OA
HETATM   14  C3  UNK     1      19.648  -6.595  37.763  1.00  0.00     0.029 A 
HETATM   15  C8  UNK     1      21.333  -7.794  39.033  1.00  0.00     0.016 A 
HETATM   16  C9  UNK     1      18.745  -7.635  37.858  1.00  0.00     0.016 A 
HETATM   17  C14 UNK     1      19.149  -8.777  38.556  1.00  0.00     0.001 A 
HETATM   18  C13 UNK     1      20.429  -8.855  39.137  1.00  0.00     0.001 A 
HETATM   19  O3  UNK     1      18.481  -4.919  36.493  1.00  0.00    -0.286 OA
ENDBRANCH   2   8
BRANCH   4  20
HETATM   20  O1  UNK     1      19.382  -1.759  32.590  1.00  0.00    -0.349 OA
BRANCH  20  21
HETATM   21  C17 UNK     1      20.628  -2.129  32.003  1.00  0.00     0.171 C 
HETATM   22  C18 UNK     1      20.452  -2.245  30.504  1.00  0.00     0.034 C 
ENDBRANCH  20  21
ENDBRANCH   4  20
BRANCH   6  23
HETATM   23  O4  UNK     1      17.595  -0.099  33.852  1.00  0.00    -0.357 OA
HETATM   24  H13 UNK     1      16.927  -0.672  33.435  1.00  0.00     0.218 HD
ENDBRANCH   6  23
TORSDOF 4
ENDMDL
MODEL 2
REMARK VINA RESULT:      -8.2      1.674      2.930
REMARK  4 active torsions:
REMARK  status: ('A' for Active; 'I' for Inactive)
REMARK    1  A    between atoms: C11_16  and  O1_2 
REMARK    2  A    between atoms: C17_22  and  O1_2 
REMARK    3  A    between atoms: C15_20  and  O4_5 
REMARK    4  A    between atoms: C6_11  and  C7_12 
ROOT
HETATM    1  I1  UNK     1      19.716  -1.574  31.950  1.00  0.00    -0.042 I 
HETATM    2  C7  UNK     1      20.081  -2.636  36.124  1.00  0.00    -0.031 A 
HETATM    3  C10 UNK     1      19.037  -1.989  36.764  1.00  0.00     0.051 A 
HETATM    4  C11 UNK     1      18.161  -1.202  36.017  1.00  0.00     0.103 A 
HETATM    5  C12 UNK     1      20.275  -2.518  34.759  1.00  0.00     0.032 A 
HETATM    6  C15 UNK     1      18.343  -1.073  34.639  1.00  0.00     0.115 A 
HETATM    7  C16 UNK     1      19.400  -1.731  34.011  1.00  0.00     0.043 A 
ENDROOT
BRANCH   2   8
HETATM    8  C6  UNK     1      21.006  -3.467  36.917  1.00  0.00     0.031 C 
HETATM    9  C1  UNK     1      20.765  -4.700  37.361  1.00  0.00     0.067 A 
HETATM   10  C4  UNK     1      21.713  -5.520  38.157  1.00  0.00     0.197 A 
HETATM   11  C5  UNK     1      19.508  -5.456  37.131  1.00  0.00     0.197 A 
HETATM   12  C2  UNK     1      20.994  -6.780  38.398  1.00  0.00     0.029 A 
HETATM   13  O2  UNK     1      22.829  -5.229  38.532  1.00  0.00    -0.286 OA
HETATM   14  C3  UNK     1      19.728  -6.744  37.807  1.00  0.00     0.029 A 
HETATM   15  C8  UNK     1      21.438  -7.887  39.095  1.00  0.00     0.016 A 
HETATM   16  C9  UNK     1      18.858  -7.814  37.893  1.00  0.00     0.016 A 
HETATM   17  C14 UNK     1      19.293  -8.942  38.595  1.00  0.00     0.001 A 
HETATM   18  C13 UNK     1      20.569  -8.978  39.189  1.00  0.00     0.001 A 
HETATM   19  O3  UNK     1      18.519  -5.107  36.525  1.00  0.00    -0.286 OA
ENDBRANCH   2   8
BRANCH   4  20
HETATM   20  O1  UNK     1      17.134  -0.565  36.644  1.00  0.00    -0.349 OA
BRANCH  20  21
HETATM   21  C17 UNK     1      17.476   0.337  37.695  1.00  0.00     0.171 C 
HETATM   22  C18 UNK     1      17.838   1.679  37.094  1.00  0.00     0.034 C 
ENDBRANCH  20  21
ENDBRANCH   4  20
BRANCH   6  23
HETATM   23  O4  UNK     1      17.472  -0.296  33.932  1.00  0.00    -0.357 OA
HETATM   24  H13 UNK     1      17.983   0.391  33.471  1.00  0.00     0.218 HD
ENDBRANCH   6  23
TORSDOF 4
ENDMDL
MODEL 3
REMARK VINA RESULT:      -7.4      7.867     12.304
REMARK  4 active torsions:
REMARK  status: ('A' for Active; 'I' for Inactive)
REMARK    1  A    between atoms: C11_16  and  O1_2 
REMARK    2  A    between atoms: C17_22  and  O1_2 
REMARK    3  A    between atoms: C15_20  and  O4_5 
REMARK    4  A    between atoms: C6_11  and  C7_12 
ROOT
HETATM    1  I1  UNK     1      18.283   1.573  36.334  1.00  0.00    -0.042 I 
HETATM    2  C7  UNK     1      18.990   4.928  33.701  1.00  0.00    -0.031 A 
HETATM    3  C10 UNK     1      18.556   4.517  32.452  1.00  0.00     0.051 A 
HETATM    4  C11 UNK     1      18.030   3.234  32.300  1.00  0.00     0.103 A 
HETATM    5  C12 UNK     1      18.914   4.094  34.803  1.00  0.00     0.032 A 
HETATM    6  C15 UNK     1      17.945   2.381  33.401  1.00  0.00     0.115 A 
HETATM    7  C16 UNK     1      18.387   2.811  34.652  1.00  0.00     0.043 A 
ENDROOT
BRANCH   2   8
HETATM    8  C6  UNK     1      19.546   6.285  33.860  1.00  0.00     0.031 C 
HETATM    9  C1  UNK     1      18.846   7.417  33.908  1.00  0.00     0.067 A 
HETATM   10  C4  UNK     1      19.427   8.773  34.069  1.00  0.00     0.197 A 
HETATM   11  C5  UNK     1      17.367   7.507  33.809  1.00  0.00     0.197 A 
HETATM   12  C2  UNK     1      18.265   9.674  34.064  1.00  0.00     0.029 A 
HETATM   13  O2  UNK     1      20.594   9.083  34.180  1.00  0.00    -0.286 OA
HETATM   14  C3  UNK     1      17.080   8.946  33.916  1.00  0.00     0.029 A 
HETATM   15  C8  UNK     1      18.259  11.050  34.184  1.00  0.00     0.016 A 
HETATM   16  C9  UNK     1      15.847   9.568  33.882  1.00  0.00     0.016 A 
HETATM   17  C14 UNK     1      15.826  10.961  34.003  1.00  0.00     0.001 A 
HETATM   18  C13 UNK     1      17.019  11.693  34.153  1.00  0.00     0.001 A 
HETATM   19  O3  UNK     1      16.565   6.609  33.674  1.00  0.00    -0.286 OA
ENDBRANCH   2   8
BRANCH   4  20
HETATM   20  O1  UNK     1      17.603   2.829  31.073  1.00  0.00    -0.349 OA
BRANCH  20  21
HETATM   21  C17 UNK     1      18.587   2.724  30.045  1.00  0.00     0.171 C 
HETATM   22  C18 UNK     1      18.061   1.822  28.950  1.00  0.00     0.034 C 
ENDBRANCH  20  21
ENDBRANCH   4  20
BRANCH   6  23
HETATM   23  O4  UNK     1      17.428   1.131  33.224  1.00  0.00    -0.357 OA
HETATM   24  H13 UNK     1      17.582   0.866  32.300  1.00  0.00     0.218 HD
ENDBRANCH   6  23
TORSDOF 4
ENDMDL
MODEL 4
REMARK VINA RESULT:      -7.3      6.668     10.035
REMARK  4 active torsions:
REMARK  status: ('A' for Active; 'I' for Inactive)
REMARK    1  A    between atoms: C11_16  and  O1_2 
REMARK    2  A    between atoms: C17_22  and  O1_2 
REMARK    3  A    between atoms: C15_20  and  O4_5 
REMARK    4  A    between atoms: C6_11  and  C7_12 
ROOT
HETATM    1  I1  UNK     1      20.125   8.508  34.254  1.00  0.00    -0.042 I 
HETATM    2  C7  UNK     1      18.224   5.760  31.512  1.00  0.00    -0.031 A 
HETATM    3  C10 UNK     1      16.975   6.299  31.253  1.00  0.00     0.051 A 
HETATM    4  C11 UNK     1      16.610   7.499  31.863  1.00  0.00     0.103 A 
HETATM    5  C12 UNK     1      19.119   6.385  32.363  1.00  0.00     0.032 A 
HETATM    6  C15 UNK     1      17.500   8.143  32.724  1.00  0.00     0.115 A 
HETATM    7  C16 UNK     1      18.754   7.586  32.974  1.00  0.00     0.043 A 
ENDROOT
BRANCH   2   8
HETATM    8  C6  UNK     1      18.609   4.491  30.866  1.00  0.00     0.031 C 
HETATM    9  C1  UNK     1      18.607   3.289  31.440  1.00  0.00     0.067 A 
HETATM   10  C4  UNK     1      18.998   2.023  30.770  1.00  0.00     0.197 A 
HETATM   11  C5  UNK     1      18.212   3.018  32.846  1.00  0.00     0.197 A 
HETATM   12  C2  UNK     1      18.829   0.993  31.805  1.00  0.00     0.029 A 
HETATM   13  O2  UNK     1      19.374   1.861  29.629  1.00  0.00    -0.286 OA
HETATM   14  C3  UNK     1      18.376   1.565  32.998  1.00  0.00     0.029 A 
HETATM   15  C8  UNK     1      19.061  -0.364  31.695  1.00  0.00     0.016 A 
HETATM   16  C9  UNK     1      18.140   0.800  34.124  1.00  0.00     0.016 A 
HETATM   17  C14 UNK     1      18.369  -0.576  34.027  1.00  0.00     0.001 A 
HETATM   18  C13 UNK     1      18.825  -1.151  32.825  1.00  0.00     0.001 A 
HETATM   19  O3  UNK     1      17.837   3.805  33.688  1.00  0.00    -0.286 OA
ENDBRANCH   2   8
BRANCH   4  20
HETATM   20  O1  UNK     1      15.382   8.030  31.609  1.00  0.00    -0.349 OA
BRANCH  20  21
HETATM   21  C17 UNK     1      14.248   7.272  32.026  1.00  0.00     0.171 C 
HETATM   22  C18 UNK     1      14.119   7.367  33.531  1.00  0.00     0.034 C 
ENDBRANCH  20  21
ENDBRANCH   4  20
BRANCH   6  23
HETATM   23  O4  UNK     1      17.116   9.315  33.308  1.00  0.00    -0.357 OA
HETATM   24  H13 UNK     1      17.815   9.974  33.156  1.00  0.00     0.218 HD
ENDBRANCH   6  23
TORSDOF 4
ENDMDL
MODEL 5
REMARK VINA RESULT:      -7.2      7.587     11.814
REMARK  4 active torsions:
REMARK  status: ('A' for Active; 'I' for Inactive)
REMARK    1  A    between atoms: C11_16  and  O1_2 
REMARK    2  A    between atoms: C17_22  and  O1_2 
REMARK    3  A    between atoms: C15_20  and  O4_5 
REMARK    4  A    between atoms: C6_11  and  C7_12 
ROOT
HETATM    1  I1  UNK     1      18.312   0.859  35.083  1.00  0.00    -0.042 I 
HETATM    2  C7  UNK     1      17.771   4.073  32.243  1.00  0.00    -0.031 A 
HETATM    3  C10 UNK     1      18.289   3.603  31.049  1.00  0.00     0.051 A 
HETATM    4  C11 UNK     1      18.830   2.319  30.997  1.00  0.00     0.103 A 
HETATM    5  C12 UNK     1      17.777   3.296  33.389  1.00  0.00     0.032 A 
HETATM    6  C15 UNK     1      18.843   1.522  32.143  1.00  0.00     0.115 A 
HETATM    7  C16 UNK     1      18.317   2.011  33.338  1.00  0.00     0.043 A 
ENDROOT
BRANCH   2   8
HETATM    8  C6  UNK     1      17.200   5.432  32.296  1.00  0.00     0.031 C 
HETATM    9  C1  UNK     1      17.805   6.516  32.780  1.00  0.00     0.067 A 
HETATM   10  C4  UNK     1      17.211   7.876  32.823  1.00  0.00     0.197 A 
HETATM   11  C5  UNK     1      19.173   6.541  33.357  1.00  0.00     0.197 A 
HETATM   12  C2  UNK     1      18.253   8.712  33.438  1.00  0.00     0.029 A 
HETATM   13  O2  UNK     1      16.116   8.231  32.442  1.00  0.00    -0.286 OA
HETATM   14  C3  UNK     1      19.381   7.945  33.743  1.00  0.00     0.029 A 
HETATM   15  C8  UNK     1      18.203  10.066  33.706  1.00  0.00     0.016 A 
HETATM   16  C9  UNK     1      20.500   8.504  34.329  1.00  0.00     0.016 A 
HETATM   17  C14 UNK     1      20.464   9.875  34.607  1.00  0.00     0.001 A 
HETATM   18  C13 UNK     1      19.328  10.647  34.298  1.00  0.00     0.001 A 
HETATM   19  O3  UNK     1      19.953   5.623  33.485  1.00  0.00    -0.286 OA
ENDBRANCH   2   8
BRANCH   4  20
HETATM   20  O1  UNK     1      19.339   1.855  29.822  1.00  0.00    -0.349 OA
BRANCH  20  21
HETATM   21  C17 UNK     1      18.405   1.498  28.805  1.00  0.00     0.171 C 
HETATM   22  C18 UNK     1      18.804   0.162  28.217  1.00  0.00     0.034 C 
ENDBRANCH  20  21
ENDBRANCH   4  20
BRANCH   6  23
HETATM   23  O4  UNK     1      19.379   0.269  32.064  1.00  0.00    -0.357 OA
HETATM   24  H13 UNK     1      20.330   0.356  31.876  1.00  0.00     0.218 HD
ENDBRANCH   6  23
TORSDOF 4
ENDMDL
MODEL 6
REMARK VINA RESULT:      -7.1     11.244     13.651
REMARK  4 active torsions:
REMARK  status: ('A' for Active; 'I' for Inactive)
REMARK    1  A    between atoms: C11_16  and  O1_2 
REMARK    2  A    between atoms: C17_22  and  O1_2 
REMARK    3  A    between atoms: C15_20  and  O4_5 
REMARK    4  A    between atoms: C6_11  and  C7_12 
ROOT
HETATM    1  I1  UNK     1      36.386  -7.350  34.178  1.00  0.00    -0.042 I 
HETATM    2  C7  UNK     1      32.360  -5.797  34.429  1.00  0.00    -0.031 A 
HETATM    3  C10 UNK     1      31.973  -5.980  35.746  1.00  0.00     0.051 A 
HETATM    4  C11 UNK     1      32.864  -6.568  36.643  1.00  0.00     0.103 A 
HETATM    5  C12 UNK     1      33.611  -6.186  33.982  1.00  0.00     0.032 A 
HETATM    6  C15 UNK     1      34.130  -6.965  36.210  1.00  0.00     0.115 A 
HETATM    7  C16 UNK     1      34.503  -6.775  34.880  1.00  0.00     0.043 A 
ENDROOT
BRANCH   2   8
HETATM    8  C6  UNK     1      31.416  -5.175  33.481  1.00  0.00     0.031 C 
HETATM    9  C1  UNK     1      30.490  -5.813  32.766  1.00  0.00     0.067 A 
HETATM   10  C4  UNK     1      29.550  -5.166  31.817  1.00  0.00     0.197 A 
HETATM   11  C5  UNK     1      30.248  -7.278  32.803  1.00  0.00     0.197 A 
HETATM   12  C2  UNK     1      28.742  -6.275  31.289  1.00  0.00     0.029 A 
HETATM   13  O2  UNK     1      29.458  -3.991  31.532  1.00  0.00    -0.286 OA
HETATM   14  C3  UNK     1      29.142  -7.489  31.856  1.00  0.00     0.029 A 
HETATM   15  C8  UNK     1      27.717  -6.210  30.365  1.00  0.00     0.016 A 
HETATM   16  C9  UNK     1      28.532  -8.682  31.519  1.00  0.00     0.016 A 
HETATM   17  C14 UNK     1      27.492  -8.632  30.586  1.00  0.00     0.001 A 
HETATM   18  C13 UNK     1      27.089  -7.410  30.015  1.00  0.00     0.001 A 
HETATM   19  O3  UNK     1      30.820  -8.120  33.459  1.00  0.00    -0.286 OA
ENDBRANCH   2   8
BRANCH   4  20
HETATM   20  O1  UNK     1      32.485  -6.748  37.939  1.00  0.00    -0.349 OA
BRANCH  20  21
HETATM   21  C17 UNK     1      31.253  -7.430  38.166  1.00  0.00     0.171 C 
HETATM   22  C18 UNK     1      31.496  -8.922  38.096  1.00  0.00     0.034 C 
ENDBRANCH  20  21
ENDBRANCH   4  20
BRANCH   6  23
HETATM   23  O4  UNK     1      34.981  -7.539  37.109  1.00  0.00    -0.357 OA
HETATM   24  H13 UNK     1      34.478  -7.743  37.917  1.00  0.00     0.218 HD
ENDBRANCH   6  23
TORSDOF 4
ENDMDL
MODEL 7
REMARK VINA RESULT:      -7.1      9.800     12.228
REMARK  4 active torsions:
REMARK  status: ('A' for Active; 'I' for Inactive)
REMARK    1  A    between atoms: C11_16  and  O1_2 
REMARK    2  A    between atoms: C17_22  and  O1_2 
REMARK    3  A    between atoms: C15_20  and  O4_5 
REMARK    4  A    between atoms: C6_11  and  C7_12 
ROOT
HETATM    1  I1  UNK     1      32.493  -4.826  35.683  1.00  0.00    -0.042 I 
HETATM    2  C7  UNK     1      28.807  -6.711  34.437  1.00  0.00    -0.031 A 
HETATM    3  C10 UNK     1      28.303  -7.326  35.571  1.00  0.00     0.051 A 
HETATM    4  C11 UNK     1      29.008  -7.229  36.770  1.00  0.00     0.103 A 
HETATM    5  C12 UNK     1      29.996  -6.002  34.467  1.00  0.00     0.032 A 
HETATM    6  C15 UNK     1      30.208  -6.517  36.818  1.00  0.00     0.115 A 
HETATM    7  C16 UNK     1      30.701  -5.905  35.667  1.00  0.00     0.043 A 
ENDROOT
BRANCH   2   8
HETATM    8  C6  UNK     1      28.061  -6.816  33.169  1.00  0.00     0.031 C 
HETATM    9  C1  UNK     1      28.309  -7.677  32.183  1.00  0.00     0.067 A 
HETATM   10  C4  UNK     1      27.544  -7.764  30.915  1.00  0.00     0.197 A 
HETATM   11  C5  UNK     1      29.394  -8.691  32.193  1.00  0.00     0.197 A 
HETATM   12  C2  UNK     1      28.195  -8.851  30.168  1.00  0.00     0.029 A 
HETATM   13  O2  UNK     1      26.595  -7.097  30.560  1.00  0.00    -0.286 OA
HETATM   14  C3  UNK     1      29.257  -9.385  30.903  1.00  0.00     0.029 A 
HETATM   15  C8  UNK     1      27.863  -9.336  28.918  1.00  0.00     0.016 A 
HETATM   16  C9  UNK     1      30.028 -10.422  30.415  1.00  0.00     0.016 A 
HETATM   17  C14 UNK     1      29.704 -10.923  29.150  1.00  0.00     0.001 A 
HETATM   18  C13 UNK     1      28.634 -10.386  28.410  1.00  0.00     0.001 A 
HETATM   19  O3  UNK     1      30.212  -8.911  33.060  1.00  0.00    -0.286 OA
ENDBRANCH   2   8
BRANCH   4  20
HETATM   20  O1  UNK     1      28.513  -7.832  37.886  1.00  0.00    -0.349 OA
BRANCH  20  21
HETATM   21  C17 UNK     1      28.537  -9.259  37.917  1.00  0.00     0.171 C 
HETATM   22  C18 UNK     1      28.149  -9.728  39.302  1.00  0.00     0.034 C 
ENDBRANCH  20  21
ENDBRANCH   4  20
BRANCH   6  23
HETATM   23  O4  UNK     1      30.877  -6.439  38.005  1.00  0.00    -0.357 OA
HETATM   24  H13 UNK     1      31.826  -6.560  37.827  1.00  0.00     0.218 HD
ENDBRANCH   6  23
TORSDOF 4
ENDMDL
MODEL 8
REMARK VINA RESULT:      -7.0     10.339     12.569
REMARK  4 active torsions:
REMARK  status: ('A' for Active; 'I' for Inactive)
REMARK    1  A    between atoms: C11_16  and  O1_2 
REMARK    2  A    between atoms: C17_22  and  O1_2 
REMARK    3  A    between atoms: C15_20  and  O4_5 
REMARK    4  A    between atoms: C6_11  and  C7_12 
ROOT
HETATM    1  I1  UNK     1      34.784  -5.897  36.300  1.00  0.00    -0.042 I 
HETATM    2  C7  UNK     1      31.002  -7.938  35.833  1.00  0.00    -0.031 A 
HETATM    3  C10 UNK     1      30.259  -7.602  36.952  1.00  0.00     0.051 A 
HETATM    4  C11 UNK     1      30.815  -6.758  37.912  1.00  0.00     0.103 A 
HETATM    5  C12 UNK     1      32.286  -7.456  35.647  1.00  0.00     0.032 A 
HETATM    6  C15 UNK     1      32.108  -6.262  37.740  1.00  0.00     0.115 A 
HETATM    7  C16 UNK     1      32.843  -6.612  36.608  1.00  0.00     0.043 A 
ENDROOT
BRANCH   2   8
HETATM    8  C6  UNK     1      30.412  -8.831  34.818  1.00  0.00     0.031 C 
HETATM    9  C1  UNK     1      29.705  -8.449  33.756  1.00  0.00     0.067 A 
HETATM   10  C4  UNK     1      29.120  -9.366  32.746  1.00  0.00     0.197 A 
HETATM   11  C5  UNK     1      29.385  -7.041  33.409  1.00  0.00     0.197 A 
HETATM   12  C2  UNK     1      28.445  -8.476  31.790  1.00  0.00     0.029 A 
HETATM   13  O2  UNK     1      29.177 -10.577  32.706  1.00  0.00    -0.286 OA
HETATM   14  C3  UNK     1      28.599  -7.139  32.170  1.00  0.00     0.029 A 
HETATM   15  C8  UNK     1      27.742  -8.831  30.654  1.00  0.00     0.016 A 
HETATM   16  C9  UNK     1      28.054  -6.109  31.429  1.00  0.00     0.016 A 
HETATM   17  C14 UNK     1      27.340  -6.452  30.277  1.00  0.00     0.001 A 
HETATM   18  C13 UNK     1      27.186  -7.798  29.894  1.00  0.00     0.001 A 
HETATM   19  O3  UNK     1      29.696  -6.030  34.000  1.00  0.00    -0.286 OA
ENDBRANCH   2   8
BRANCH   4  20
HETATM   20  O1  UNK     1      30.085  -6.426  39.013  1.00  0.00    -0.349 OA
BRANCH  20  21
HETATM   21  C17 UNK     1      28.972  -5.556  38.815  1.00  0.00     0.171 C 
HETATM   22  C18 UNK     1      29.407  -4.131  39.079  1.00  0.00     0.034 C 
ENDBRANCH  20  21
ENDBRANCH   4  20
BRANCH   6  23
HETATM   23  O4  UNK     1      32.628  -5.439  38.697  1.00  0.00    -0.357 OA
HETATM   24  H13 UNK     1      32.063  -4.650  38.759  1.00  0.00     0.218 HD
ENDBRANCH   6  23
TORSDOF 4
ENDMDL
MODEL 9
REMARK VINA RESULT:      -7.0      9.904     11.894
REMARK  4 active torsions:
REMARK  status: ('A' for Active; 'I' for Inactive)
REMARK    1  A    between atoms: C11_16  and  O1_2 
REMARK    2  A    between atoms: C17_22  and  O1_2 
REMARK    3  A    between atoms: C15_20  and  O4_5 
REMARK    4  A    between atoms: C6_11  and  C7_12 
ROOT
HETATM    1  I1  UNK     1      31.762 -12.455  33.365  1.00  0.00    -0.042 I 
HETATM    2  C7  UNK     1      28.857  -9.305  33.941  1.00  0.00    -0.031 A 
HETATM    3  C10 UNK     1      28.664  -8.746  32.690  1.00  0.00     0.051 A 
HETATM    4  C11 UNK     1      29.370  -9.253  31.599  1.00  0.00     0.103 A 
HETATM    5  C12 UNK     1      29.736 -10.357  34.135  1.00  0.00     0.032 A 
HETATM    6  C15 UNK     1      30.259 -10.313  31.776  1.00  0.00     0.115 A 
HETATM    7  C16 UNK     1      30.442 -10.865  33.044  1.00  0.00     0.043 A 
ENDROOT
BRANCH   2   8
HETATM    8  C6  UNK     1      28.110  -8.767  35.094  1.00  0.00     0.031 C 
HETATM    9  C1  UNK     1      28.487  -7.747  35.863  1.00  0.00     0.067 A 
HETATM   10  C4  UNK     1      27.718  -7.222  37.019  1.00  0.00     0.197 A 
HETATM   11  C5  UNK     1      29.739  -6.968  35.690  1.00  0.00     0.197 A 
HETATM   12  C2  UNK     1      28.538  -6.114  37.532  1.00  0.00     0.029 A 
HETATM   13  O2  UNK     1      26.655  -7.609  37.454  1.00  0.00    -0.286 OA
HETATM   14  C3  UNK     1      29.699  -5.967  36.767  1.00  0.00     0.029 A 
HETATM   15  C8  UNK     1      28.269  -5.288  38.606  1.00  0.00     0.016 A 
HETATM   16  C9  UNK     1      30.634  -4.990  37.050  1.00  0.00     0.016 A 
HETATM   17  C14 UNK     1      30.376  -4.147  38.134  1.00  0.00     0.001 A 
HETATM   18  C13 UNK     1      29.206  -4.294  38.904  1.00  0.00     0.001 A 
HETATM   19  O3  UNK     1      30.606  -7.111  34.855  1.00  0.00    -0.286 OA
ENDBRANCH   2   8
BRANCH   4  20
HETATM   20  O1  UNK     1      29.180  -8.704  30.367  1.00  0.00    -0.349 OA
BRANCH  20  21
HETATM   21  C17 UNK     1      27.926  -8.949  29.733  1.00  0.00     0.171 C 
HETATM   22  C18 UNK     1      28.141  -9.882  28.561  1.00  0.00     0.034 C 
ENDBRANCH  20  21
ENDBRANCH   4  20
BRANCH   6  23
HETATM   23  O4  UNK     1      30.937 -10.789  30.692  1.00  0.00    -0.357 OA
HETATM   24  H13 UNK     1      31.381 -10.039  30.258  1.00  0.00     0.218 HD
ENDBRANCH   6  23
TORSDOF 4
ENDMDL
MODEL 10
REMARK VINA RESULT:      -7.0      7.187     11.977
REMARK  4 active torsions:
REMARK  status: ('A' for Active; 'I' for Inactive)
REMARK    1  A    between atoms: C11_16  and  O1_2 
REMARK    2  A    between atoms: C17_22  and  O1_2 
REMARK    3  A    between atoms: C15_20  and  O4_5 
REMARK    4  A    between atoms: C6_11  and  C7_12 
ROOT
HETATM    1  I1  UNK     1      19.058   1.265  29.214  1.00  0.00    -0.042 I 
HETATM    2  C7  UNK     1      17.752   3.965  32.327  1.00  0.00    -0.031 A 
HETATM    3  C10 UNK     1      17.969   3.291  33.517  1.00  0.00     0.051 A 
HETATM    4  C11 UNK     1      18.510   2.006  33.485  1.00  0.00     0.103 A 
HETATM    5  C12 UNK     1      18.059   3.391  31.106  1.00  0.00     0.032 A 
HETATM    6  C15 UNK     1      18.827   1.414  32.262  1.00  0.00     0.115 A 
HETATM    7  C16 UNK     1      18.601   2.106  31.073  1.00  0.00     0.043 A 
ENDROOT
BRANCH   2   8
HETATM    8  C6  UNK     1      17.179   5.324  32.363  1.00  0.00     0.031 C 
HETATM    9  C1  UNK     1      17.785   6.416  32.825  1.00  0.00     0.067 A 
HETATM   10  C4  UNK     1      17.188   7.775  32.851  1.00  0.00     0.197 A 
HETATM   11  C5  UNK     1      19.157   6.453  33.391  1.00  0.00     0.197 A 
HETATM   12  C2  UNK     1      18.233   8.623  33.444  1.00  0.00     0.029 A 
HETATM   13  O2  UNK     1      16.090   8.123  32.473  1.00  0.00    -0.286 OA
HETATM   14  C3  UNK     1      19.366   7.863  33.753  1.00  0.00     0.029 A 
HETATM   15  C8  UNK     1      18.183   9.981  33.691  1.00  0.00     0.016 A 
HETATM   16  C9  UNK     1      20.488   8.434  34.322  1.00  0.00     0.016 A 
HETATM   17  C14 UNK     1      20.452   9.808  34.577  1.00  0.00     0.001 A 
HETATM   18  C13 UNK     1      19.312  10.573  34.266  1.00  0.00     0.001 A 
HETATM   19  O3  UNK     1      19.940   5.539  33.528  1.00  0.00    -0.286 OA
ENDBRANCH   2   8
BRANCH   4  20
HETATM   20  O1  UNK     1      18.724   1.343  34.655  1.00  0.00    -0.349 OA
BRANCH  20  21
HETATM   21  C17 UNK     1      18.967   2.136  35.816  1.00  0.00     0.171 C 
HETATM   22  C18 UNK     1      18.061   1.664  36.933  1.00  0.00     0.034 C 
ENDBRANCH  20  21
ENDBRANCH   4  20
BRANCH   6  23
HETATM   23  O4  UNK     1      19.354   0.155  32.261  1.00  0.00    -0.357 OA
HETATM   24  H13 UNK     1      19.310  -0.192  31.353  1.00  0.00     0.218 HD
ENDBRANCH   6  23
TORSDOF 4
ENDMDL
