MODEL 1
REMARK VINA RESULT:      -7.2      0.000      0.000
REMARK  5 active torsions:
REMARK  status: ('A' for Active; 'I' for Inactive)
REMARK    1  A    between atoms: C12_19  and  O2_2 
REMARK    2  A    between atoms: C2_9  and  O2_2 
REMARK    3  A    between atoms: C13_20  and  O3_3 
REMARK    4  A    between atoms: C3_10  and  O3_3 
REMARK    5  A    between atoms: C13_20  and  C18_25 
ROOT
HETATM    1  O1  UNK     1      30.120  -9.533  35.385  1.00  0.00    -0.338 OA
HETATM    2  O4  UNK     1      30.154  -5.577  32.556  1.00  0.00    -0.274 OA
HETATM    3  O7  UNK     1      30.121  -3.739  31.189  1.00  0.00    -0.260 OA
HETATM    4  C1  UNK     1      30.811  -8.834  36.437  1.00  0.00     0.090 C 
HETATM    5  C2  UNK     1      31.836  -7.823  35.873  1.00  0.00     0.200 C 
HETATM    6  C3  UNK     1      31.204  -6.836  34.890  1.00  0.00     0.203 C 
HETATM    7  C4  UNK     1      30.194  -7.515  34.005  1.00  0.00     0.042 A 
HETATM    8  C5  UNK     1      29.724  -8.799  34.299  1.00  0.00     0.081 A 
HETATM    9  C6  UNK     1      31.523  -9.928  37.253  1.00  0.00     0.049 C 
HETATM   10  C7  UNK     1      29.768  -8.172  37.353  1.00  0.00     0.049 C 
HETATM   11  C8  UNK     1      29.694  -6.881  32.855  1.00  0.00     0.101 A 
HETATM   12  C9  UNK     1      28.807  -9.431  33.450  1.00  0.00     0.038 A 
HETATM   13  C10 UNK     1      28.771  -7.494  32.008  1.00  0.00    -0.001 A 
HETATM   14  C11 UNK     1      28.330  -8.782  32.310  1.00  0.00     0.017 A 
HETATM   15  C14 UNK     1      28.300  -6.778  30.834  1.00  0.00     0.020 A 
HETATM   16  C15 UNK     1      29.719  -4.869  31.441  1.00  0.00     0.288 A 
HETATM   17  C16 UNK     1      28.745  -5.548  30.568  1.00  0.00     0.083 A 
ENDROOT
BRANCH   6  18
HETATM   18  O3  UNK     1      30.553  -5.782  35.592  1.00  0.00    -0.304 OA
BRANCH  18  19
HETATM   19  C13 UNK     1      31.367  -4.819  36.112  1.00  0.00     0.289 C 
HETATM   20  O6  UNK     1      32.168  -4.145  35.479  1.00  0.00    -0.260 OA
BRANCH  19  21
HETATM   21  C18 UNK     1      31.142  -4.709  37.586  1.00  0.00     0.009 C 
HETATM   22  C19 UNK     1      32.223  -5.187  38.508  1.00  0.00     0.054 C 
HETATM   23  C20 UNK     1      29.951  -4.210  37.962  1.00  0.00    -0.018 C 
HETATM   24  C21 UNK     1      29.468  -3.976  39.358  1.00  0.00     0.036 C 
ENDBRANCH  19  21
ENDBRANCH  18  19
ENDBRANCH   6  18
BRANCH   5  25
HETATM   25  O2  UNK     1      32.874  -8.508  35.164  1.00  0.00    -0.310 OA
BRANCH  25  26
HETATM   26  C12 UNK     1      34.031  -7.807  34.997  1.00  0.00     0.255 C 
HETATM   27  O5  UNK     1      34.669  -7.694  33.959  1.00  0.00    -0.266 OA
HETATM   28  C17 UNK     1      34.426  -7.176  36.298  1.00  0.00     0.126 C 
ENDBRANCH  25  26
ENDBRANCH   5  25
TORSDOF 5
ENDMDL
MODEL 2
REMARK VINA RESULT:      -7.2      1.963      5.840
REMARK  5 active torsions:
REMARK  status: ('A' for Active; 'I' for Inactive)
REMARK    1  A    between atoms: C12_19  and  O2_2 
REMARK    2  A    between atoms: C2_9  and  O2_2 
REMARK    3  A    between atoms: C13_20  and  O3_3 
REMARK    4  A    between atoms: C3_10  and  O3_3 
REMARK    5  A    between atoms: C13_20  and  C18_25 
ROOT
HETATM    1  O1  UNK     1      32.959  -6.273  34.203  1.00  0.00    -0.338 OA
HETATM    2  O4  UNK     1      29.086  -6.254  37.146  1.00  0.00    -0.274 OA
HETATM    3  O7  UNK     1      27.281  -6.186  38.554  1.00  0.00    -0.260 OA
HETATM    4  C1  UNK     1      32.360  -7.274  33.359  1.00  0.00     0.090 C 
HETATM    5  C2  UNK     1      31.524  -8.285  34.178  1.00  0.00     0.200 C 
HETATM    6  C3  UNK     1      30.464  -7.601  35.042  1.00  0.00     0.203 C 
HETATM    7  C4  UNK     1      30.991  -6.331  35.655  1.00  0.00     0.042 A 
HETATM    8  C5  UNK     1      32.185  -5.757  35.208  1.00  0.00     0.081 A 
HETATM    9  C6  UNK     1      33.541  -7.983  32.670  1.00  0.00     0.049 C 
HETATM   10  C7  UNK     1      31.537  -6.569  32.268  1.00  0.00     0.049 C 
HETATM   11  C8  UNK     1      30.302  -5.687  36.695  1.00  0.00     0.101 A 
HETATM   12  C9  UNK     1      32.681  -4.592  35.808  1.00  0.00     0.038 A 
HETATM   13  C10 UNK     1      30.778  -4.519  37.293  1.00  0.00    -0.001 A 
HETATM   14  C11 UNK     1      31.980  -3.973  36.844  1.00  0.00     0.017 A 
HETATM   15  C14 UNK     1      30.012  -3.909  38.366  1.00  0.00     0.020 A 
HETATM   16  C15 UNK     1      28.334  -5.689  38.170  1.00  0.00     0.288 A 
HETATM   17  C16 UNK     1      28.867  -4.458  38.778  1.00  0.00     0.083 A 
ENDROOT
BRANCH   6  18
HETATM   18  O3  UNK     1      29.315  -7.283  34.264  1.00  0.00    -0.304 OA
BRANCH  18  19
HETATM   19  C13 UNK     1      28.594  -8.345  33.801  1.00  0.00     0.289 C 
HETATM   20  O6  UNK     1      28.211  -9.292  34.474  1.00  0.00    -0.260 OA
BRANCH  19  21
HETATM   21  C18 UNK     1      28.344  -8.185  32.336  1.00  0.00     0.009 C 
HETATM   22  C19 UNK     1      28.847  -9.251  31.409  1.00  0.00     0.054 C 
HETATM   23  C20 UNK     1      27.702  -7.062  31.970  1.00  0.00    -0.018 C 
HETATM   24  C21 UNK     1      27.310  -6.655  30.584  1.00  0.00     0.036 C 
ENDBRANCH  19  21
ENDBRANCH  18  19
ENDBRANCH   6  18
BRANCH   5  25
HETATM   25  O2  UNK     1      32.367  -9.028  35.064  1.00  0.00    -0.310 OA
BRANCH  25  26
HETATM   26  C12 UNK     1      31.798 -10.131  35.627  1.00  0.00     0.255 C 
HETATM   27  O5  UNK     1      31.561 -10.301  36.816  1.00  0.00    -0.266 OA
HETATM   28  C17 UNK     1      31.493 -11.138  34.558  1.00  0.00     0.126 C 
ENDBRANCH  25  26
ENDBRANCH   5  25
TORSDOF 5
ENDMDL
MODEL 3
REMARK VINA RESULT:      -7.1      1.952      5.730
REMARK  5 active torsions:
REMARK  status: ('A' for Active; 'I' for Inactive)
REMARK    1  A    between atoms: C12_19  and  O2_2 
REMARK    2  A    between atoms: C2_9  and  O2_2 
REMARK    3  A    between atoms: C13_20  and  O3_3 
REMARK    4  A    between atoms: C3_10  and  O3_3 
REMARK    5  A    between atoms: C13_20  and  C18_25 
ROOT
HETATM    1  O1  UNK     1      32.627  -5.121  36.508  1.00  0.00    -0.338 OA
HETATM    2  O4  UNK     1      28.343  -7.415  36.732  1.00  0.00    -0.274 OA
HETATM    3  O7  UNK     1      26.311  -8.458  36.890  1.00  0.00    -0.260 OA
HETATM    4  C1  UNK     1      32.806  -5.509  35.133  1.00  0.00     0.090 C 
HETATM    5  C2  UNK     1      32.232  -6.919  34.858  1.00  0.00     0.200 C 
HETATM    6  C3  UNK     1      30.764  -7.041  35.269  1.00  0.00     0.203 C 
HETATM    7  C4  UNK     1      30.493  -6.315  36.559  1.00  0.00     0.042 A 
HETATM    8  C5  UNK     1      31.425  -5.419  37.091  1.00  0.00     0.081 A 
HETATM    9  C6  UNK     1      34.328  -5.491  34.900  1.00  0.00     0.049 C 
HETATM   10  C7  UNK     1      32.183  -4.429  34.233  1.00  0.00     0.049 C 
HETATM   11  C8  UNK     1      29.298  -6.518  37.269  1.00  0.00     0.101 A 
HETATM   12  C9  UNK     1      31.173  -4.772  38.308  1.00  0.00     0.038 A 
HETATM   13  C10 UNK     1      29.029  -5.872  38.476  1.00  0.00    -0.001 A 
HETATM   14  C11 UNK     1      29.980  -4.995  38.997  1.00  0.00     0.017 A 
HETATM   15  C14 UNK     1      27.772  -6.133  39.156  1.00  0.00     0.020 A 
HETATM   16  C15 UNK     1      27.133  -7.681  37.362  1.00  0.00     0.288 A 
HETATM   17  C16 UNK     1      26.884  -6.981  38.634  1.00  0.00     0.083 A 
ENDROOT
BRANCH   6  18
HETATM   18  O3  UNK     1      29.917  -6.501  34.260  1.00  0.00    -0.304 OA
BRANCH  18  19
HETATM   19  C13 UNK     1      29.402  -7.397  33.370  1.00  0.00     0.289 C 
HETATM   20  O6  UNK     1      29.512  -8.614  33.439  1.00  0.00    -0.260 OA
BRANCH  19  21
HETATM   21  C18 UNK     1      28.681  -6.669  32.281  1.00  0.00     0.009 C 
HETATM   22  C19 UNK     1      29.121  -5.276  31.946  1.00  0.00     0.054 C 
HETATM   23  C20 UNK     1      27.661  -7.332  31.707  1.00  0.00    -0.018 C 
HETATM   24  C21 UNK     1      26.785  -6.855  30.592  1.00  0.00     0.036 C 
ENDBRANCH  19  21
ENDBRANCH  18  19
ENDBRANCH   6  18
BRANCH   5  25
HETATM   25  O2  UNK     1      32.956  -7.905  35.600  1.00  0.00    -0.310 OA
BRANCH  25  26
HETATM   26  C12 UNK     1      32.787  -9.192  35.183  1.00  0.00     0.255 C 
HETATM   27  O5  UNK     1      32.126 -10.057  35.744  1.00  0.00    -0.266 OA
HETATM   28  C17 UNK     1      33.543  -9.409  33.907  1.00  0.00     0.126 C 
ENDBRANCH  25  26
ENDBRANCH   5  25
TORSDOF 5
ENDMDL
MODEL 4
REMARK VINA RESULT:      -7.0      1.861      5.021
REMARK  5 active torsions:
REMARK  status: ('A' for Active; 'I' for Inactive)
REMARK    1  A    between atoms: C12_19  and  O2_2 
REMARK    2  A    between atoms: C2_9  and  O2_2 
REMARK    3  A    between atoms: C13_20  and  O3_3 
REMARK    4  A    between atoms: C3_10  and  O3_3 
REMARK    5  A    between atoms: C13_20  and  C18_25 
ROOT
HETATM    1  O1  UNK     1      28.907  -9.831  35.237  1.00  0.00    -0.338 OA
HETATM    2  O4  UNK     1      29.922  -5.343  36.815  1.00  0.00    -0.274 OA
HETATM    3  O7  UNK     1      30.382  -3.248  37.618  1.00  0.00    -0.260 OA
HETATM    4  C1  UNK     1      29.732  -9.648  34.071  1.00  0.00     0.090 C 
HETATM    5  C2  UNK     1      29.666  -8.194  33.547  1.00  0.00     0.200 C 
HETATM    6  C3  UNK     1      30.019  -7.169  34.625  1.00  0.00     0.203 C 
HETATM    7  C4  UNK     1      29.440  -7.555  35.960  1.00  0.00     0.042 A 
HETATM    8  C5  UNK     1      28.927  -8.837  36.179  1.00  0.00     0.081 A 
HETATM    9  C6  UNK     1      29.173 -10.627  33.021  1.00  0.00     0.049 C 
HETATM   10  C7  UNK     1      31.165 -10.093  34.408  1.00  0.00     0.049 C 
HETATM   11  C8  UNK     1      29.394  -6.639  37.024  1.00  0.00     0.101 A 
HETATM   12  C9  UNK     1      28.363  -9.174  37.417  1.00  0.00     0.038 A 
HETATM   13  C10 UNK     1      28.848  -6.965  38.265  1.00  0.00    -0.001 A 
HETATM   14  C11 UNK     1      28.325  -8.244  38.457  1.00  0.00     0.017 A 
HETATM   15  C14 UNK     1      28.833  -5.965  39.319  1.00  0.00     0.020 A 
HETATM   16  C15 UNK     1      29.922  -4.368  37.806  1.00  0.00     0.288 A 
HETATM   17  C16 UNK     1      29.336  -4.748  39.103  1.00  0.00     0.083 A 
ENDROOT
BRANCH   6  18
HETATM   18  O3  UNK     1      31.431  -7.054  34.762  1.00  0.00    -0.304 OA
BRANCH  18  19
HETATM   19  C13 UNK     1      31.969  -5.850  34.412  1.00  0.00     0.289 C 
HETATM   20  O6  UNK     1      31.562  -5.121  33.518  1.00  0.00    -0.260 OA
BRANCH  19  21
HETATM   21  C18 UNK     1      33.146  -5.551  35.284  1.00  0.00     0.009 C 
HETATM   22  C19 UNK     1      34.047  -4.417  34.897  1.00  0.00     0.054 C 
HETATM   23  C20 UNK     1      33.312  -6.363  36.344  1.00  0.00    -0.018 C 
HETATM   24  C21 UNK     1      34.386  -6.285  37.383  1.00  0.00     0.036 C 
ENDBRANCH  19  21
ENDBRANCH  18  19
ENDBRANCH   6  18
BRANCH   5  25
HETATM   25  O2  UNK     1      28.343  -7.886  33.096  1.00  0.00    -0.310 OA
BRANCH  25  26
HETATM   26  C12 UNK     1      28.271  -7.175  31.936  1.00  0.00     0.255 C 
HETATM   27  O5  UNK     1      28.671  -6.031  31.758  1.00  0.00    -0.266 OA
HETATM   28  C17 UNK     1      27.616  -8.008  30.876  1.00  0.00     0.126 C 
ENDBRANCH  25  26
ENDBRANCH   5  25
TORSDOF 5
ENDMDL
MODEL 5
REMARK VINA RESULT:      -7.0      2.190      4.104
REMARK  5 active torsions:
REMARK  status: ('A' for Active; 'I' for Inactive)
REMARK    1  A    between atoms: C12_19  and  O2_2 
REMARK    2  A    between atoms: C2_9  and  O2_2 
REMARK    3  A    between atoms: C13_20  and  O3_3 
REMARK    4  A    between atoms: C3_10  and  O3_3 
REMARK    5  A    between atoms: C13_20  and  C18_25 
ROOT
HETATM    1  O1  UNK     1      32.462  -8.031  35.959  1.00  0.00    -0.338 OA
HETATM    2  O4  UNK     1      28.716  -7.004  33.031  1.00  0.00    -0.274 OA
HETATM    3  O7  UNK     1      26.988  -6.541  31.602  1.00  0.00    -0.260 OA
HETATM    4  C1  UNK     1      31.600  -8.068  37.112  1.00  0.00     0.090 C 
HETATM    5  C2  UNK     1      30.463  -7.024  37.009  1.00  0.00     0.200 C 
HETATM    6  C3  UNK     1      29.652  -7.170  35.721  1.00  0.00     0.203 C 
HETATM    7  C4  UNK     1      30.538  -7.492  34.548  1.00  0.00     0.042 A 
HETATM    8  C5  UNK     1      31.865  -7.893  34.735  1.00  0.00     0.081 A 
HETATM    9  C6  UNK     1      32.513  -7.757  38.312  1.00  0.00     0.049 C 
HETATM   10  C7  UNK     1      31.074  -9.503  37.285  1.00  0.00     0.049 C 
HETATM   11  C8  UNK     1      30.061  -7.397  33.230  1.00  0.00     0.101 A 
HETATM   12  C9  UNK     1      32.688  -8.160  33.634  1.00  0.00     0.038 A 
HETATM   13  C10 UNK     1      30.866  -7.672  32.125  1.00  0.00    -0.001 A 
HETATM   14  C11 UNK     1      32.191  -8.053  32.333  1.00  0.00     0.017 A 
HETATM   15  C14 UNK     1      30.304  -7.551  30.790  1.00  0.00     0.020 A 
HETATM   16  C15 UNK     1      28.154  -6.881  31.766  1.00  0.00     0.288 A 
HETATM   17  C16 UNK     1      29.034  -7.179  30.622  1.00  0.00     0.083 A 
ENDROOT
BRANCH   6  18
HETATM   18  O3  UNK     1      28.686  -8.206  35.855  1.00  0.00    -0.304 OA
BRANCH  18  19
HETATM   19  C13 UNK     1      27.625  -7.933  36.668  1.00  0.00     0.289 C 
HETATM   20  O6  UNK     1      27.043  -6.860  36.742  1.00  0.00    -0.260 OA
BRANCH  19  21
HETATM   21  C18 UNK     1      27.278  -9.146  37.470  1.00  0.00     0.009 C 
HETATM   22  C19 UNK     1      26.492 -10.236  36.805  1.00  0.00     0.054 C 
HETATM   23  C20 UNK     1      27.683  -9.137  38.753  1.00  0.00    -0.018 C 
HETATM   24  C21 UNK     1      27.489 -10.216  39.770  1.00  0.00     0.036 C 
ENDBRANCH  19  21
ENDBRANCH  18  19
ENDBRANCH   6  18
BRANCH   5  25
HETATM   25  O2  UNK     1      31.003  -5.699  37.014  1.00  0.00    -0.310 OA
BRANCH  25  26
HETATM   26  C12 UNK     1      30.307  -4.786  37.750  1.00  0.00     0.255 C 
HETATM   27  O5  UNK     1      30.282  -3.575  37.573  1.00  0.00    -0.266 OA
HETATM   28  C17 UNK     1      29.555  -5.490  38.839  1.00  0.00     0.126 C 
ENDBRANCH  25  26
ENDBRANCH   5  25
TORSDOF 5
ENDMDL
MODEL 6
REMARK VINA RESULT:      -6.9      1.918      3.680
REMARK  5 active torsions:
REMARK  status: ('A' for Active; 'I' for Inactive)
REMARK    1  A    between atoms: C12_19  and  O2_2 
REMARK    2  A    between atoms: C2_9  and  O2_2 
REMARK    3  A    between atoms: C13_20  and  O3_3 
REMARK    4  A    between atoms: C3_10  and  O3_3 
REMARK    5  A    between atoms: C13_20  and  C18_25 
ROOT
HETATM    1  O1  UNK     1      34.018  -6.978  34.811  1.00  0.00    -0.338 OA
HETATM    2  O4  UNK     1      29.872  -6.593  32.297  1.00  0.00    -0.274 OA
HETATM    3  O7  UNK     1      27.951  -6.435  31.060  1.00  0.00    -0.260 OA
HETATM    4  C1  UNK     1      33.306  -6.955  36.062  1.00  0.00     0.090 C 
HETATM    5  C2  UNK     1      32.072  -6.026  36.000  1.00  0.00     0.200 C 
HETATM    6  C3  UNK     1      31.131  -6.380  34.848  1.00  0.00     0.203 C 
HETATM    7  C4  UNK     1      31.899  -6.758  33.610  1.00  0.00     0.042 A 
HETATM    8  C5  UNK     1      33.270  -7.027  33.665  1.00  0.00     0.081 A 
HETATM    9  C6  UNK     1      34.321  -6.439  37.098  1.00  0.00     0.049 C 
HETATM   10  C7  UNK     1      32.942  -8.400  36.446  1.00  0.00     0.049 C 
HETATM   11  C8  UNK     1      31.262  -6.851  32.361  1.00  0.00     0.101 A 
HETATM   12  C9  UNK     1      33.978  -7.348  32.501  1.00  0.00     0.038 A 
HETATM   13  C10 UNK     1      31.953  -7.182  31.195  1.00  0.00    -0.001 A 
HETATM   14  C11 UNK     1      33.324  -7.428  31.270  1.00  0.00     0.017 A 
HETATM   15  C14 UNK     1      31.228  -7.257  29.938  1.00  0.00     0.020 A 
HETATM   16  C15 UNK     1      29.155  -6.659  31.107  1.00  0.00     0.288 A 
HETATM   17  C16 UNK     1      29.917  -7.011  29.897  1.00  0.00     0.083 A 
ENDROOT
BRANCH   6  18
HETATM   18  O3  UNK     1      30.290  -7.470  35.208  1.00  0.00    -0.304 OA
BRANCH  18  19
HETATM   19  C13 UNK     1      29.055  -7.140  35.686  1.00  0.00     0.289 C 
HETATM   20  O6  UNK     1      28.168  -6.590  35.048  1.00  0.00    -0.260 OA
BRANCH  19  21
HETATM   21  C18 UNK     1      28.944  -7.544  37.121  1.00  0.00     0.009 C 
HETATM   22  C19 UNK     1      29.460  -8.894  37.520  1.00  0.00     0.054 C 
HETATM   23  C20 UNK     1      28.352  -6.655  37.937  1.00  0.00    -0.018 C 
HETATM   24  C21 UNK     1      28.124  -6.790  39.410  1.00  0.00     0.036 C 
ENDBRANCH  19  21
ENDBRANCH  18  19
ENDBRANCH   6  18
BRANCH   5  25
HETATM   25  O2  UNK     1      32.480  -4.668  35.803  1.00  0.00    -0.310 OA
BRANCH  25  26
HETATM   26  C12 UNK     1      31.885  -3.753  36.619  1.00  0.00     0.255 C 
HETATM   27  O5  UNK     1      31.874  -2.539  36.464  1.00  0.00    -0.266 OA
HETATM   28  C17 UNK     1      31.228  -4.458  37.767  1.00  0.00     0.126 C 
ENDBRANCH  25  26
ENDBRANCH   5  25
TORSDOF 5
ENDMDL
MODEL 7
REMARK VINA RESULT:      -6.8      2.611      4.831
REMARK  5 active torsions:
REMARK  status: ('A' for Active; 'I' for Inactive)
REMARK    1  A    between atoms: C12_19  and  O2_2 
REMARK    2  A    between atoms: C2_9  and  O2_2 
REMARK    3  A    between atoms: C13_20  and  O3_3 
REMARK    4  A    between atoms: C3_10  and  O3_3 
REMARK    5  A    between atoms: C13_20  and  C18_25 
ROOT
HETATM    1  O1  UNK     1      29.532  -9.498  34.912  1.00  0.00    -0.338 OA
HETATM    2  O4  UNK     1      27.297  -6.217  37.723  1.00  0.00    -0.274 OA
HETATM    3  O7  UNK     1      26.206  -4.720  39.069  1.00  0.00    -0.260 OA
HETATM    4  C1  UNK     1      30.684  -8.645  34.767  1.00  0.00     0.090 C 
HETATM    5  C2  UNK     1      30.286  -7.152  34.711  1.00  0.00     0.200 C 
HETATM    6  C3  UNK     1      29.445  -6.726  35.915  1.00  0.00     0.203 C 
HETATM    7  C4  UNK     1      28.456  -7.794  36.299  1.00  0.00     0.042 A 
HETATM    8  C5  UNK     1      28.557  -9.090  35.782  1.00  0.00     0.081 A 
HETATM    9  C6  UNK     1      31.347  -9.079  33.447  1.00  0.00     0.049 C 
HETATM   10  C7  UNK     1      31.670  -8.954  35.908  1.00  0.00     0.049 C 
HETATM   11  C8  UNK     1      27.401  -7.522  37.185  1.00  0.00     0.101 A 
HETATM   12  C9  UNK     1      27.612 -10.066  36.123  1.00  0.00     0.038 A 
HETATM   13  C10 UNK     1      26.461  -8.488  37.543  1.00  0.00    -0.001 A 
HETATM   14  C11 UNK     1      26.570  -9.769  37.002  1.00  0.00     0.017 A 
HETATM   15  C14 UNK     1      25.394  -8.133  38.465  1.00  0.00     0.020 A 
HETATM   16  C15 UNK     1      26.288  -5.852  38.607  1.00  0.00     0.288 A 
HETATM   17  C16 UNK     1      25.313  -6.897  38.962  1.00  0.00     0.083 A 
ENDROOT
BRANCH   6  18
HETATM   18  O3  UNK     1      30.279  -6.460  37.037  1.00  0.00    -0.304 OA
BRANCH  18  19
HETATM   19  C13 UNK     1      30.653  -5.159  37.208  1.00  0.00     0.289 C 
HETATM   20  O6  UNK     1      29.911  -4.241  37.533  1.00  0.00    -0.260 OA
BRANCH  19  21
HETATM   21  C18 UNK     1      32.114  -5.012  36.929  1.00  0.00     0.009 C 
HETATM   22  C19 UNK     1      33.083  -5.717  37.830  1.00  0.00     0.054 C 
HETATM   23  C20 UNK     1      32.437  -4.220  35.891  1.00  0.00    -0.018 C 
HETATM   24  C21 UNK     1      33.809  -3.910  35.381  1.00  0.00     0.036 C 
ENDBRANCH  19  21
ENDBRANCH  18  19
ENDBRANCH   6  18
BRANCH   5  25
HETATM   25  O2  UNK     1      29.503  -6.889  33.542  1.00  0.00    -0.310 OA
BRANCH  25  26
HETATM   26  C12 UNK     1      29.837  -5.761  32.855  1.00  0.00     0.255 C 
HETATM   27  O5  UNK     1      30.898  -5.153  32.927  1.00  0.00    -0.266 OA
HETATM   28  C17 UNK     1      28.695  -5.353  31.974  1.00  0.00     0.126 C 
ENDBRANCH  25  26
ENDBRANCH   5  25
TORSDOF 5
ENDMDL
MODEL 8
REMARK VINA RESULT:      -6.8      3.805      7.447
REMARK  5 active torsions:
REMARK  status: ('A' for Active; 'I' for Inactive)
REMARK    1  A    between atoms: C12_19  and  O2_2 
REMARK    2  A    between atoms: C2_9  and  O2_2 
REMARK    3  A    between atoms: C13_20  and  O3_3 
REMARK    4  A    between atoms: C3_10  and  O3_3 
REMARK    5  A    between atoms: C13_20  and  C18_25 
ROOT
HETATM    1  O1  UNK     1      29.964  -7.854  32.247  1.00  0.00    -0.338 OA
HETATM    2  O4  UNK     1      34.693  -8.837  31.671  1.00  0.00    -0.274 OA
HETATM    3  O7  UNK     1      36.933  -9.257  31.446  1.00  0.00    -0.260 OA
HETATM    4  C1  UNK     1      29.591  -9.096  31.622  1.00  0.00     0.090 C 
HETATM    5  C2  UNK     1      30.563  -9.477  30.482  1.00  0.00     0.200 C 
HETATM    6  C3  UNK     1      32.020  -9.521  30.947  1.00  0.00     0.203 C 
HETATM    7  C4  UNK     1      32.324  -8.400  31.904  1.00  0.00     0.042 A 
HETATM    8  C5  UNK     1      31.297  -7.647  32.483  1.00  0.00     0.081 A 
HETATM    9  C6  UNK     1      28.173  -8.863  31.068  1.00  0.00     0.049 C 
HETATM   10  C7  UNK     1      29.495 -10.182  32.707  1.00  0.00     0.049 C 
HETATM   11  C8  UNK     1      33.647  -8.073  32.242  1.00  0.00     0.101 A 
HETATM   12  C9  UNK     1      31.595  -6.587  33.348  1.00  0.00     0.038 A 
HETATM   13  C10 UNK     1      33.958  -7.029  33.112  1.00  0.00    -0.001 A 
HETATM   14  C11 UNK     1      32.919  -6.280  33.665  1.00  0.00     0.017 A 
HETATM   15  C14 UNK     1      35.351  -6.747  33.416  1.00  0.00     0.020 A 
HETATM   16  C15 UNK     1      36.033  -8.590  31.945  1.00  0.00     0.288 A 
HETATM   17  C16 UNK     1      36.324  -7.479  32.867  1.00  0.00     0.083 A 
ENDROOT
BRANCH   6  18
HETATM   18  O3  UNK     1      32.299 -10.757  31.595  1.00  0.00    -0.304 OA
BRANCH  18  19
HETATM   19  C13 UNK     1      32.415 -11.846  30.781  1.00  0.00     0.289 C 
HETATM   20  O6  UNK     1      33.139 -11.927  29.799  1.00  0.00    -0.260 OA
BRANCH  19  21
HETATM   21  C18 UNK     1      31.513 -12.935  31.265  1.00  0.00     0.009 C 
HETATM   22  C19 UNK     1      30.263 -13.221  30.488  1.00  0.00     0.054 C 
HETATM   23  C20 UNK     1      31.895 -13.554  32.396  1.00  0.00    -0.018 C 
HETATM   24  C21 UNK     1      31.198 -14.681  33.091  1.00  0.00     0.036 C 
ENDBRANCH  19  21
ENDBRANCH  18  19
ENDBRANCH   6  18
BRANCH   5  25
HETATM   25  O2  UNK     1      30.492  -8.515  29.424  1.00  0.00    -0.310 OA
BRANCH  25  26
HETATM   26  C12 UNK     1      30.725  -9.002  28.173  1.00  0.00     0.255 C 
HETATM   27  O5  UNK     1      31.690  -8.751  27.463  1.00  0.00    -0.266 OA
HETATM   28  C17 UNK     1      29.605  -9.914  27.774  1.00  0.00     0.126 C 
ENDBRANCH  25  26
ENDBRANCH   5  25
TORSDOF 5
ENDMDL
MODEL 9
REMARK VINA RESULT:      -6.8      2.047      5.935
REMARK  5 active torsions:
REMARK  status: ('A' for Active; 'I' for Inactive)
REMARK    1  A    between atoms: C12_19  and  O2_2 
REMARK    2  A    between atoms: C2_9  and  O2_2 
REMARK    3  A    between atoms: C13_20  and  O3_3 
REMARK    4  A    between atoms: C3_10  and  O3_3 
REMARK    5  A    between atoms: C13_20  and  C18_25 
ROOT
HETATM    1  O1  UNK     1      33.589  -7.246  32.767  1.00  0.00    -0.338 OA
HETATM    2  O4  UNK     1      30.288  -6.033  36.128  1.00  0.00    -0.274 OA
HETATM    3  O7  UNK     1      28.769  -5.410  37.725  1.00  0.00    -0.260 OA
HETATM    4  C1  UNK     1      32.643  -8.095  32.091  1.00  0.00     0.090 C 
HETATM    5  C2  UNK     1      31.693  -8.800  33.087  1.00  0.00     0.200 C 
HETATM    6  C3  UNK     1      30.973  -7.811  34.005  1.00  0.00     0.203 C 
HETATM    7  C4  UNK     1      31.888  -6.698  34.438  1.00  0.00     0.042 A 
HETATM    8  C5  UNK     1      33.118  -6.489  33.806  1.00  0.00     0.081 A 
HETATM    9  C6  UNK     1      33.496  -9.130  31.333  1.00  0.00     0.049 C 
HETATM   10  C7  UNK     1      31.890  -7.256  31.045  1.00  0.00     0.049 C 
HETATM   11  C8  UNK     1      31.536  -5.837  35.491  1.00  0.00     0.101 A 
HETATM   12  C9  UNK     1      33.974  -5.468  34.239  1.00  0.00     0.038 A 
HETATM   13  C10 UNK     1      32.373  -4.809  35.924  1.00  0.00    -0.001 A 
HETATM   14  C11 UNK     1      33.603  -4.629  35.292  1.00  0.00     0.017 A 
HETATM   15  C14 UNK     1      31.943  -3.958  37.021  1.00  0.00     0.020 A 
HETATM   16  C15 UNK     1      29.852  -5.234  37.179  1.00  0.00     0.288 A 
HETATM   17  C16 UNK     1      30.763  -4.158  37.610  1.00  0.00     0.083 A 
ENDROOT
BRANCH   6  18
HETATM   18  O3  UNK     1      29.851  -7.241  33.340  1.00  0.00    -0.304 OA
BRANCH  18  19
HETATM   19  C13 UNK     1      28.751  -8.041  33.231  1.00  0.00     0.289 C 
HETATM   20  O6  UNK     1      28.321  -8.784  34.103  1.00  0.00    -0.260 OA
BRANCH  19  21
HETATM   21  C18 UNK     1      28.144  -7.882  31.874  1.00  0.00     0.009 C 
HETATM   22  C19 UNK     1      27.334  -6.651  31.598  1.00  0.00     0.054 C 
HETATM   23  C20 UNK     1      28.356  -8.894  31.014  1.00  0.00    -0.018 C 
HETATM   24  C21 UNK     1      27.884  -8.992  29.598  1.00  0.00     0.036 C 
ENDBRANCH  19  21
ENDBRANCH  18  19
ENDBRANCH   6  18
BRANCH   5  25
HETATM   25  O2  UNK     1      32.428  -9.692  33.930  1.00  0.00    -0.310 OA
BRANCH  25  26
HETATM   26  C12 UNK     1      31.702 -10.700  34.491  1.00  0.00     0.255 C 
HETATM   27  O5  UNK     1      31.679 -11.007  35.676  1.00  0.00    -0.266 OA
HETATM   28  C17 UNK     1      30.912 -11.400  33.427  1.00  0.00     0.126 C 
ENDBRANCH  25  26
ENDBRANCH   5  25
TORSDOF 5
ENDMDL
MODEL 10
REMARK VINA RESULT:      -6.8      3.782      6.107
REMARK  5 active torsions:
REMARK  status: ('A' for Active; 'I' for Inactive)
REMARK    1  A    between atoms: C12_19  and  O2_2 
REMARK    2  A    between atoms: C2_9  and  O2_2 
REMARK    3  A    between atoms: C13_20  and  O3_3 
REMARK    4  A    between atoms: C3_10  and  O3_3 
REMARK    5  A    between atoms: C13_20  and  C18_25 
ROOT
HETATM    1  O1  UNK     1      30.124 -11.622  32.270  1.00  0.00    -0.338 OA
HETATM    2  O4  UNK     1      30.078  -6.893  31.134  1.00  0.00    -0.274 OA
HETATM    3  O7  UNK     1      30.021  -4.655  30.653  1.00  0.00    -0.260 OA
HETATM    4  C1  UNK     1      31.265 -11.854  31.424  1.00  0.00     0.090 C 
HETATM    5  C2  UNK     1      31.226 -10.968  30.157  1.00  0.00     0.200 C 
HETATM    6  C3  UNK     1      31.089  -9.481  30.488  1.00  0.00     0.203 C 
HETATM    7  C4  UNK     1      30.143  -9.260  31.637  1.00  0.00     0.042 A 
HETATM    8  C5  UNK     1      29.724 -10.324  32.441  1.00  0.00     0.081 A 
HETATM    9  C6  UNK     1      31.195 -13.344  31.044  1.00  0.00     0.049 C 
HETATM   10  C7  UNK     1      32.543 -11.644  32.255  1.00  0.00     0.049 C 
HETATM   11  C8  UNK     1      29.650  -7.979  31.935  1.00  0.00     0.101 A 
HETATM   12  C9  UNK     1      28.819 -10.109  33.489  1.00  0.00     0.038 A 
HETATM   13  C10 UNK     1      28.758  -7.749  32.983  1.00  0.00    -0.001 A 
HETATM   14  C11 UNK     1      28.340  -8.827  33.761  1.00  0.00     0.017 A 
HETATM   15  C14 UNK     1      28.289  -6.396  33.231  1.00  0.00     0.020 A 
HETATM   16  C15 UNK     1      29.645  -5.590  31.351  1.00  0.00     0.288 A 
HETATM   17  C16 UNK     1      28.704  -5.385  32.465  1.00  0.00     0.083 A 
ENDROOT
BRANCH   6  18
HETATM   18  O3  UNK     1      32.355  -8.929  30.833  1.00  0.00    -0.304 OA
BRANCH  18  19
HETATM   19  C13 UNK     1      32.961  -8.176  29.869  1.00  0.00     0.289 C 
HETATM   20  O6  UNK     1      32.487  -7.905  28.774  1.00  0.00    -0.260 OA
BRANCH  19  21
HETATM   21  C18 UNK     1      34.305  -7.731  30.348  1.00  0.00     0.009 C 
HETATM   22  C19 UNK     1      35.045  -6.708  29.538  1.00  0.00     0.054 C 
HETATM   23  C20 UNK     1      34.755  -8.323  31.469  1.00  0.00    -0.018 C 
HETATM   24  C21 UNK     1      36.048  -8.060  32.174  1.00  0.00     0.036 C 
ENDBRANCH  19  21
ENDBRANCH  18  19
ENDBRANCH   6  18
BRANCH   5  25
HETATM   25  O2  UNK     1      30.104 -11.317  29.339  1.00  0.00    -0.310 OA
BRANCH  25  26
HETATM   26  C12 UNK     1      29.878 -10.497  28.274  1.00  0.00     0.255 C 
HETATM   27  O5  UNK     1      30.687 -10.190  27.408  1.00  0.00    -0.266 OA
HETATM   28  C17 UNK     1      28.461 -10.009  28.311  1.00  0.00     0.126 C 
ENDBRANCH  25  26
ENDBRANCH   5  25
TORSDOF 5
ENDMDL
