MODEL 1
REMARK VINA RESULT:      -8.0      0.000      0.000
REMARK  7 active torsions:
REMARK  status: ('A' for Active; 'I' for Inactive)
REMARK    1  A    between atoms: C12_19  and  O2_2 
REMARK    2  A    between atoms: C3_10  and  O2_2 
REMARK    3  A    between atoms: C13_20  and  O4_4 
REMARK    4  A    between atoms: C15_22  and  O4_4 
REMARK       I    between atoms: C10_17  and  N1_7 
REMARK    5  A    between atoms: C11_18  and  N1_7 
REMARK    6  A    between atoms: C10_17  and  C5_12 
REMARK    7  A    between atoms: C11_18  and  C13_20 
ROOT
HETATM    1  O1  UNK     1      18.884   0.612  32.253  1.00  0.00    -0.271 OA
HETATM    2  O3  UNK     1      17.979   2.699  32.467  1.00  0.00    -0.259 OA
HETATM    3  C1  UNK     1      19.845  -0.067  30.126  1.00  0.00     0.002 A 
HETATM    4  C2  UNK     1      19.529  -0.349  31.451  1.00  0.00     0.123 A 
HETATM    5  C3  UNK     1      19.834  -1.578  32.032  1.00  0.00     0.103 A 
HETATM    6  C4  UNK     1      19.497   1.236  29.581  1.00  0.00     0.037 A 
HETATM    7  C5  UNK     1      18.886   2.146  30.348  1.00  0.00     0.108 A 
HETATM    8  C6  UNK     1      20.486  -1.046  29.362  1.00  0.00     0.014 A 
HETATM    9  C7  UNK     1      20.472  -2.549  31.264  1.00  0.00     0.040 A 
HETATM   10  C8  UNK     1      18.539   1.869  31.760  1.00  0.00     0.304 A 
HETATM   11  C9  UNK     1      20.798  -2.283  29.932  1.00  0.00     0.004 A 
ENDROOT
BRANCH   7  12
HETATM   12  C10 UNK     1      18.577   3.431  29.709  1.00  0.00     0.258 C 
HETATM   13  O5  UNK     1      18.067   3.474  28.591  1.00  0.00    -0.267 OA
HETATM   14  N1  UNK     1      18.919   4.518  30.492  1.00  0.00    -0.347 N 
HETATM   15  H5  UNK     1      19.325   4.378  31.413  1.00  0.00     0.163 HD
BRANCH  14  16
HETATM   16  C11 UNK     1      18.714   5.886  30.075  1.00  0.00     0.233 C 
BRANCH  16  17
HETATM   17  C13 UNK     1      17.891   6.690  31.055  1.00  0.00     0.276 C 
HETATM   18  O6  UNK     1      17.076   7.529  30.688  1.00  0.00    -0.263 OA
BRANCH  17  19
HETATM   19  O4  UNK     1      18.166   6.371  32.350  1.00  0.00    -0.321 OA
BRANCH  19  20
HETATM   20  C15 UNK     1      18.931   7.336  33.080  1.00  0.00     0.174 C 
HETATM   21  C16 UNK     1      20.362   6.852  33.186  1.00  0.00     0.034 C 
ENDBRANCH  19  20
ENDBRANCH  17  19
ENDBRANCH  16  17
ENDBRANCH  14  16
ENDBRANCH   7  12
BRANCH   5  22
HETATM   22  O2  UNK     1      19.519  -1.841  33.329  1.00  0.00    -0.349 OA
BRANCH  22  23
HETATM   23  C12 UNK     1      20.452  -2.615  34.082  1.00  0.00     0.171 C 
HETATM   24  C14 UNK     1      20.243  -2.344  35.556  1.00  0.00     0.034 C 
ENDBRANCH  22  23
ENDBRANCH   5  22
TORSDOF 7
ENDMDL
MODEL 2
REMARK VINA RESULT:      -7.9      4.731     10.292
REMARK  7 active torsions:
REMARK  status: ('A' for Active; 'I' for Inactive)
REMARK    1  A    between atoms: C12_19  and  O2_2 
REMARK    2  A    between atoms: C3_10  and  O2_2 
REMARK    3  A    between atoms: C13_20  and  O4_4 
REMARK    4  A    between atoms: C15_22  and  O4_4 
REMARK       I    between atoms: C10_17  and  N1_7 
REMARK    5  A    between atoms: C11_18  and  N1_7 
REMARK    6  A    between atoms: C10_17  and  C5_12 
REMARK    7  A    between atoms: C11_18  and  C13_20 
ROOT
HETATM    1  O1  UNK     1      19.789  -1.157  34.830  1.00  0.00    -0.271 OA
HETATM    2  O3  UNK     1      20.855  -2.947  33.893  1.00  0.00    -0.259 OA
HETATM    3  C1  UNK     1      18.674  -1.412  36.975  1.00  0.00     0.002 A 
HETATM    4  C2  UNK     1      19.035  -0.619  35.891  1.00  0.00     0.123 A 
HETATM    5  C3  UNK     1      18.672   0.724  35.811  1.00  0.00     0.103 A 
HETATM    6  C4  UNK     1      19.085  -2.807  36.995  1.00  0.00     0.037 A 
HETATM    7  C5  UNK     1      19.802  -3.313  35.985  1.00  0.00     0.108 A 
HETATM    8  C6  UNK     1      17.927  -0.842  38.009  1.00  0.00     0.014 A 
HETATM    9  C7  UNK     1      17.926   1.285  36.846  1.00  0.00     0.040 A 
HETATM   10  C8  UNK     1      20.199  -2.488  34.821  1.00  0.00     0.304 A 
HETATM   11  C9  UNK     1      17.555   0.504  37.942  1.00  0.00     0.004 A 
ENDROOT
BRANCH   7  12
HETATM   12  C10 UNK     1      20.170  -4.730  36.096  1.00  0.00     0.258 C 
HETATM   13  O5  UNK     1      21.017  -5.101  36.907  1.00  0.00    -0.267 OA
HETATM   14  N1  UNK     1      19.475  -5.537  35.214  1.00  0.00    -0.347 N 
HETATM   15  H5  UNK     1      18.782  -5.136  34.589  1.00  0.00     0.163 HD
BRANCH  14  16
HETATM   16  C11 UNK     1      19.668  -6.967  35.135  1.00  0.00     0.233 C 
BRANCH  16  17
HETATM   17  C13 UNK     1      20.704  -7.373  34.113  1.00  0.00     0.276 C 
HETATM   18  O6  UNK     1      20.963  -6.678  33.136  1.00  0.00    -0.263 OA
BRANCH  17  19
HETATM   19  O4  UNK     1      21.288  -8.566  34.410  1.00  0.00    -0.321 OA
BRANCH  19  20
HETATM   20  C15 UNK     1      21.653  -8.757  35.781  1.00  0.00     0.174 C 
HETATM   21  C16 UNK     1      21.647 -10.239  36.091  1.00  0.00     0.034 C 
ENDBRANCH  19  20
ENDBRANCH  17  19
ENDBRANCH  16  17
ENDBRANCH  14  16
ENDBRANCH   7  12
BRANCH   5  22
HETATM   22  O2  UNK     1      19.031   1.488  34.746  1.00  0.00    -0.349 OA
BRANCH  22  23
HETATM   23  C12 UNK     1      17.979   2.090  33.991  1.00  0.00     0.171 C 
HETATM   24  C14 UNK     1      18.278   3.563  33.815  1.00  0.00     0.034 C 
ENDBRANCH  22  23
ENDBRANCH   5  22
TORSDOF 7
ENDMDL
MODEL 3
REMARK VINA RESULT:      -7.8      2.650      5.494
REMARK  7 active torsions:
REMARK  status: ('A' for Active; 'I' for Inactive)
REMARK    1  A    between atoms: C12_19  and  O2_2 
REMARK    2  A    between atoms: C3_10  and  O2_2 
REMARK    3  A    between atoms: C13_20  and  O4_4 
REMARK    4  A    between atoms: C15_22  and  O4_4 
REMARK       I    between atoms: C10_17  and  N1_7 
REMARK    5  A    between atoms: C11_18  and  N1_7 
REMARK    6  A    between atoms: C10_17  and  C5_12 
REMARK    7  A    between atoms: C11_18  and  C13_20 
ROOT
HETATM    1  O1  UNK     1      18.544  -0.713  34.530  1.00  0.00    -0.271 OA
HETATM    2  O3  UNK     1      18.748  -0.187  32.316  1.00  0.00    -0.259 OA
HETATM    3  C1  UNK     1      17.985   1.029  36.131  1.00  0.00     0.002 A 
HETATM    4  C2  UNK     1      18.281  -0.302  35.851  1.00  0.00     0.123 A 
HETATM    5  C3  UNK     1      18.328  -1.269  36.853  1.00  0.00     0.103 A 
HETATM    6  C4  UNK     1      17.953   1.988  35.039  1.00  0.00     0.037 A 
HETATM    7  C5  UNK     1      18.202   1.591  33.785  1.00  0.00     0.108 A 
HETATM    8  C6  UNK     1      17.730   1.399  37.454  1.00  0.00     0.014 A 
HETATM    9  C7  UNK     1      18.073  -0.892  38.169  1.00  0.00     0.040 A 
HETATM   10  C8  UNK     1      18.519   0.181  33.463  1.00  0.00     0.304 A 
HETATM   11  C9  UNK     1      17.774   0.439  38.469  1.00  0.00     0.004 A 
ENDROOT
BRANCH   7  12
HETATM   12  C10 UNK     1      18.146   2.632  32.752  1.00  0.00     0.258 C 
HETATM   13  O5  UNK     1      18.219   3.822  33.050  1.00  0.00    -0.267 OA
HETATM   14  N1  UNK     1      18.006   2.116  31.475  1.00  0.00    -0.347 N 
HETATM   15  H5  UNK     1      17.969   1.112  31.331  1.00  0.00     0.163 HD
BRANCH  14  16
HETATM   16  C11 UNK     1      17.925   2.945  30.295  1.00  0.00     0.233 C 
BRANCH  16  17
HETATM   17  C13 UNK     1      18.359   2.232  29.036  1.00  0.00     0.276 C 
HETATM   18  O6  UNK     1      17.809   2.422  27.956  1.00  0.00    -0.263 OA
BRANCH  17  19
HETATM   19  O4  UNK     1      19.400   1.382  29.252  1.00  0.00    -0.321 OA
BRANCH  19  20
HETATM   20  C15 UNK     1      19.322   0.119  28.583  1.00  0.00     0.174 C 
HETATM   21  C16 UNK     1      20.543  -0.703  28.938  1.00  0.00     0.034 C 
ENDBRANCH  19  20
ENDBRANCH  17  19
ENDBRANCH  16  17
ENDBRANCH  14  16
ENDBRANCH   7  12
BRANCH   5  22
HETATM   22  O2  UNK     1      18.619  -2.566  36.565  1.00  0.00    -0.349 OA
BRANCH  22  23
HETATM   23  C12 UNK     1      19.936  -3.023  36.874  1.00  0.00     0.171 C 
HETATM   24  C14 UNK     1      19.969  -4.533  36.784  1.00  0.00     0.034 C 
ENDBRANCH  22  23
ENDBRANCH   5  22
TORSDOF 7
ENDMDL
MODEL 4
REMARK VINA RESULT:      -7.6      3.265      8.434
REMARK  7 active torsions:
REMARK  status: ('A' for Active; 'I' for Inactive)
REMARK    1  A    between atoms: C12_19  and  O2_2 
REMARK    2  A    between atoms: C3_10  and  O2_2 
REMARK    3  A    between atoms: C13_20  and  O4_4 
REMARK    4  A    between atoms: C15_22  and  O4_4 
REMARK       I    between atoms: C10_17  and  N1_7 
REMARK    5  A    between atoms: C11_18  and  N1_7 
REMARK    6  A    between atoms: C10_17  and  C5_12 
REMARK    7  A    between atoms: C11_18  and  C13_20 
ROOT
HETATM    1  O1  UNK     1      18.775   0.151  32.557  1.00  0.00    -0.271 OA
HETATM    2  O3  UNK     1      18.582  -0.181  34.809  1.00  0.00    -0.259 OA
HETATM    3  C1  UNK     1      20.272  -1.259  31.260  1.00  0.00     0.002 A 
HETATM    4  C2  UNK     1      19.354  -0.215  31.327  1.00  0.00     0.123 A 
HETATM    5  C3  UNK     1      18.974   0.501  30.193  1.00  0.00     0.103 A 
HETATM    6  C4  UNK     1      20.626  -1.964  32.482  1.00  0.00     0.037 A 
HETATM    7  C5  UNK     1      20.072  -1.613  33.648  1.00  0.00     0.108 A 
HETATM    8  C6  UNK     1      20.824  -1.593  30.021  1.00  0.00     0.014 A 
HETATM    9  C7  UNK     1      19.529   0.161  28.962  1.00  0.00     0.040 A 
HETATM   10  C8  UNK     1      19.093  -0.507  33.743  1.00  0.00     0.304 A 
HETATM   11  C9  UNK     1      20.452  -0.883  28.876  1.00  0.00     0.004 A 
ENDROOT
BRANCH   7  12
HETATM   12  C10 UNK     1      20.491  -2.384  34.824  1.00  0.00     0.258 C 
HETATM   13  O5  UNK     1      21.643  -2.314  35.247  1.00  0.00    -0.267 OA
HETATM   14  N1  UNK     1      19.471  -3.154  35.355  1.00  0.00    -0.347 N 
HETATM   15  H5  UNK     1      18.545  -3.133  34.939  1.00  0.00     0.163 HD
BRANCH  14  16
HETATM   16  C11 UNK     1      19.644  -4.001  36.513  1.00  0.00     0.233 C 
BRANCH  16  17
HETATM   17  C13 UNK     1      19.732  -5.469  36.169  1.00  0.00     0.276 C 
HETATM   18  O6  UNK     1      20.262  -5.866  35.136  1.00  0.00    -0.263 OA
BRANCH  17  19
HETATM   19  O4  UNK     1      19.167  -6.261  37.121  1.00  0.00    -0.321 OA
BRANCH  19  20
HETATM   20  C15 UNK     1      20.072  -7.088  37.861  1.00  0.00     0.174 C 
HETATM   21  C16 UNK     1      20.087  -6.634  39.305  1.00  0.00     0.034 C 
ENDBRANCH  19  20
ENDBRANCH  17  19
ENDBRANCH  16  17
ENDBRANCH  14  16
ENDBRANCH   7  12
BRANCH   5  22
HETATM   22  O2  UNK     1      18.076   1.519  30.273  1.00  0.00    -0.349 OA
BRANCH  22  23
HETATM   23  C12 UNK     1      18.444   2.760  29.672  1.00  0.00     0.171 C 
HETATM   24  C14 UNK     1      18.774   3.757  30.762  1.00  0.00     0.034 C 
ENDBRANCH  22  23
ENDBRANCH   5  22
TORSDOF 7
ENDMDL
MODEL 5
REMARK VINA RESULT:      -7.6      4.717     10.313
REMARK  7 active torsions:
REMARK  status: ('A' for Active; 'I' for Inactive)
REMARK    1  A    between atoms: C12_19  and  O2_2 
REMARK    2  A    between atoms: C3_10  and  O2_2 
REMARK    3  A    between atoms: C13_20  and  O4_4 
REMARK    4  A    between atoms: C15_22  and  O4_4 
REMARK       I    between atoms: C10_17  and  N1_7 
REMARK    5  A    between atoms: C11_18  and  N1_7 
REMARK    6  A    between atoms: C10_17  and  C5_12 
REMARK    7  A    between atoms: C11_18  and  C13_20 
ROOT
HETATM    1  O1  UNK     1      19.720  -1.025  34.884  1.00  0.00    -0.271 OA
HETATM    2  O3  UNK     1      20.814  -2.879  34.119  1.00  0.00    -0.259 OA
HETATM    3  C1  UNK     1      18.520  -1.125  36.996  1.00  0.00     0.002 A 
HETATM    4  C2  UNK     1      18.928  -0.411  35.873  1.00  0.00     0.123 A 
HETATM    5  C3  UNK     1      18.574   0.923  35.684  1.00  0.00     0.103 A 
HETATM    6  C4  UNK     1      18.923  -2.516  37.130  1.00  0.00     0.037 A 
HETATM    7  C5  UNK     1      19.677  -3.094  36.188  1.00  0.00     0.108 A 
HETATM    8  C6  UNK     1      17.735  -0.482  37.956  1.00  0.00     0.014 A 
HETATM    9  C7  UNK     1      17.791   1.557  36.646  1.00  0.00     0.040 A 
HETATM   10  C8  UNK     1      20.124  -2.354  34.985  1.00  0.00     0.304 A 
HETATM   11  C9  UNK     1      17.373   0.856  37.779  1.00  0.00     0.004 A 
ENDROOT
BRANCH   7  12
HETATM   12  C10 UNK     1      20.034  -4.500  36.413  1.00  0.00     0.258 C 
HETATM   13  O5  UNK     1      20.642  -4.842  37.425  1.00  0.00    -0.267 OA
HETATM   14  N1  UNK     1      19.616  -5.332  35.390  1.00  0.00    -0.347 N 
HETATM   15  H5  UNK     1      19.106  -4.953  34.598  1.00  0.00     0.163 HD
BRANCH  14  16
HETATM   16  C11 UNK     1      19.855  -6.757  35.386  1.00  0.00     0.233 C 
BRANCH  16  17
HETATM   17  C13 UNK     1      18.594  -7.572  35.552  1.00  0.00     0.276 C 
HETATM   18  O6  UNK     1      17.578  -7.341  34.904  1.00  0.00    -0.263 OA
BRANCH  17  19
HETATM   19  O4  UNK     1      18.729  -8.556  36.482  1.00  0.00    -0.321 OA
BRANCH  19  20
HETATM   20  C15 UNK     1      19.110  -8.126  37.793  1.00  0.00     0.174 C 
HETATM   21  C16 UNK     1      19.295  -9.342  38.676  1.00  0.00     0.034 C 
ENDBRANCH  19  20
ENDBRANCH  17  19
ENDBRANCH  16  17
ENDBRANCH  14  16
ENDBRANCH   7  12
BRANCH   5  22
HETATM   22  O2  UNK     1      18.980   1.609  34.583  1.00  0.00    -0.349 OA
BRANCH  22  23
HETATM   23  C12 UNK     1      17.964   2.217  33.783  1.00  0.00     0.171 C 
HETATM   24  C14 UNK     1      18.286   3.685  33.609  1.00  0.00     0.034 C 
ENDBRANCH  22  23
ENDBRANCH   5  22
TORSDOF 7
ENDMDL
MODEL 6
REMARK VINA RESULT:      -7.5      2.754      4.213
REMARK  7 active torsions:
REMARK  status: ('A' for Active; 'I' for Inactive)
REMARK    1  A    between atoms: C12_19  and  O2_2 
REMARK    2  A    between atoms: C3_10  and  O2_2 
REMARK    3  A    between atoms: C13_20  and  O4_4 
REMARK    4  A    between atoms: C15_22  and  O4_4 
REMARK       I    between atoms: C10_17  and  N1_7 
REMARK    5  A    between atoms: C11_18  and  N1_7 
REMARK    6  A    between atoms: C10_17  and  C5_12 
REMARK    7  A    between atoms: C11_18  and  C13_20 
ROOT
HETATM    1  O1  UNK     1      18.203   1.869  32.128  1.00  0.00    -0.271 OA
HETATM    2  O3  UNK     1      18.125   3.506  30.536  1.00  0.00    -0.259 OA
HETATM    3  C1  UNK     1      18.363   2.481  34.474  1.00  0.00     0.002 A 
HETATM    4  C2  UNK     1      18.284   1.506  33.486  1.00  0.00     0.123 A 
HETATM    5  C3  UNK     1      18.282   0.147  33.795  1.00  0.00     0.103 A 
HETATM    6  C4  UNK     1      18.363   3.882  34.083  1.00  0.00     0.037 A 
HETATM    7  C5  UNK     1      18.283   4.221  32.791  1.00  0.00     0.108 A 
HETATM    8  C6  UNK     1      18.443   2.083  35.811  1.00  0.00     0.014 A 
HETATM    9  C7  UNK     1      18.362  -0.243  35.130  1.00  0.00     0.040 A 
HETATM   10  C8  UNK     1      18.198   3.201  31.722  1.00  0.00     0.304 A 
HETATM   11  C9  UNK     1      18.442   0.723  36.135  1.00  0.00     0.004 A 
ENDROOT
BRANCH   7  12
HETATM   12  C10 UNK     1      18.288   5.659  32.496  1.00  0.00     0.258 C 
HETATM   13  O5  UNK     1      19.186   6.163  31.824  1.00  0.00    -0.267 OA
HETATM   14  N1  UNK     1      17.208   6.325  33.047  1.00  0.00    -0.347 N 
HETATM   15  H5  UNK     1      16.508   5.815  33.578  1.00  0.00     0.163 HD
BRANCH  14  16
HETATM   16  C11 UNK     1      16.998   7.747  32.895  1.00  0.00     0.233 C 
BRANCH  16  17
HETATM   17  C13 UNK     1      15.918   8.085  31.894  1.00  0.00     0.276 C 
HETATM   18  O6  UNK     1      16.178   8.460  30.755  1.00  0.00    -0.263 OA
BRANCH  17  19
HETATM   19  O4  UNK     1      14.667   7.927  32.406  1.00  0.00    -0.321 OA
BRANCH  19  20
HETATM   20  C15 UNK     1      14.401   8.622  33.629  1.00  0.00     0.174 C 
HETATM   21  C16 UNK     1      14.081  10.068  33.315  1.00  0.00     0.034 C 
ENDBRANCH  19  20
ENDBRANCH  17  19
ENDBRANCH  16  17
ENDBRANCH  14  16
ENDBRANCH   7  12
BRANCH   5  22
HETATM   22  O2  UNK     1      18.205  -0.797  32.818  1.00  0.00    -0.349 OA
BRANCH  22  23
HETATM   23  C12 UNK     1      19.375  -1.576  32.571  1.00  0.00     0.171 C 
HETATM   24  C14 UNK     1      19.852  -1.317  31.159  1.00  0.00     0.034 C 
ENDBRANCH  22  23
ENDBRANCH   5  22
TORSDOF 7
ENDMDL
MODEL 7
REMARK VINA RESULT:      -7.5      1.924      7.301
REMARK  7 active torsions:
REMARK  status: ('A' for Active; 'I' for Inactive)
REMARK    1  A    between atoms: C12_19  and  O2_2 
REMARK    2  A    between atoms: C3_10  and  O2_2 
REMARK    3  A    between atoms: C13_20  and  O4_4 
REMARK    4  A    between atoms: C15_22  and  O4_4 
REMARK       I    between atoms: C10_17  and  N1_7 
REMARK    5  A    between atoms: C11_18  and  N1_7 
REMARK    6  A    between atoms: C10_17  and  C5_12 
REMARK    7  A    between atoms: C11_18  and  C13_20 
ROOT
HETATM    1  O1  UNK     1      17.951   3.257  32.797  1.00  0.00    -0.271 OA
HETATM    2  O3  UNK     1      18.085   1.015  33.218  1.00  0.00    -0.259 OA
HETATM    3  C1  UNK     1      18.794   4.136  30.693  1.00  0.00     0.002 A 
HETATM    4  C2  UNK     1      18.192   4.341  31.931  1.00  0.00     0.123 A 
HETATM    5  C3  UNK     1      17.806   5.610  32.358  1.00  0.00     0.103 A 
HETATM    6  C4  UNK     1      19.173   2.785  30.310  1.00  0.00     0.037 A 
HETATM    7  C5  UNK     1      18.940   1.759  31.136  1.00  0.00     0.108 A 
HETATM    8  C6  UNK     1      19.016   5.236  29.861  1.00  0.00     0.014 A 
HETATM    9  C7  UNK     1      18.032   6.701  31.523  1.00  0.00     0.040 A 
HETATM   10  C8  UNK     1      18.300   1.952  32.457  1.00  0.00     0.304 A 
HETATM   11  C9  UNK     1      18.635   6.515  30.277  1.00  0.00     0.004 A 
ENDROOT
BRANCH   7  12
HETATM   12  C10 UNK     1      19.357   0.434  30.660  1.00  0.00     0.258 C 
HETATM   13  O5  UNK     1      19.217   0.115  29.481  1.00  0.00    -0.267 OA
HETATM   14  N1  UNK     1      19.894  -0.354  31.662  1.00  0.00    -0.347 N 
HETATM   15  H5  UNK     1      19.979   0.008  32.607  1.00  0.00     0.163 HD
BRANCH  14  16
HETATM   16  C11 UNK     1      20.371  -1.699  31.436  1.00  0.00     0.233 C 
BRANCH  16  17
HETATM   17  C13 UNK     1      20.693  -2.438  32.713  1.00  0.00     0.276 C 
HETATM   18  O6  UNK     1      21.368  -3.463  32.722  1.00  0.00    -0.263 OA
BRANCH  17  19
HETATM   19  O4  UNK     1      20.154  -1.840  33.811  1.00  0.00    -0.321 OA
BRANCH  19  20
HETATM   20  C15 UNK     1      20.182  -2.610  35.017  1.00  0.00     0.174 C 
HETATM   21  C16 UNK     1      19.374  -1.894  36.079  1.00  0.00     0.034 C 
ENDBRANCH  19  20
ENDBRANCH  17  19
ENDBRANCH  16  17
ENDBRANCH  14  16
ENDBRANCH   7  12
BRANCH   5  22
HETATM   22  O2  UNK     1      17.219   5.796  33.570  1.00  0.00    -0.349 OA
BRANCH  22  23
HETATM   23  C12 UNK     1      16.513   7.021  33.771  1.00  0.00     0.171 C 
HETATM   24  C14 UNK     1      16.899   7.597  35.116  1.00  0.00     0.034 C 
ENDBRANCH  22  23
ENDBRANCH   5  22
TORSDOF 7
ENDMDL
MODEL 8
REMARK VINA RESULT:      -7.5      2.694      8.597
REMARK  7 active torsions:
REMARK  status: ('A' for Active; 'I' for Inactive)
REMARK    1  A    between atoms: C12_19  and  O2_2 
REMARK    2  A    between atoms: C3_10  and  O2_2 
REMARK    3  A    between atoms: C13_20  and  O4_4 
REMARK    4  A    between atoms: C15_22  and  O4_4 
REMARK       I    between atoms: C10_17  and  N1_7 
REMARK    5  A    between atoms: C11_18  and  N1_7 
REMARK    6  A    between atoms: C10_17  and  C5_12 
REMARK    7  A    between atoms: C11_18  and  C13_20 
ROOT
HETATM    1  O1  UNK     1      16.898   7.737  32.884  1.00  0.00    -0.271 OA
HETATM    2  O3  UNK     1      15.847   5.856  32.126  1.00  0.00    -0.259 OA
HETATM    3  C1  UNK     1      19.183   7.590  33.698  1.00  0.00     0.002 A 
HETATM    4  C2  UNK     1      18.046   8.345  33.427  1.00  0.00     0.123 A 
HETATM    5  C3  UNK     1      17.998   9.715  33.678  1.00  0.00     0.103 A 
HETATM    6  C4  UNK     1      19.166   6.164  33.414  1.00  0.00     0.037 A 
HETATM    7  C5  UNK     1      18.073   5.593  32.896  1.00  0.00     0.108 A 
HETATM    8  C6  UNK     1      20.304   8.228  34.236  1.00  0.00     0.014 A 
HETATM    9  C7  UNK     1      19.119  10.343  34.215  1.00  0.00     0.040 A 
HETATM   10  C8  UNK     1      16.851   6.375  32.599  1.00  0.00     0.304 A 
HETATM   11  C9  UNK     1      20.269   9.602  34.493  1.00  0.00     0.004 A 
ENDROOT
BRANCH   7  12
HETATM   12  C10 UNK     1      18.153   4.149  32.643  1.00  0.00     0.258 C 
HETATM   13  O5  UNK     1      18.052   3.340  33.563  1.00  0.00    -0.267 OA
HETATM   14  N1  UNK     1      18.346   3.847  31.307  1.00  0.00    -0.347 N 
HETATM   15  H5  UNK     1      18.403   4.590  30.617  1.00  0.00     0.163 HD
BRANCH  14  16
HETATM   16  C11 UNK     1      18.459   2.493  30.814  1.00  0.00     0.233 C 
BRANCH  16  17
HETATM   17  C13 UNK     1      18.458   2.408  29.306  1.00  0.00     0.276 C 
HETATM   18  O6  UNK     1      18.120   3.352  28.599  1.00  0.00    -0.263 OA
BRANCH  17  19
HETATM   19  O4  UNK     1      18.865   1.190  28.853  1.00  0.00    -0.321 OA
BRANCH  19  20
HETATM   20  C15 UNK     1      19.751   0.469  29.716  1.00  0.00     0.174 C 
HETATM   21  C16 UNK     1      20.378  -0.669  28.939  1.00  0.00     0.034 C 
ENDBRANCH  19  20
ENDBRANCH  17  19
ENDBRANCH  16  17
ENDBRANCH  14  16
ENDBRANCH   7  12
BRANCH   5  22
HETATM   22  O2  UNK     1      16.879  10.440  33.408  1.00  0.00    -0.349 OA
BRANCH  22  23
HETATM   23  C12 UNK     1      15.997  10.706  34.499  1.00  0.00     0.171 C 
HETATM   24  C14 UNK     1      14.613  10.204  34.147  1.00  0.00     0.034 C 
ENDBRANCH  22  23
ENDBRANCH   5  22
TORSDOF 7
ENDMDL
MODEL 9
REMARK VINA RESULT:      -7.5      2.081      3.767
REMARK  7 active torsions:
REMARK  status: ('A' for Active; 'I' for Inactive)
REMARK    1  A    between atoms: C12_19  and  O2_2 
REMARK    2  A    between atoms: C3_10  and  O2_2 
REMARK    3  A    between atoms: C13_20  and  O4_4 
REMARK    4  A    between atoms: C15_22  and  O4_4 
REMARK       I    between atoms: C10_17  and  N1_7 
REMARK    5  A    between atoms: C11_18  and  N1_7 
REMARK    6  A    between atoms: C10_17  and  C5_12 
REMARK    7  A    between atoms: C11_18  and  C13_20 
ROOT
HETATM    1  O1  UNK     1      18.167   1.399  32.443  1.00  0.00    -0.271 OA
HETATM    2  O3  UNK     1      17.899   3.293  31.195  1.00  0.00    -0.259 OA
HETATM    3  C1  UNK     1      18.488   1.580  34.846  1.00  0.00     0.002 A 
HETATM    4  C2  UNK     1      18.370   0.799  33.701  1.00  0.00     0.123 A 
HETATM    5  C3  UNK     1      18.445  -0.592  33.751  1.00  0.00     0.103 A 
HETATM    6  C4  UNK     1      18.401   3.027  34.723  1.00  0.00     0.037 A 
HETATM    7  C5  UNK     1      18.207   3.592  33.526  1.00  0.00     0.108 A 
HETATM    8  C6  UNK     1      18.689   0.949  36.076  1.00  0.00     0.014 A 
HETATM    9  C7  UNK     1      18.646  -1.214  34.981  1.00  0.00     0.040 A 
HETATM   10  C8  UNK     1      18.077   2.781  32.294  1.00  0.00     0.304 A 
HETATM   11  C9  UNK     1      18.767  -0.445  36.141  1.00  0.00     0.004 A 
ENDROOT
BRANCH   7  12
HETATM   12  C10 UNK     1      18.131   5.057  33.504  1.00  0.00     0.258 C 
HETATM   13  O5  UNK     1      19.018   5.743  34.010  1.00  0.00    -0.267 OA
HETATM   14  N1  UNK     1      16.993   5.529  32.875  1.00  0.00    -0.347 N 
HETATM   15  H5  UNK     1      16.323   4.879  32.475  1.00  0.00     0.163 HD
BRANCH  14  16
HETATM   16  C11 UNK     1      16.697   6.936  32.732  1.00  0.00     0.233 C 
BRANCH  16  17
HETATM   17  C13 UNK     1      17.154   7.509  31.411  1.00  0.00     0.276 C 
HETATM   18  O6  UNK     1      16.402   8.150  30.684  1.00  0.00    -0.263 OA
BRANCH  17  19
HETATM   19  O4  UNK     1      18.459   7.228  31.146  1.00  0.00    -0.321 OA
BRANCH  19  20
HETATM   20  C15 UNK     1      18.693   6.308  30.074  1.00  0.00     0.174 C 
HETATM   21  C16 UNK     1      20.109   5.783  30.176  1.00  0.00     0.034 C 
ENDBRANCH  19  20
ENDBRANCH  17  19
ENDBRANCH  16  17
ENDBRANCH  14  16
ENDBRANCH   7  12
BRANCH   5  22
HETATM   22  O2  UNK     1      18.328  -1.343  32.624  1.00  0.00    -0.349 OA
BRANCH  22  23
HETATM   23  C12 UNK     1      19.450  -1.375  31.742  1.00  0.00     0.171 C 
HETATM   24  C14 UNK     1      20.532  -2.242  32.350  1.00  0.00     0.034 C 
ENDBRANCH  22  23
ENDBRANCH   5  22
TORSDOF 7
ENDMDL
MODEL 10
REMARK VINA RESULT:      -7.4      2.487      7.595
REMARK  7 active torsions:
REMARK  status: ('A' for Active; 'I' for Inactive)
REMARK    1  A    between atoms: C12_19  and  O2_2 
REMARK    2  A    between atoms: C3_10  and  O2_2 
REMARK    3  A    between atoms: C13_20  and  O4_4 
REMARK    4  A    between atoms: C15_22  and  O4_4 
REMARK       I    between atoms: C10_17  and  N1_7 
REMARK    5  A    between atoms: C11_18  and  N1_7 
REMARK    6  A    between atoms: C10_17  and  C5_12 
REMARK    7  A    between atoms: C11_18  and  C13_20 
ROOT
HETATM    1  O1  UNK     1      18.289   3.637  34.407  1.00  0.00    -0.271 OA
HETATM    2  O3  UNK     1      18.075   2.128  36.108  1.00  0.00    -0.259 OA
HETATM    3  C1  UNK     1      18.471   2.846  32.116  1.00  0.00     0.002 A 
HETATM    4  C2  UNK     1      18.425   3.894  33.029  1.00  0.00     0.123 A 
HETATM    5  C3  UNK     1      18.511   5.225  32.624  1.00  0.00     0.103 A 
HETATM    6  C4  UNK     1      18.378   1.480  32.607  1.00  0.00     0.037 A 
HETATM    7  C5  UNK     1      18.247   1.242  33.917  1.00  0.00     0.108 A 
HETATM    8  C6  UNK     1      18.607   3.140  30.757  1.00  0.00     0.014 A 
HETATM    9  C7  UNK     1      18.646   5.510  31.267  1.00  0.00     0.040 A 
HETATM   10  C8  UNK     1      18.195   2.341  34.907  1.00  0.00     0.304 A 
HETATM   11  C9  UNK     1      18.694   4.470  30.336  1.00  0.00     0.004 A 
ENDROOT
BRANCH   7  12
HETATM   12  C10 UNK     1      18.159  -0.169  34.314  1.00  0.00     0.258 C 
HETATM   13  O5  UNK     1      17.239  -0.881  33.917  1.00  0.00    -0.267 OA
HETATM   14  N1  UNK     1      19.192  -0.558  35.148  1.00  0.00    -0.347 N 
HETATM   15  H5  UNK     1      19.916   0.105  35.411  1.00  0.00     0.163 HD
BRANCH  14  16
HETATM   16  C11 UNK     1      19.319  -1.898  35.674  1.00  0.00     0.233 C 
BRANCH  16  17
HETATM   17  C13 UNK     1      20.255  -2.767  34.867  1.00  0.00     0.276 C 
HETATM   18  O6  UNK     1      20.353  -3.975  35.060  1.00  0.00    -0.263 OA
BRANCH  17  19
HETATM   19  O4  UNK     1      20.950  -2.058  33.936  1.00  0.00    -0.321 OA
BRANCH  19  20
HETATM   20  C15 UNK     1      20.969  -2.615  32.617  1.00  0.00     0.174 C 
HETATM   21  C16 UNK     1      20.204  -1.699  31.685  1.00  0.00     0.034 C 
ENDBRANCH  19  20
ENDBRANCH  17  19
ENDBRANCH  16  17
ENDBRANCH  14  16
ENDBRANCH   7  12
BRANCH   5  22
HETATM   22  O2  UNK     1      18.465   6.240  33.527  1.00  0.00    -0.349 OA
BRANCH  22  23
HETATM   23  C12 UNK     1      19.084   7.471  33.155  1.00  0.00     0.171 C 
HETATM   24  C14 UNK     1      19.481   8.222  34.408  1.00  0.00     0.034 C 
ENDBRANCH  22  23
ENDBRANCH   5  22
TORSDOF 7
ENDMDL
