MODEL 1
REMARK VINA RESULT:      -9.3      0.000      0.000
REMARK  5 active torsions:
REMARK  status: ('A' for Active; 'I' for Inactive)
REMARK    1  A    between atoms: C17_23  and  O2_5 
REMARK    2  A    between atoms: C19_25  and  O2_5 
REMARK    3  A    between atoms: C16_22  and  O3_6 
REMARK    4  A    between atoms: C7_13  and  C9_15 
REMARK    5  A    between atoms: C11_17  and  C17_23 
ROOT
HETATM    1  C9  UNK     1      19.665  -2.551  36.867  1.00  0.00    -0.035 A 
HETATM    2  C11 UNK     1      18.453  -1.581  35.035  1.00  0.00     0.000 A 
HETATM    3  C12 UNK     1      19.556  -2.291  35.509  1.00  0.00     0.023 A 
HETATM    4  C15 UNK     1      18.699  -2.117  37.761  1.00  0.00     0.014 A 
HETATM    5  C16 UNK     1      17.473  -1.140  35.923  1.00  0.00     0.076 A 
HETATM    6  C18 UNK     1      17.595  -1.408  37.287  1.00  0.00     0.038 A 
ENDROOT
BRANCH   1   7
HETATM    7  C7  UNK     1      20.830  -3.297  37.368  1.00  0.00     0.022 C 
HETATM    8  C4  UNK     1      20.887  -4.622  37.555  1.00  0.00    -0.006 C 
HETATM    9  C2  UNK     1      22.101  -5.333  38.071  1.00  0.00     0.047 C 
HETATM   10  C6  UNK     1      19.682  -5.443  37.239  1.00  0.00     0.189 C 
HETATM   11  C1  UNK     1      21.720  -6.335  39.154  1.00  0.00     0.044 C 
HETATM   12  C3  UNK     1      20.640  -7.267  38.673  1.00  0.00    -0.044 A 
HETATM   13  C5  UNK     1      19.664  -6.833  37.762  1.00  0.00     0.021 A 
HETATM   14  C8  UNK     1      20.569  -8.573  39.179  1.00  0.00     0.008 A 
HETATM   15  C10 UNK     1      18.645  -7.703  37.353  1.00  0.00     0.016 A 
HETATM   16  C14 UNK     1      18.597  -9.004  37.854  1.00  0.00     0.001 A 
HETATM   17  C13 UNK     1      19.556  -9.437  38.767  1.00  0.00     0.001 A 
HETATM   18  O1  UNK     1      18.745  -5.010  36.578  1.00  0.00    -0.287 OA
ENDBRANCH   1   7
BRANCH   2  19
HETATM   19  C17 UNK     1      18.337  -1.302  33.572  1.00  0.00     0.217 C 
BRANCH  19  20
HETATM   20  O2  UNK     1      19.395  -0.439  33.174  1.00  0.00    -0.343 OA
BRANCH  20  21
HETATM   21  C19 UNK     1      19.134   0.421  32.139  1.00  0.00     0.112 A 
HETATM   22  C21 UNK     1      19.463   0.059  30.837  1.00  0.00     0.070 A 
HETATM   23 Cl1  UNK     1      20.202  -1.463  30.490  1.00  0.00    -0.081 Cl
HETATM   24  C23 UNK     1      19.198   0.935  29.784  1.00  0.00     0.050 A 
HETATM   25  C25 UNK     1      18.603   2.170  30.038  1.00  0.00     0.037 A 
HETATM   26  C24 UNK     1      18.274   2.529  31.346  1.00  0.00     0.050 A 
HETATM   27 Cl3  UNK     1      18.277   3.251  28.740  1.00  0.00    -0.084 Cl
HETATM   28  C22 UNK     1      18.539   1.653  32.398  1.00  0.00     0.070 A 
HETATM   29 Cl2  UNK     1      18.119   2.128  34.004  1.00  0.00    -0.081 Cl
ENDBRANCH  20  21
ENDBRANCH  19  20
ENDBRANCH   2  19
BRANCH   5  30
HETATM   30  O3  UNK     1      16.390  -0.442  35.476  1.00  0.00    -0.355 OA
HETATM   31  C20 UNK     1      15.821   0.512  36.370  1.00  0.00     0.210 C 
ENDBRANCH   5  30
TORSDOF 5
ENDMDL
MODEL 2
REMARK VINA RESULT:      -9.1      6.548     10.531
REMARK  5 active torsions:
REMARK  status: ('A' for Active; 'I' for Inactive)
REMARK    1  A    between atoms: C17_23  and  O2_5 
REMARK    2  A    between atoms: C19_25  and  O2_5 
REMARK    3  A    between atoms: C16_22  and  O3_6 
REMARK    4  A    between atoms: C7_13  and  C9_15 
REMARK    5  A    between atoms: C11_17  and  C17_23 
ROOT
HETATM    1  C9  UNK     1      19.043   5.770  31.718  1.00  0.00    -0.035 A 
HETATM    2  C11 UNK     1      18.089   7.395  33.206  1.00  0.00     0.000 A 
HETATM    3  C12 UNK     1      17.927   6.422  32.219  1.00  0.00     0.023 A 
HETATM    4  C15 UNK     1      20.317   6.068  32.178  1.00  0.00     0.014 A 
HETATM    5  C16 UNK     1      19.363   7.704  33.678  1.00  0.00     0.076 A 
HETATM    6  C18 UNK     1      20.478   7.040  33.165  1.00  0.00     0.038 A 
ENDROOT
BRANCH   1   7
HETATM    7  C7  UNK     1      18.874   4.746  30.675  1.00  0.00     0.022 C 
HETATM    8  C4  UNK     1      18.631   3.446  30.889  1.00  0.00    -0.006 C 
HETATM    9  C2  UNK     1      18.468   2.442  29.789  1.00  0.00     0.047 C 
HETATM   10  C6  UNK     1      18.517   2.961  32.296  1.00  0.00     0.189 C 
HETATM   11  C1  UNK     1      19.269   1.180  30.086  1.00  0.00     0.044 C 
HETATM   12  C3  UNK     1      18.932   0.634  31.448  1.00  0.00    -0.044 A 
HETATM   13  C5  UNK     1      18.579   1.491  32.503  1.00  0.00     0.021 A 
HETATM   14  C8  UNK     1      19.023  -0.744  31.689  1.00  0.00     0.008 A 
HETATM   15  C10 UNK     1      18.305   0.969  33.774  1.00  0.00     0.016 A 
HETATM   16  C14 UNK     1      18.385  -0.407  33.993  1.00  0.00     0.001 A 
HETATM   17  C13 UNK     1      18.745  -1.261  32.954  1.00  0.00     0.001 A 
HETATM   18  O1  UNK     1      18.373   3.722  33.246  1.00  0.00    -0.287 OA
ENDBRANCH   1   7
BRANCH   2  19
HETATM   19  C17 UNK     1      16.885   8.097  33.744  1.00  0.00     0.217 C 
BRANCH  19  20
HETATM   20  O2  UNK     1      16.693   9.313  33.032  1.00  0.00    -0.343 OA
BRANCH  20  21
HETATM   21  C19 UNK     1      15.821  10.217  33.580  1.00  0.00     0.112 A 
HETATM   22  C21 UNK     1      16.306  11.396  34.140  1.00  0.00     0.070 A 
HETATM   23 Cl1  UNK     1      17.996  11.748  34.160  1.00  0.00    -0.081 Cl
HETATM   24  C23 UNK     1      15.419  12.316  34.698  1.00  0.00     0.050 A 
HETATM   25  C25 UNK     1      14.049  12.055  34.694  1.00  0.00     0.037 A 
HETATM   26  C24 UNK     1      13.567  10.872  34.132  1.00  0.00     0.050 A 
HETATM   27 Cl3  UNK     1      12.955  13.188  35.385  1.00  0.00    -0.084 Cl
HETATM   28  C22 UNK     1      14.454   9.952  33.574  1.00  0.00     0.070 A 
HETATM   29 Cl2  UNK     1      13.826   8.499  32.886  1.00  0.00    -0.081 Cl
ENDBRANCH  20  21
ENDBRANCH  19  20
ENDBRANCH   2  19
BRANCH   5  30
HETATM   30  O3  UNK     1      19.539   8.655  34.640  1.00  0.00    -0.355 OA
HETATM   31  C20 UNK     1      20.652   9.533  34.486  1.00  0.00     0.210 C 
ENDBRANCH   5  30
TORSDOF 5
ENDMDL
MODEL 3
REMARK VINA RESULT:      -9.1      3.929      9.231
REMARK  5 active torsions:
REMARK  status: ('A' for Active; 'I' for Inactive)
REMARK    1  A    between atoms: C17_23  and  O2_5 
REMARK    2  A    between atoms: C19_25  and  O2_5 
REMARK    3  A    between atoms: C16_22  and  O3_6 
REMARK    4  A    between atoms: C7_13  and  C9_15 
REMARK    5  A    between atoms: C11_17  and  C17_23 
ROOT
HETATM    1  C9  UNK     1      20.337  -4.518  36.395  1.00  0.00    -0.035 A 
HETATM    2  C11 UNK     1      19.633  -6.463  37.615  1.00  0.00     0.000 A 
HETATM    3  C12 UNK     1      19.446  -5.568  36.562  1.00  0.00     0.023 A 
HETATM    4  C15 UNK     1      21.409  -4.342  37.256  1.00  0.00     0.014 A 
HETATM    5  C16 UNK     1      20.708  -6.297  38.489  1.00  0.00     0.076 A 
HETATM    6  C18 UNK     1      21.596  -5.237  38.309  1.00  0.00     0.038 A 
ENDROOT
BRANCH   1   7
HETATM    7  C7  UNK     1      20.139  -3.573  35.285  1.00  0.00     0.022 C 
HETATM    8  C4  UNK     1      19.606  -2.348  35.388  1.00  0.00    -0.006 C 
HETATM    9  C2  UNK     1      19.424  -1.423  34.223  1.00  0.00     0.047 C 
HETATM   10  C6  UNK     1      19.163  -1.870  36.731  1.00  0.00     0.189 C 
HETATM   11  C1  UNK     1      18.035  -0.797  34.242  1.00  0.00     0.044 C 
HETATM   12  C3  UNK     1      17.753  -0.148  35.571  1.00  0.00    -0.044 A 
HETATM   13  C5  UNK     1      18.290  -0.669  36.759  1.00  0.00     0.021 A 
HETATM   14  C8  UNK     1      16.898   0.961  35.637  1.00  0.00     0.008 A 
HETATM   15  C10 UNK     1      17.986  -0.074  37.990  1.00  0.00     0.016 A 
HETATM   16  C14 UNK     1      17.146   1.039  38.038  1.00  0.00     0.001 A 
HETATM   17  C13 UNK     1      16.602   1.554  36.865  1.00  0.00     0.001 A 
HETATM   18  O1  UNK     1      19.498  -2.425  37.771  1.00  0.00    -0.287 OA
ENDBRANCH   1   7
BRANCH   2  19
HETATM   19  C17 UNK     1      18.673  -7.592  37.793  1.00  0.00     0.217 C 
BRANCH  19  20
HETATM   20  O2  UNK     1      18.708  -8.426  36.642  1.00  0.00    -0.343 OA
BRANCH  20  21
HETATM   21  C19 UNK     1      19.845  -9.167  36.451  1.00  0.00     0.112 A 
HETATM   22  C21 UNK     1      20.709  -8.855  35.406  1.00  0.00     0.070 A 
HETATM   23 Cl1  UNK     1      20.379  -7.544  34.333  1.00  0.00    -0.081 Cl
HETATM   24  C23 UNK     1      21.865  -9.611  35.212  1.00  0.00     0.050 A 
HETATM   25  C25 UNK     1      22.154 -10.675  36.065  1.00  0.00     0.037 A 
HETATM   26  C24 UNK     1      21.285 -10.985  37.112  1.00  0.00     0.050 A 
HETATM   27 Cl3  UNK     1      23.580 -11.609  35.825  1.00  0.00    -0.084 Cl
HETATM   28  C22 UNK     1      20.129 -10.230  37.306  1.00  0.00     0.070 A 
HETATM   29 Cl2  UNK     1      19.075 -10.638  38.611  1.00  0.00    -0.081 Cl
ENDBRANCH  20  21
ENDBRANCH  19  20
ENDBRANCH   2  19
BRANCH   5  30
HETATM   30  O3  UNK     1      20.902  -7.160  39.526  1.00  0.00    -0.355 OA
HETATM   31  C20 UNK     1      22.084  -7.959  39.491  1.00  0.00     0.210 C 
ENDBRANCH   5  30
TORSDOF 5
ENDMDL
MODEL 4
REMARK VINA RESULT:      -8.9     10.976     13.078
REMARK  5 active torsions:
REMARK  status: ('A' for Active; 'I' for Inactive)
REMARK    1  A    between atoms: C17_23  and  O2_5 
REMARK    2  A    between atoms: C19_25  and  O2_5 
REMARK    3  A    between atoms: C16_22  and  O3_6 
REMARK    4  A    between atoms: C7_13  and  C9_15 
REMARK    5  A    between atoms: C11_17  and  C17_23 
ROOT
HETATM    1  C9  UNK     1      31.648  -5.078  36.107  1.00  0.00    -0.035 A 
HETATM    2  C11 UNK     1      32.353  -6.100  34.052  1.00  0.00     0.000 A 
HETATM    3  C12 UNK     1      31.328  -5.672  34.896  1.00  0.00     0.023 A 
HETATM    4  C15 UNK     1      32.967  -4.904  36.496  1.00  0.00     0.014 A 
HETATM    5  C16 UNK     1      33.684  -5.931  34.430  1.00  0.00     0.076 A 
HETATM    6  C18 UNK     1      33.992  -5.332  35.652  1.00  0.00     0.038 A 
ENDROOT
BRANCH   1   7
HETATM    7  C7  UNK     1      30.567  -4.629  36.999  1.00  0.00     0.022 C 
HETATM    8  C4  UNK     1      29.835  -5.416  37.798  1.00  0.00    -0.006 C 
HETATM    9  C2  UNK     1      28.742  -4.906  38.687  1.00  0.00     0.047 C 
HETATM   10  C6  UNK     1      30.113  -6.882  37.808  1.00  0.00     0.189 C 
HETATM   11  C1  UNK     1      27.501  -5.783  38.575  1.00  0.00     0.044 C 
HETATM   12  C3  UNK     1      27.838  -7.231  38.812  1.00  0.00    -0.044 A 
HETATM   13  C5  UNK     1      29.087  -7.753  38.437  1.00  0.00     0.021 A 
HETATM   14  C8  UNK     1      26.877  -8.089  39.364  1.00  0.00     0.008 A 
HETATM   15  C10 UNK     1      29.370  -9.111  38.632  1.00  0.00     0.016 A 
HETATM   16  C14 UNK     1      28.409  -9.949  39.198  1.00  0.00     0.001 A 
HETATM   17  C13 UNK     1      27.165  -9.440  39.561  1.00  0.00     0.001 A 
HETATM   18  O1  UNK     1      31.135  -7.363  37.331  1.00  0.00    -0.287 OA
ENDBRANCH   1   7
BRANCH   2  19
HETATM   19  C17 UNK     1      32.006  -6.739  32.747  1.00  0.00     0.217 C 
BRANCH  19  20
HETATM   20  O2  UNK     1      30.741  -6.257  32.310  1.00  0.00    -0.343 OA
BRANCH  20  21
HETATM   21  C19 UNK     1      30.027  -7.073  31.471  1.00  0.00     0.112 A 
HETATM   22  C21 UNK     1      30.250  -7.021  30.098  1.00  0.00     0.070 A 
HETATM   23 Cl1  UNK     1      31.416  -5.943  29.421  1.00  0.00    -0.081 Cl
HETATM   24  C23 UNK     1      29.522  -7.850  29.245  1.00  0.00     0.050 A 
HETATM   25  C25 UNK     1      28.574  -8.728  29.767  1.00  0.00     0.037 A 
HETATM   26  C24 UNK     1      28.353  -8.777  31.144  1.00  0.00     0.050 A 
HETATM   27 Cl3  UNK     1      27.674  -9.750  28.714  1.00  0.00    -0.084 Cl
HETATM   28  C22 UNK     1      29.080  -7.948  31.997  1.00  0.00     0.070 A 
HETATM   29 Cl2  UNK     1      28.784  -8.033  33.696  1.00  0.00    -0.081 Cl
ENDBRANCH  20  21
ENDBRANCH  19  20
ENDBRANCH   2  19
BRANCH   5  30
HETATM   30  O3  UNK     1      34.697  -6.347  33.619  1.00  0.00    -0.355 OA
HETATM   31  C20 UNK     1      35.837  -6.926  34.251  1.00  0.00     0.210 C 
ENDBRANCH   5  30
TORSDOF 5
ENDMDL
MODEL 5
REMARK VINA RESULT:      -8.9     11.028     13.167
REMARK  5 active torsions:
REMARK  status: ('A' for Active; 'I' for Inactive)
REMARK    1  A    between atoms: C17_23  and  O2_5 
REMARK    2  A    between atoms: C19_25  and  O2_5 
REMARK    3  A    between atoms: C16_22  and  O3_6 
REMARK    4  A    between atoms: C7_13  and  C9_15 
REMARK    5  A    between atoms: C11_17  and  C17_23 
ROOT
HETATM    1  C9  UNK     1      31.696  -5.033  36.020  1.00  0.00    -0.035 A 
HETATM    2  C11 UNK     1      32.357  -6.124  33.986  1.00  0.00     0.000 A 
HETATM    3  C12 UNK     1      31.352  -5.706  34.858  1.00  0.00     0.023 A 
HETATM    4  C15 UNK     1      33.021  -4.769  36.333  1.00  0.00     0.014 A 
HETATM    5  C16 UNK     1      33.694  -5.865  34.288  1.00  0.00     0.076 A 
HETATM    6  C18 UNK     1      34.026  -5.187  35.461  1.00  0.00     0.038 A 
ENDROOT
BRANCH   1   7
HETATM    7  C7  UNK     1      30.636  -4.594  36.941  1.00  0.00     0.022 C 
HETATM    8  C4  UNK     1      29.929  -5.389  37.754  1.00  0.00    -0.006 C 
HETATM    9  C2  UNK     1      28.856  -4.890  38.674  1.00  0.00     0.047 C 
HETATM   10  C6  UNK     1      30.214  -6.854  37.749  1.00  0.00     0.189 C 
HETATM   11  C1  UNK     1      27.617  -5.773  38.588  1.00  0.00     0.044 C 
HETATM   12  C3  UNK     1      27.967  -7.220  38.809  1.00  0.00    -0.044 A 
HETATM   13  C5  UNK     1      29.209  -7.734  38.400  1.00  0.00     0.021 A 
HETATM   14  C8  UNK     1      27.025  -8.087  39.380  1.00  0.00     0.008 A 
HETATM   15  C10 UNK     1      29.504  -9.091  38.580  1.00  0.00     0.016 A 
HETATM   16  C14 UNK     1      28.561  -9.937  39.165  1.00  0.00     0.001 A 
HETATM   17  C13 UNK     1      27.324  -9.437  39.562  1.00  0.00     0.001 A 
HETATM   18  O1  UNK     1      31.226  -7.327  37.244  1.00  0.00    -0.287 OA
ENDBRANCH   1   7
BRANCH   2  19
HETATM   19  C17 UNK     1      31.984  -6.849  32.735  1.00  0.00     0.217 C 
BRANCH  19  20
HETATM   20  O2  UNK     1      30.776  -6.304  32.219  1.00  0.00    -0.343 OA
BRANCH  20  21
HETATM   21  C19 UNK     1      30.043  -7.108  31.386  1.00  0.00     0.112 A 
HETATM   22  C21 UNK     1      29.034  -7.912  31.909  1.00  0.00     0.070 A 
HETATM   23 Cl1  UNK     1      28.683  -7.920  33.599  1.00  0.00    -0.081 Cl
HETATM   24  C23 UNK     1      28.289  -8.731  31.061  1.00  0.00     0.050 A 
HETATM   25  C25 UNK     1      28.554  -8.743  29.692  1.00  0.00     0.037 A 
HETATM   26  C24 UNK     1      29.566  -7.935  29.171  1.00  0.00     0.050 A 
HETATM   27 Cl3  UNK     1      27.636  -9.754  28.646  1.00  0.00    -0.084 Cl
HETATM   28  C22 UNK     1      30.312  -7.117  30.019  1.00  0.00     0.070 A 
HETATM   29 Cl2  UNK     1      31.556  -6.129  29.344  1.00  0.00    -0.081 Cl
ENDBRANCH  20  21
ENDBRANCH  19  20
ENDBRANCH   2  19
BRANCH   5  30
HETATM   30  O3  UNK     1      34.689  -6.271  33.448  1.00  0.00    -0.355 OA
HETATM   31  C20 UNK     1      35.837  -6.870  34.046  1.00  0.00     0.210 C 
ENDBRANCH   5  30
TORSDOF 5
ENDMDL
MODEL 6
REMARK VINA RESULT:      -8.8      5.291     11.803
REMARK  5 active torsions:
REMARK  status: ('A' for Active; 'I' for Inactive)
REMARK    1  A    between atoms: C17_23  and  O2_5 
REMARK    2  A    between atoms: C19_25  and  O2_5 
REMARK    3  A    between atoms: C16_22  and  O3_6 
REMARK    4  A    between atoms: C7_13  and  C9_15 
REMARK    5  A    between atoms: C11_17  and  C17_23 
ROOT
HETATM    1  C9  UNK     1      19.247   5.757  32.586  1.00  0.00    -0.035 A 
HETATM    2  C11 UNK     1      18.278   3.561  32.674  1.00  0.00     0.000 A 
HETATM    3  C12 UNK     1      18.781   4.685  33.331  1.00  0.00     0.023 A 
HETATM    4  C15 UNK     1      19.224   5.733  31.200  1.00  0.00     0.014 A 
HETATM    5  C16 UNK     1      18.249   3.524  31.280  1.00  0.00     0.076 A 
HETATM    6  C18 UNK     1      18.722   4.609  30.543  1.00  0.00     0.038 A 
ENDROOT
BRANCH   1   7
HETATM    7  C7  UNK     1      19.780   6.941  33.278  1.00  0.00     0.022 C 
HETATM    8  C4  UNK     1      19.050   7.946  33.780  1.00  0.00    -0.006 C 
HETATM    9  C2  UNK     1      19.644   9.133  34.476  1.00  0.00     0.047 C 
HETATM   10  C6  UNK     1      17.565   7.893  33.640  1.00  0.00     0.189 C 
HETATM   11  C1  UNK     1      19.012  10.426  33.975  1.00  0.00     0.044 C 
HETATM   12  C3  UNK     1      17.512  10.366  34.069  1.00  0.00    -0.044 A 
HETATM   13  C5  UNK     1      16.824   9.153  33.902  1.00  0.00     0.021 A 
HETATM   14  C8  UNK     1      16.778  11.544  34.273  1.00  0.00     0.008 A 
HETATM   15  C10 UNK     1      15.424   9.123  33.957  1.00  0.00     0.016 A 
HETATM   16  C14 UNK     1      14.710  10.301  34.176  1.00  0.00     0.001 A 
HETATM   17  C13 UNK     1      15.385  11.509  34.331  1.00  0.00     0.001 A 
HETATM   18  O1  UNK     1      16.969   6.868  33.331  1.00  0.00    -0.287 OA
ENDBRANCH   1   7
BRANCH   2  19
HETATM   19  C17 UNK     1      17.777   2.408  33.479  1.00  0.00     0.217 C 
BRANCH  19  20
HETATM   20  O2  UNK     1      18.816   1.943  34.332  1.00  0.00    -0.343 OA
BRANCH  20  21
HETATM   21  C19 UNK     1      18.630   0.719  34.921  1.00  0.00     0.112 A 
HETATM   22  C21 UNK     1      18.348   0.642  36.281  1.00  0.00     0.070 A 
HETATM   23 Cl1  UNK     1      18.226   2.063  37.253  1.00  0.00    -0.081 Cl
HETATM   24  C23 UNK     1      18.159  -0.604  36.881  1.00  0.00     0.050 A 
HETATM   25  C25 UNK     1      18.254  -1.767  36.118  1.00  0.00     0.037 A 
HETATM   26  C24 UNK     1      18.537  -1.684  34.754  1.00  0.00     0.050 A 
HETATM   27 Cl3  UNK     1      18.023  -3.303  36.857  1.00  0.00    -0.084 Cl
HETATM   28  C22 UNK     1      18.726  -0.439  34.154  1.00  0.00     0.070 A 
HETATM   29 Cl2  UNK     1      19.074  -0.371  32.465  1.00  0.00    -0.081 Cl
ENDBRANCH  20  21
ENDBRANCH  19  20
ENDBRANCH   2  19
BRANCH   5  30
HETATM   30  O3  UNK     1      17.765   2.432  30.623  1.00  0.00    -0.355 OA
HETATM   31  C20 UNK     1      18.388   2.092  29.386  1.00  0.00     0.210 C 
ENDBRANCH   5  30
TORSDOF 5
ENDMDL
MODEL 7
REMARK VINA RESULT:      -8.8     10.654     13.180
REMARK  5 active torsions:
REMARK  status: ('A' for Active; 'I' for Inactive)
REMARK    1  A    between atoms: C17_23  and  O2_5 
REMARK    2  A    between atoms: C19_25  and  O2_5 
REMARK    3  A    between atoms: C16_22  and  O3_6 
REMARK    4  A    between atoms: C7_13  and  C9_15 
REMARK    5  A    between atoms: C11_17  and  C17_23 
ROOT
HETATM    1  C9  UNK     1      32.597  -5.094  35.948  1.00  0.00    -0.035 A 
HETATM    2  C11 UNK     1      32.807  -6.109  33.782  1.00  0.00     0.000 A 
HETATM    3  C12 UNK     1      32.006  -5.561  34.784  1.00  0.00     0.023 A 
HETATM    4  C15 UNK     1      33.969  -5.163  36.135  1.00  0.00     0.014 A 
HETATM    5  C16 UNK     1      34.188  -6.184  33.957  1.00  0.00     0.076 A 
HETATM    6  C18 UNK     1      34.770  -5.710  35.133  1.00  0.00     0.038 A 
ENDROOT
BRANCH   1   7
HETATM    7  C7  UNK     1      31.752  -4.519  37.007  1.00  0.00     0.022 C 
HETATM    8  C4  UNK     1      30.934  -5.207  37.814  1.00  0.00    -0.006 C 
HETATM    9  C2  UNK     1      30.091  -4.570  38.877  1.00  0.00     0.047 C 
HETATM   10  C6  UNK     1      30.846  -6.688  37.651  1.00  0.00     0.189 C 
HETATM   11  C1  UNK     1      28.669  -5.116  38.839  1.00  0.00     0.044 C 
HETATM   12  C3  UNK     1      28.666  -6.620  38.895  1.00  0.00    -0.044 A 
HETATM   13  C5  UNK     1      29.707  -7.368  38.319  1.00  0.00     0.021 A 
HETATM   14  C8  UNK     1      27.585  -7.294  39.480  1.00  0.00     0.008 A 
HETATM   15  C10 UNK     1      29.669  -8.767  38.348  1.00  0.00     0.016 A 
HETATM   16  C14 UNK     1      28.594  -9.423  38.948  1.00  0.00     0.001 A 
HETATM   17  C13 UNK     1      27.553  -8.688  39.511  1.00  0.00     0.001 A 
HETATM   18  O1  UNK     1      31.667  -7.330  37.007  1.00  0.00    -0.287 OA
ENDBRANCH   1   7
BRANCH   2  19
HETATM   19  C17 UNK     1      32.168  -6.611  32.529  1.00  0.00     0.217 C 
BRANCH  19  20
HETATM   20  O2  UNK     1      31.090  -7.477  32.866  1.00  0.00    -0.343 OA
BRANCH  20  21
HETATM   21  C19 UNK     1      29.903  -7.266  32.215  1.00  0.00     0.112 A 
HETATM   22  C21 UNK     1      29.802  -7.538  30.854  1.00  0.00     0.070 A 
HETATM   23 Cl1  UNK     1      31.150  -8.139  29.958  1.00  0.00    -0.081 Cl
HETATM   24  C23 UNK     1      28.594  -7.323  30.191  1.00  0.00     0.050 A 
HETATM   25  C25 UNK     1      27.490  -6.838  30.891  1.00  0.00     0.037 A 
HETATM   26  C24 UNK     1      27.596  -6.567  32.256  1.00  0.00     0.050 A 
HETATM   27 Cl3  UNK     1      26.000  -6.571  30.073  1.00  0.00    -0.084 Cl
HETATM   28  C22 UNK     1      28.804  -6.781  32.919  1.00  0.00     0.070 A 
HETATM   29 Cl2  UNK     1      28.902  -6.437  34.607  1.00  0.00    -0.081 Cl
ENDBRANCH  20  21
ENDBRANCH  19  20
ENDBRANCH   2  19
BRANCH   5  30
HETATM   30  O3  UNK     1      34.985  -6.720  32.989  1.00  0.00    -0.355 OA
HETATM   31  C20 UNK     1      36.188  -7.354  33.418  1.00  0.00     0.210 C 
ENDBRANCH   5  30
TORSDOF 5
ENDMDL
MODEL 8
REMARK VINA RESULT:      -8.7     27.399     29.871
REMARK  5 active torsions:
REMARK  status: ('A' for Active; 'I' for Inactive)
REMARK    1  A    between atoms: C17_23  and  O2_5 
REMARK    2  A    between atoms: C19_25  and  O2_5 
REMARK    3  A    between atoms: C16_22  and  O3_6 
REMARK    4  A    between atoms: C7_13  and  C9_15 
REMARK    5  A    between atoms: C11_17  and  C17_23 
ROOT
HETATM    1  C9  UNK     1      12.605   6.450   9.077  1.00  0.00    -0.035 A 
HETATM    2  C11 UNK     1      10.292   6.735   8.499  1.00  0.00     0.000 A 
HETATM    3  C12 UNK     1      11.347   6.941   9.389  1.00  0.00     0.023 A 
HETATM    4  C15 UNK     1      12.834   5.756   7.899  1.00  0.00     0.014 A 
HETATM    5  C16 UNK     1      10.508   6.039   7.310  1.00  0.00     0.076 A 
HETATM    6  C18 UNK     1      11.779   5.550   7.009  1.00  0.00     0.038 A 
ENDROOT
BRANCH   1   7
HETATM    7  C7  UNK     1      13.717   6.665  10.015  1.00  0.00     0.022 C 
HETATM    8  C4  UNK     1      14.550   7.714  10.012  1.00  0.00    -0.006 C 
HETATM    9  C2  UNK     1      15.672   7.884  10.992  1.00  0.00     0.047 C 
HETATM   10  C6  UNK     1      14.363   8.774   8.979  1.00  0.00     0.189 C 
HETATM   11  C1  UNK     1      16.952   8.304  10.281  1.00  0.00     0.044 C 
HETATM   12  C3  UNK     1      16.720   9.517   9.421  1.00  0.00    -0.044 A 
HETATM   13  C5  UNK     1      15.481   9.734   8.795  1.00  0.00     0.021 A 
HETATM   14  C8  UNK     1      17.768  10.420   9.192  1.00  0.00     0.008 A 
HETATM   15  C10 UNK     1      15.295  10.850   7.969  1.00  0.00     0.016 A 
HETATM   16  C14 UNK     1      16.343  11.748   7.764  1.00  0.00     0.001 A 
HETATM   17  C13 UNK     1      17.577  11.532   8.372  1.00  0.00     0.001 A 
HETATM   18  O1  UNK     1      13.341   8.869   8.310  1.00  0.00    -0.287 OA
ENDBRANCH   1   7
BRANCH   2  19
HETATM   19  C17 UNK     1       8.937   7.265   8.838  1.00  0.00     0.217 C 
BRANCH  19  20
HETATM   20  O2  UNK     1       8.625   6.931  10.184  1.00  0.00    -0.343 OA
BRANCH  20  21
HETATM   21  C19 UNK     1       7.642   5.994  10.375  1.00  0.00     0.112 A 
HETATM   22  C21 UNK     1       7.974   4.644  10.433  1.00  0.00     0.070 A 
HETATM   23 Cl1  UNK     1       9.609   4.116  10.266  1.00  0.00    -0.081 Cl
HETATM   24  C23 UNK     1       6.974   3.691  10.627  1.00  0.00     0.050 A 
HETATM   25  C25 UNK     1       5.646   4.092  10.763  1.00  0.00     0.037 A 
HETATM   26  C24 UNK     1       5.317   5.447  10.705  1.00  0.00     0.050 A 
HETATM   27 Cl3  UNK     1       4.412   2.917  11.000  1.00  0.00    -0.084 Cl
HETATM   28  C22 UNK     1       6.317   6.400  10.511  1.00  0.00     0.070 A 
HETATM   29 Cl2  UNK     1       5.878   8.068  10.445  1.00  0.00    -0.081 Cl
ENDBRANCH  20  21
ENDBRANCH  19  20
ENDBRANCH   2  19
BRANCH   5  30
HETATM   30  O3  UNK     1       9.487   5.825   6.433  1.00  0.00    -0.355 OA
HETATM   31  C20 UNK     1       9.651   6.336   5.111  1.00  0.00     0.210 C 
ENDBRANCH   5  30
TORSDOF 5
ENDMDL
MODEL 9
REMARK VINA RESULT:      -8.6      8.294     11.427
REMARK  5 active torsions:
REMARK  status: ('A' for Active; 'I' for Inactive)
REMARK    1  A    between atoms: C17_23  and  O2_5 
REMARK    2  A    between atoms: C19_25  and  O2_5 
REMARK    3  A    between atoms: C16_22  and  O3_6 
REMARK    4  A    between atoms: C7_13  and  C9_15 
REMARK    5  A    between atoms: C11_17  and  C17_23 
ROOT
HETATM    1  C9  UNK     1      26.231 -10.224  36.847  1.00  0.00    -0.035 A 
HETATM    2  C11 UNK     1      28.339  -9.130  36.491  1.00  0.00     0.000 A 
HETATM    3  C12 UNK     1      27.120  -9.589  35.992  1.00  0.00     0.023 A 
HETATM    4  C15 UNK     1      26.533 -10.413  38.186  1.00  0.00     0.014 A 
HETATM    5  C16 UNK     1      28.655  -9.313  37.837  1.00  0.00     0.076 A 
HETATM    6  C18 UNK     1      27.752  -9.954  38.685  1.00  0.00     0.038 A 
ENDROOT
BRANCH   1   7
HETATM    7  C7  UNK     1      24.946 -10.711  36.320  1.00  0.00     0.022 C 
HETATM    8  C4  UNK     1      23.753 -10.135  36.517  1.00  0.00    -0.006 C 
HETATM    9  C2  UNK     1      22.471 -10.674  35.959  1.00  0.00     0.047 C 
HETATM   10  C6  UNK     1      23.686  -8.890  37.339  1.00  0.00     0.189 C 
HETATM   11  C1  UNK     1      21.379 -10.679  37.022  1.00  0.00     0.044 C 
HETATM   12  C3  UNK     1      21.232  -9.321  37.653  1.00  0.00    -0.044 A 
HETATM   13  C5  UNK     1      22.340  -8.471  37.808  1.00  0.00     0.021 A 
HETATM   14  C8  UNK     1      19.985  -8.912  38.146  1.00  0.00     0.008 A 
HETATM   15  C10 UNK     1      22.191  -7.226  38.431  1.00  0.00     0.016 A 
HETATM   16  C14 UNK     1      20.940  -6.827  38.902  1.00  0.00     0.001 A 
HETATM   17  C13 UNK     1      19.840  -7.669  38.762  1.00  0.00     0.001 A 
HETATM   18  O1  UNK     1      24.679  -8.230  37.617  1.00  0.00    -0.287 OA
ENDBRANCH   1   7
BRANCH   2  19
HETATM   19  C17 UNK     1      29.294  -8.446  35.569  1.00  0.00     0.217 C 
BRANCH  19  20
HETATM   20  O2  UNK     1      28.995  -7.056  35.529  1.00  0.00    -0.343 OA
BRANCH  20  21
HETATM   21  C19 UNK     1      30.061  -6.195  35.550  1.00  0.00     0.112 A 
HETATM   22  C21 UNK     1      30.853  -6.046  34.416  1.00  0.00     0.070 A 
HETATM   23 Cl1  UNK     1      30.523  -6.929  32.970  1.00  0.00    -0.081 Cl
HETATM   24  C23 UNK     1      31.938  -5.169  34.437  1.00  0.00     0.050 A 
HETATM   25  C25 UNK     1      32.227  -4.445  35.593  1.00  0.00     0.037 A 
HETATM   26  C24 UNK     1      31.430  -4.597  36.728  1.00  0.00     0.050 A 
HETATM   27 Cl3  UNK     1      33.566  -3.365  35.620  1.00  0.00    -0.084 Cl
HETATM   28  C22 UNK     1      30.344  -5.473  36.707  1.00  0.00     0.070 A 
HETATM   29 Cl2  UNK     1      29.378  -5.639  38.127  1.00  0.00    -0.081 Cl
ENDBRANCH  20  21
ENDBRANCH  19  20
ENDBRANCH   2  19
BRANCH   5  30
HETATM   30  O3  UNK     1      29.844  -8.874  38.339  1.00  0.00    -0.355 OA
HETATM   31  C20 UNK     1      30.913  -9.817  38.392  1.00  0.00     0.210 C 
ENDBRANCH   5  30
TORSDOF 5
ENDMDL
MODEL 10
REMARK VINA RESULT:      -8.6      8.403     11.911
REMARK  5 active torsions:
REMARK  status: ('A' for Active; 'I' for Inactive)
REMARK    1  A    between atoms: C17_23  and  O2_5 
REMARK    2  A    between atoms: C19_25  and  O2_5 
REMARK    3  A    between atoms: C16_22  and  O3_6 
REMARK    4  A    between atoms: C7_13  and  C9_15 
REMARK    5  A    between atoms: C11_17  and  C17_23 
ROOT
HETATM    1  C9  UNK     1      26.916  -7.959  38.446  1.00  0.00    -0.035 A 
HETATM    2  C11 UNK     1      28.555  -7.834  36.695  1.00  0.00     0.000 A 
HETATM    3  C12 UNK     1      27.393  -7.348  37.296  1.00  0.00     0.023 A 
HETATM    4  C15 UNK     1      27.571  -9.043  39.008  1.00  0.00     0.014 A 
HETATM    5  C16 UNK     1      29.224  -8.923  37.251  1.00  0.00     0.076 A 
HETATM    6  C18 UNK     1      28.733  -9.528  38.407  1.00  0.00     0.038 A 
ENDROOT
BRANCH   1   7
HETATM    7  C7  UNK     1      25.689  -7.449  39.078  1.00  0.00     0.022 C 
HETATM    8  C4  UNK     1      24.437  -7.767  38.724  1.00  0.00    -0.006 C 
HETATM    9  C2  UNK     1      23.219  -7.217  39.402  1.00  0.00     0.047 C 
HETATM   10  C6  UNK     1      24.233  -8.719  37.592  1.00  0.00     0.189 C 
HETATM   11  C1  UNK     1      22.189  -6.762  38.375  1.00  0.00     0.044 C 
HETATM   12  C3  UNK     1      21.881  -7.862  37.394  1.00  0.00    -0.044 A 
HETATM   13  C5  UNK     1      22.865  -8.791  37.018  1.00  0.00     0.021 A 
HETATM   14  C8  UNK     1      20.613  -7.933  36.801  1.00  0.00     0.008 A 
HETATM   15  C10 UNK     1      22.571  -9.786  36.076  1.00  0.00     0.016 A 
HETATM   16  C14 UNK     1      21.299  -9.853  35.507  1.00  0.00     0.001 A 
HETATM   17  C13 UNK     1      20.323  -8.927  35.867  1.00  0.00     0.001 A 
HETATM   18  O1  UNK     1      25.136  -9.418  37.148  1.00  0.00    -0.287 OA
ENDBRANCH   1   7
BRANCH   2  19
HETATM   19  C17 UNK     1      29.067  -7.174  35.457  1.00  0.00     0.217 C 
BRANCH  19  20
HETATM   20  O2  UNK     1      29.580  -5.889  35.786  1.00  0.00    -0.343 OA
BRANCH  20  21
HETATM   21  C19 UNK     1      30.940  -5.782  35.913  1.00  0.00     0.112 A 
HETATM   22  C21 UNK     1      31.517  -5.753  37.179  1.00  0.00     0.070 A 
HETATM   23 Cl1  UNK     1      30.550  -5.850  38.606  1.00  0.00    -0.081 Cl
HETATM   24  C23 UNK     1      32.901  -5.644  37.309  1.00  0.00     0.050 A 
HETATM   25  C25 UNK     1      33.704  -5.563  36.172  1.00  0.00     0.037 A 
HETATM   26  C24 UNK     1      33.122  -5.592  34.904  1.00  0.00     0.050 A 
HETATM   27 Cl3  UNK     1      35.412  -5.425  36.332  1.00  0.00    -0.084 Cl
HETATM   28  C22 UNK     1      31.737  -5.702  34.775  1.00  0.00     0.070 A 
HETATM   29 Cl2  UNK     1      31.048  -5.736  33.193  1.00  0.00    -0.081 Cl
ENDBRANCH  20  21
ENDBRANCH  19  20
ENDBRANCH   2  19
BRANCH   5  30
HETATM   30  O3  UNK     1      30.358  -9.413  36.674  1.00  0.00    -0.355 OA
HETATM   31  C20 UNK     1      31.528  -9.465  37.488  1.00  0.00     0.210 C 
ENDBRANCH   5  30
TORSDOF 5
ENDMDL
