MODEL 1
REMARK VINA RESULT:      -9.4      0.000      0.000
REMARK  6 active torsions:
REMARK  status: ('A' for Active; 'I' for Inactive)
REMARK    1  A    between atoms: C1_7  and  O1_4 
REMARK    2  A    between atoms: C4_10  and  O1_4 
REMARK    3  A    between atoms: C3_9  and  O2_5 
REMARK    4  A    between atoms: C2_8  and  C9_15 
REMARK    5  A    between atoms: C4_10  and  C6_12 
REMARK    6  A    between atoms: C10_16  and  C11_17 
ROOT
HETATM    1  N1  UNK     1      21.962  -1.699  35.321  1.00  0.00    -0.191 NA
HETATM    2  C9  UNK     1      18.659  -2.456  35.966  1.00  0.00     0.036 C 
HETATM    3  C10 UNK     1      19.886  -3.001  36.190  1.00  0.00     0.055 C 
HETATM    4  C23 UNK     1      21.029  -2.272  35.705  1.00  0.00     0.100 C 
ENDROOT
BRANCH   3   5
HETATM    5  C11 UNK     1      20.096  -4.259  36.889  1.00  0.00    -0.015 A 
HETATM    6  C16 UNK     1      21.238  -4.440  37.669  1.00  0.00     0.016 A 
HETATM    7  C19 UNK     1      21.440  -5.647  38.339  1.00  0.00     0.043 A 
HETATM    8  C21 UNK     1      20.500  -6.672  38.229  1.00  0.00     0.116 A 
HETATM    9  C20 UNK     1      19.359  -6.490  37.449  1.00  0.00     0.043 A 
HETATM   10  F1  UNK     1      20.694  -7.831  38.873  1.00  0.00    -0.206 F 
HETATM   11  C17 UNK     1      19.157  -5.284  36.779  1.00  0.00     0.016 A 
ENDBRANCH   3   5
BRANCH   2  12
HETATM   12  C2  UNK     1      18.400  -1.186  35.272  1.00  0.00    -0.015 A 
HETATM   13  C5  UNK     1      18.612  -1.160  33.899  1.00  0.00     0.052 A 
HETATM   14  C3  UNK     1      18.382   0.019  33.189  1.00  0.00     0.102 A 
HETATM   15  C1  UNK     1      17.943   1.162  33.858  1.00  0.00     0.103 A 
HETATM   16  C7  UNK     1      17.733   1.126  35.237  1.00  0.00     0.059 A 
HETATM   17  C8  UNK     1      17.963  -0.053  35.947  1.00  0.00     0.024 A 
HETATM   18 Br1  UNK     1      17.658  -0.034  37.822  1.00  0.00    -0.050 Br
BRANCH  14  19
HETATM   19  O2  UNK     1      18.590   0.041  31.843  1.00  0.00    -0.353 OA
HETATM   20  C22 UNK     1      19.703  -0.699  31.346  1.00  0.00     0.210 C 
ENDBRANCH  14  19
BRANCH  15  21
HETATM   21  O1  UNK     1      17.715   2.317  33.175  1.00  0.00    -0.344 OA
BRANCH  21  22
HETATM   22  C4  UNK     1      18.371   3.491  33.652  1.00  0.00     0.216 C 
BRANCH  22  23
HETATM   23  C6  UNK     1      18.732   4.360  32.483  1.00  0.00    -0.012 A 
HETATM   24  C12 UNK     1      19.163   5.673  32.660  1.00  0.00     0.042 A 
HETATM   25 Cl1  UNK     1      19.306   6.371  34.231  1.00  0.00    -0.084 Cl
HETATM   26  C14 UNK     1      19.488   6.450  31.548  1.00  0.00     0.024 A 
HETATM   27  C18 UNK     1      19.383   5.912  30.265  1.00  0.00     0.002 A 
HETATM   28  C15 UNK     1      18.950   4.597  30.094  1.00  0.00     0.001 A 
HETATM   29  C13 UNK     1      18.624   3.820  31.205  1.00  0.00     0.011 A 
ENDBRANCH  22  23
ENDBRANCH  21  22
ENDBRANCH  15  21
ENDBRANCH   2  12
TORSDOF 6
ENDMDL
MODEL 2
REMARK VINA RESULT:      -9.3      6.493      8.725
REMARK  6 active torsions:
REMARK  status: ('A' for Active; 'I' for Inactive)
REMARK    1  A    between atoms: C1_7  and  O1_4 
REMARK    2  A    between atoms: C4_10  and  O1_4 
REMARK    3  A    between atoms: C3_9  and  O2_5 
REMARK    4  A    between atoms: C2_8  and  C9_15 
REMARK    5  A    between atoms: C4_10  and  C6_12 
REMARK    6  A    between atoms: C10_16  and  C11_17 
ROOT
HETATM    1  N1  UNK     1      17.919   2.605  33.793  1.00  0.00    -0.191 NA
HETATM    2  C9  UNK     1      18.471   4.549  30.998  1.00  0.00     0.036 C 
HETATM    3  C10 UNK     1      18.440   3.229  31.323  1.00  0.00     0.055 C 
HETATM    4  C23 UNK     1      18.150   2.893  32.693  1.00  0.00     0.100 C 
ENDROOT
BRANCH   3   5
HETATM    5  C11 UNK     1      18.674   2.155  30.369  1.00  0.00    -0.015 A 
HETATM    6  C16 UNK     1      19.617   1.168  30.649  1.00  0.00     0.016 A 
HETATM    7  C19 UNK     1      19.842   0.139  29.734  1.00  0.00     0.043 A 
HETATM    8  C21 UNK     1      19.122   0.098  28.540  1.00  0.00     0.116 A 
HETATM    9  C20 UNK     1      18.178   1.085  28.260  1.00  0.00     0.043 A 
HETATM   10  F1  UNK     1      19.337  -0.891  27.661  1.00  0.00    -0.206 F 
HETATM   11  C17 UNK     1      17.954   2.115  29.175  1.00  0.00     0.016 A 
ENDBRANCH   3   5
BRANCH   2  12
HETATM   12  C2  UNK     1      18.234   5.665  31.925  1.00  0.00    -0.015 A 
HETATM   13  C5  UNK     1      16.914   5.947  32.253  1.00  0.00     0.052 A 
HETATM   14  C3  UNK     1      16.630   6.995  33.130  1.00  0.00     0.102 A 
HETATM   15  C1  UNK     1      17.669   7.753  33.670  1.00  0.00     0.103 A 
HETATM   16  C7  UNK     1      18.992   7.462  33.335  1.00  0.00     0.059 A 
HETATM   17  C8  UNK     1      19.276   6.414  32.458  1.00  0.00     0.024 A 
HETATM   18 Br1  UNK     1      21.098   6.072  32.044  1.00  0.00    -0.050 Br
BRANCH  14  19
HETATM   19  O2  UNK     1      15.334   7.269  33.450  1.00  0.00    -0.353 OA
HETATM   20  C22 UNK     1      14.401   7.342  32.374  1.00  0.00     0.210 C 
ENDBRANCH  14  19
BRANCH  15  21
HETATM   21  O1  UNK     1      17.405   8.778  34.526  1.00  0.00    -0.344 OA
BRANCH  21  22
HETATM   22  C4  UNK     1      17.399  10.095  33.977  1.00  0.00     0.216 C 
BRANCH  22  23
HETATM   23  C6  UNK     1      16.362  10.917  34.686  1.00  0.00    -0.012 A 
HETATM   24  C12 UNK     1      16.588  12.253  35.004  1.00  0.00     0.042 A 
HETATM   25 Cl1  UNK     1      18.071  13.038  34.601  1.00  0.00    -0.084 Cl
HETATM   26  C14 UNK     1      15.601  12.985  35.665  1.00  0.00     0.024 A 
HETATM   27  C18 UNK     1      14.391  12.377  36.003  1.00  0.00     0.002 A 
HETATM   28  C15 UNK     1      14.170  11.038  35.682  1.00  0.00     0.001 A 
HETATM   29  C13 UNK     1      15.157  10.306  35.023  1.00  0.00     0.011 A 
ENDBRANCH  22  23
ENDBRANCH  21  22
ENDBRANCH  15  21
ENDBRANCH   2  12
TORSDOF 6
ENDMDL
MODEL 3
REMARK VINA RESULT:      -9.0      6.135     10.655
REMARK  6 active torsions:
REMARK  status: ('A' for Active; 'I' for Inactive)
REMARK    1  A    between atoms: C1_7  and  O1_4 
REMARK    2  A    between atoms: C4_10  and  O1_4 
REMARK    3  A    between atoms: C3_9  and  O2_5 
REMARK    4  A    between atoms: C2_8  and  C9_15 
REMARK    5  A    between atoms: C4_10  and  C6_12 
REMARK    6  A    between atoms: C10_16  and  C11_17 
ROOT
HETATM    1  N1  UNK     1      15.261   6.741  32.191  1.00  0.00    -0.191 NA
HETATM    2  C9  UNK     1      18.551   6.721  33.228  1.00  0.00     0.036 C 
HETATM    3  C10 UNK     1      17.520   7.606  33.145  1.00  0.00     0.055 C 
HETATM    4  C23 UNK     1      16.273   7.117  32.616  1.00  0.00     0.100 C 
ENDROOT
BRANCH   3   5
HETATM    5  C11 UNK     1      17.611   8.996  33.564  1.00  0.00    -0.015 A 
HETATM    6  C16 UNK     1      18.860   9.583  33.765  1.00  0.00     0.016 A 
HETATM    7  C19 UNK     1      18.947  10.915  34.168  1.00  0.00     0.043 A 
HETATM    8  C21 UNK     1      17.785  11.661  34.369  1.00  0.00     0.116 A 
HETATM    9  C20 UNK     1      16.537  11.074  34.168  1.00  0.00     0.043 A 
HETATM   10  F1  UNK     1      17.869  12.941  34.755  1.00  0.00    -0.206 F 
HETATM   11  C17 UNK     1      16.449   9.741  33.765  1.00  0.00     0.016 A 
ENDBRANCH   3   5
BRANCH   2  12
HETATM   12  C2  UNK     1      18.501   5.309  32.823  1.00  0.00    -0.015 A 
HETATM   13  C5  UNK     1      18.291   4.370  33.826  1.00  0.00     0.052 A 
HETATM   14  C3  UNK     1      18.234   3.014  33.500  1.00  0.00     0.102 A 
HETATM   15  C1  UNK     1      18.390   2.610  32.174  1.00  0.00     0.103 A 
HETATM   16  C7  UNK     1      18.601   3.560  31.174  1.00  0.00     0.059 A 
HETATM   17  C8  UNK     1      18.657   4.915  31.501  1.00  0.00     0.024 A 
HETATM   18 Br1  UNK     1      18.948   6.156  30.092  1.00  0.00    -0.050 Br
BRANCH  14  19
HETATM   19  O2  UNK     1      18.027   2.096  34.484  1.00  0.00    -0.353 OA
HETATM   20  C22 UNK     1      18.763   2.265  35.694  1.00  0.00     0.210 C 
ENDBRANCH  14  19
BRANCH  15  21
HETATM   21  O1  UNK     1      18.337   1.290  31.843  1.00  0.00    -0.344 OA
BRANCH  21  22
HETATM   22  C4  UNK     1      19.032   0.889  30.663  1.00  0.00     0.216 C 
BRANCH  22  23
HETATM   23  C6  UNK     1      19.650  -0.459  30.893  1.00  0.00    -0.012 A 
HETATM   24  C12 UNK     1      20.048  -1.266  29.830  1.00  0.00     0.042 A 
HETATM   25 Cl1  UNK     1      19.852  -0.760  28.191  1.00  0.00    -0.084 Cl
HETATM   26  C14 UNK     1      20.618  -2.513  30.082  1.00  0.00     0.024 A 
HETATM   27  C18 UNK     1      20.789  -2.949  31.397  1.00  0.00     0.002 A 
HETATM   28  C15 UNK     1      20.389  -2.137  32.458  1.00  0.00     0.001 A 
HETATM   29  C13 UNK     1      19.818  -0.890  32.206  1.00  0.00     0.011 A 
ENDBRANCH  22  23
ENDBRANCH  21  22
ENDBRANCH  15  21
ENDBRANCH   2  12
TORSDOF 6
ENDMDL
MODEL 4
REMARK VINA RESULT:      -8.7     12.055     14.052
REMARK  6 active torsions:
REMARK  status: ('A' for Active; 'I' for Inactive)
REMARK    1  A    between atoms: C1_7  and  O1_4 
REMARK    2  A    between atoms: C4_10  and  O1_4 
REMARK    3  A    between atoms: C3_9  and  O2_5 
REMARK    4  A    between atoms: C2_8  and  C9_15 
REMARK    5  A    between atoms: C4_10  and  C6_12 
REMARK    6  A    between atoms: C10_16  and  C11_17 
ROOT
HETATM    1  N1  UNK     1      27.381 -10.653  39.590  1.00  0.00    -0.191 NA
HETATM    2  C9  UNK     1      27.403  -8.912  36.612  1.00  0.00     0.036 C 
HETATM    3  C10 UNK     1      26.598  -9.794  37.264  1.00  0.00     0.055 C 
HETATM    4  C23 UNK     1      27.040 -10.264  38.551  1.00  0.00     0.100 C 
ENDROOT
BRANCH   3   5
HETATM    5  C11 UNK     1      25.330 -10.274  36.736  1.00  0.00    -0.015 A 
HETATM    6  C16 UNK     1      25.232 -11.567  36.225  1.00  0.00     0.016 A 
HETATM    7  C19 UNK     1      24.016 -12.027  35.718  1.00  0.00     0.043 A 
HETATM    8  C21 UNK     1      22.898 -11.192  35.725  1.00  0.00     0.116 A 
HETATM    9  C20 UNK     1      22.996  -9.899  36.236  1.00  0.00     0.043 A 
HETATM   10  F1  UNK     1      21.730 -11.634  35.239  1.00  0.00    -0.206 F 
HETATM   11  C17 UNK     1      24.212  -9.439  36.742  1.00  0.00     0.016 A 
ENDBRANCH   3   5
BRANCH   2  12
HETATM   12  C2  UNK     1      28.686  -8.396  37.110  1.00  0.00    -0.015 A 
HETATM   13  C5  UNK     1      29.838  -9.054  36.694  1.00  0.00     0.052 A 
HETATM   14  C3  UNK     1      31.084  -8.607  37.135  1.00  0.00     0.102 A 
HETATM   15  C1  UNK     1      31.168  -7.506  37.988  1.00  0.00     0.103 A 
HETATM   16  C7  UNK     1      30.006  -6.852  38.400  1.00  0.00     0.059 A 
HETATM   17  C8  UNK     1      28.760  -7.299  37.959  1.00  0.00     0.024 A 
HETATM   18 Br1  UNK     1      27.219  -6.363  38.557  1.00  0.00    -0.050 Br
BRANCH  14  19
HETATM   19  O2  UNK     1      32.211  -9.253  36.726  1.00  0.00    -0.353 OA
HETATM   20  C22 UNK     1      32.650  -9.010  35.391  1.00  0.00     0.210 C 
ENDBRANCH  14  19
BRANCH  15  21
HETATM   21  O1  UNK     1      32.378  -7.061  38.425  1.00  0.00    -0.344 OA
BRANCH  21  22
HETATM   22  C4  UNK     1      32.612  -5.655  38.361  1.00  0.00     0.216 C 
BRANCH  22  23
HETATM   23  C6  UNK     1      33.371  -5.342  37.104  1.00  0.00    -0.012 A 
HETATM   24  C12 UNK     1      32.985  -4.301  36.263  1.00  0.00     0.042 A 
HETATM   25 Cl1  UNK     1      31.615  -3.313  36.621  1.00  0.00    -0.084 Cl
HETATM   26  C14 UNK     1      33.714  -4.040  35.103  1.00  0.00     0.024 A 
HETATM   27  C18 UNK     1      34.826  -4.821  34.788  1.00  0.00     0.002 A 
HETATM   28  C15 UNK     1      35.208  -5.863  35.633  1.00  0.00     0.001 A 
HETATM   29  C13 UNK     1      34.479  -6.124  36.793  1.00  0.00     0.011 A 
ENDBRANCH  22  23
ENDBRANCH  21  22
ENDBRANCH  15  21
ENDBRANCH   2  12
TORSDOF 6
ENDMDL
MODEL 5
REMARK VINA RESULT:      -8.3     26.883     28.673
REMARK  6 active torsions:
REMARK  status: ('A' for Active; 'I' for Inactive)
REMARK    1  A    between atoms: C1_7  and  O1_4 
REMARK    2  A    between atoms: C4_10  and  O1_4 
REMARK    3  A    between atoms: C3_9  and  O2_5 
REMARK    4  A    between atoms: C2_8  and  C9_15 
REMARK    5  A    between atoms: C4_10  and  C6_12 
REMARK    6  A    between atoms: C10_16  and  C11_17 
ROOT
HETATM    1  N1  UNK     1      15.915  11.701   7.356  1.00  0.00    -0.191 NA
HETATM    2  C9  UNK     1      17.111   9.958  10.081  1.00  0.00     0.036 C 
HETATM    3  C10 UNK     1      17.563  10.885   9.194  1.00  0.00     0.055 C 
HETATM    4  C23 UNK     1      16.643  11.331   8.180  1.00  0.00     0.100 C 
ENDROOT
BRANCH   3   5
HETATM    5  C11 UNK     1      18.905  11.446   9.223  1.00  0.00    -0.015 A 
HETATM    6  C16 UNK     1      19.535  11.685  10.444  1.00  0.00     0.016 A 
HETATM    7  C19 UNK     1      20.821  12.224  10.471  1.00  0.00     0.043 A 
HETATM    8  C21 UNK     1      21.478  12.522   9.277  1.00  0.00     0.116 A 
HETATM    9  C20 UNK     1      20.848  12.282   8.056  1.00  0.00     0.043 A 
HETATM   10  F1  UNK     1      22.714  13.038   9.303  1.00  0.00    -0.206 F 
HETATM   11  C17 UNK     1      19.561  11.744   8.029  1.00  0.00     0.016 A 
ENDBRANCH   3   5
BRANCH   2  12
HETATM   12  C2  UNK     1      15.764   9.371  10.094  1.00  0.00    -0.015 A 
HETATM   13  C5  UNK     1      15.607   8.131   9.486  1.00  0.00     0.052 A 
HETATM   14  C3  UNK     1      14.350   7.526   9.469  1.00  0.00     0.102 A 
HETATM   15  C1  UNK     1      13.260   8.167  10.059  1.00  0.00     0.103 A 
HETATM   16  C7  UNK     1      13.427   9.411  10.667  1.00  0.00     0.059 A 
HETATM   17  C8  UNK     1      14.684  10.016  10.684  1.00  0.00     0.024 A 
HETATM   18 Br1  UNK     1      14.843  11.711  11.528  1.00  0.00    -0.050 Br
BRANCH  14  19
HETATM   19  O2  UNK     1      14.199   6.310   8.873  1.00  0.00    -0.353 OA
HETATM   20  C22 UNK     1      14.786   5.188   9.530  1.00  0.00     0.210 C 
ENDBRANCH  14  19
BRANCH  15  21
HETATM   21  O1  UNK     1      12.028   7.586  10.048  1.00  0.00    -0.344 OA
BRANCH  21  22
HETATM   22  C4  UNK     1      10.981   8.302   9.396  1.00  0.00     0.216 C 
BRANCH  22  23
HETATM   23  C6  UNK     1      10.490   7.497   8.228  1.00  0.00    -0.012 A 
HETATM   24  C12 UNK     1       9.227   6.911   8.230  1.00  0.00     0.042 A 
HETATM   25 Cl1  UNK     1       8.156   7.078   9.574  1.00  0.00    -0.084 Cl
HETATM   26  C14 UNK     1       8.806   6.168   7.127  1.00  0.00     0.024 A 
HETATM   27  C18 UNK     1       9.649   6.016   6.026  1.00  0.00     0.002 A 
HETATM   28  C15 UNK     1      10.913   6.605   6.029  1.00  0.00     0.001 A 
HETATM   29  C13 UNK     1      11.335   7.347   7.132  1.00  0.00     0.011 A 
ENDBRANCH  22  23
ENDBRANCH  21  22
ENDBRANCH  15  21
ENDBRANCH   2  12
TORSDOF 6
ENDMDL
MODEL 6
REMARK VINA RESULT:      -8.3     26.308     28.543
REMARK  6 active torsions:
REMARK  status: ('A' for Active; 'I' for Inactive)
REMARK    1  A    between atoms: C1_7  and  O1_4 
REMARK    2  A    between atoms: C4_10  and  O1_4 
REMARK    3  A    between atoms: C3_9  and  O2_5 
REMARK    4  A    between atoms: C2_8  and  C9_15 
REMARK    5  A    between atoms: C4_10  and  C6_12 
REMARK    6  A    between atoms: C10_16  and  C11_17 
ROOT
HETATM    1  N1  UNK     1      16.078  12.425  11.450  1.00  0.00    -0.191 NA
HETATM    2  C9  UNK     1      17.764  10.175   9.453  1.00  0.00     0.036 C 
HETATM    3  C10 UNK     1      18.032  11.320  10.137  1.00  0.00     0.055 C 
HETATM    4  C23 UNK     1      16.944  11.924  10.861  1.00  0.00     0.100 C 
ENDROOT
BRANCH   3   5
HETATM    5  C11 UNK     1      19.342  11.950  10.179  1.00  0.00    -0.015 A 
HETATM    6  C16 UNK     1      20.164  11.924   9.053  1.00  0.00     0.016 A 
HETATM    7  C19 UNK     1      21.421  12.528   9.093  1.00  0.00     0.043 A 
HETATM    8  C21 UNK     1      21.855  13.159  10.260  1.00  0.00     0.116 A 
HETATM    9  C20 UNK     1      21.032  13.185  11.385  1.00  0.00     0.043 A 
HETATM   10  F1  UNK     1      23.062  13.739  10.298  1.00  0.00    -0.206 F 
HETATM   11  C17 UNK     1      19.776  12.580  11.345  1.00  0.00     0.016 A 
ENDBRANCH   3   5
BRANCH   2  12
HETATM   12  C2  UNK     1      16.460   9.500   9.389  1.00  0.00    -0.015 A 
HETATM   13  C5  UNK     1      16.306   8.344  10.146  1.00  0.00     0.052 A 
HETATM   14  C3  UNK     1      15.089   7.663  10.124  1.00  0.00     0.102 A 
HETATM   15  C1  UNK     1      14.036   8.143   9.345  1.00  0.00     0.103 A 
HETATM   16  C7  UNK     1      14.199   9.303   8.589  1.00  0.00     0.059 A 
HETATM   17  C8  UNK     1      15.417   9.985   8.611  1.00  0.00     0.024 A 
HETATM   18 Br1  UNK     1      15.572  11.559   7.558  1.00  0.00    -0.050 Br
BRANCH  14  19
HETATM   19  O2  UNK     1      14.941   6.531  10.867  1.00  0.00    -0.353 OA
HETATM   20  C22 UNK     1      15.164   5.287  10.206  1.00  0.00     0.210 C 
ENDBRANCH  14  19
BRANCH  15  21
HETATM   21  O1  UNK     1      12.843   7.486   9.315  1.00  0.00    -0.344 OA
BRANCH  21  22
HETATM   22  C4  UNK     1      11.689   8.254   8.979  1.00  0.00     0.216 C 
BRANCH  22  23
HETATM   23  C6  UNK     1      10.851   7.479   8.004  1.00  0.00    -0.012 A 
HETATM   24  C12 UNK     1       9.489   7.280   8.215  1.00  0.00     0.042 A 
HETATM   25 Cl1  UNK     1       8.690   7.913   9.608  1.00  0.00    -0.084 Cl
HETATM   26  C14 UNK     1       8.744   6.553   7.287  1.00  0.00     0.024 A 
HETATM   27  C18 UNK     1       9.363   6.029   6.151  1.00  0.00     0.002 A 
HETATM   28  C15 UNK     1      10.727   6.232   5.945  1.00  0.00     0.001 A 
HETATM   29  C13 UNK     1      11.473   6.958   6.873  1.00  0.00     0.011 A 
ENDBRANCH  22  23
ENDBRANCH  21  22
ENDBRANCH  15  21
ENDBRANCH   2  12
TORSDOF 6
ENDMDL
MODEL 7
REMARK VINA RESULT:      -8.2     11.835     14.086
REMARK  6 active torsions:
REMARK  status: ('A' for Active; 'I' for Inactive)
REMARK    1  A    between atoms: C1_7  and  O1_4 
REMARK    2  A    between atoms: C4_10  and  O1_4 
REMARK    3  A    between atoms: C3_9  and  O2_5 
REMARK    4  A    between atoms: C2_8  and  C9_15 
REMARK    5  A    between atoms: C4_10  and  C6_12 
REMARK    6  A    between atoms: C10_16  and  C11_17 
ROOT
HETATM    1  N1  UNK     1      27.540 -10.494  39.383  1.00  0.00    -0.191 NA
HETATM    2  C9  UNK     1      27.296  -8.712  36.440  1.00  0.00     0.036 C 
HETATM    3  C10 UNK     1      26.573  -9.638  37.126  1.00  0.00     0.055 C 
HETATM    4  C23 UNK     1      27.117 -10.106  38.375  1.00  0.00     0.100 C 
ENDROOT
BRANCH   3   5
HETATM    5  C11 UNK     1      25.296 -10.166  36.672  1.00  0.00    -0.015 A 
HETATM    6  C16 UNK     1      25.216 -11.466  36.174  1.00  0.00     0.016 A 
HETATM    7  C19 UNK     1      23.991 -11.971  35.738  1.00  0.00     0.043 A 
HETATM    8  C21 UNK     1      22.846 -11.177  35.800  1.00  0.00     0.116 A 
HETATM    9  C20 UNK     1      22.927  -9.877  36.298  1.00  0.00     0.043 A 
HETATM   10  F1  UNK     1      21.670 -11.663  35.382  1.00  0.00    -0.206 F 
HETATM   11  C17 UNK     1      24.152  -9.370  36.733  1.00  0.00     0.016 A 
ENDBRANCH   3   5
BRANCH   2  12
HETATM   12  C2  UNK     1      28.585  -8.147  36.864  1.00  0.00    -0.015 A 
HETATM   13  C5  UNK     1      28.550  -7.121  37.801  1.00  0.00     0.052 A 
HETATM   14  C3  UNK     1      29.743  -6.547  38.240  1.00  0.00     0.102 A 
HETATM   15  C1  UNK     1      30.962  -7.003  37.738  1.00  0.00     0.103 A 
HETATM   16  C7  UNK     1      30.988  -8.033  36.797  1.00  0.00     0.059 A 
HETATM   17  C8  UNK     1      29.794  -8.607  36.358  1.00  0.00     0.024 A 
HETATM   18 Br1  UNK     1      29.900 -10.005  35.076  1.00  0.00    -0.050 Br
BRANCH  14  19
HETATM   19  O2  UNK     1      29.706  -5.543  39.160  1.00  0.00    -0.353 OA
HETATM   20  C22 UNK     1      29.127  -4.306  38.746  1.00  0.00     0.210 C 
ENDBRANCH  14  19
BRANCH  15  21
HETATM   21  O1  UNK     1      32.134  -6.451  38.158  1.00  0.00    -0.344 OA
BRANCH  21  22
HETATM   22  C4  UNK     1      32.546  -5.243  37.521  1.00  0.00     0.216 C 
BRANCH  22  23
HETATM   23  C6  UNK     1      33.529  -5.573  36.435  1.00  0.00    -0.012 A 
HETATM   24  C12 UNK     1      33.159  -5.564  35.093  1.00  0.00     0.042 A 
HETATM   25 Cl1  UNK     1      31.550  -5.173  34.603  1.00  0.00    -0.084 Cl
HETATM   26  C14 UNK     1      34.100  -5.878  34.113  1.00  0.00     0.024 A 
HETATM   27  C18 UNK     1      35.408  -6.197  34.478  1.00  0.00     0.002 A 
HETATM   28  C15 UNK     1      35.774  -6.205  35.824  1.00  0.00     0.001 A 
HETATM   29  C13 UNK     1      34.832  -5.893  36.805  1.00  0.00     0.011 A 
ENDBRANCH  22  23
ENDBRANCH  21  22
ENDBRANCH  15  21
ENDBRANCH   2  12
TORSDOF 6
ENDMDL
MODEL 8
REMARK VINA RESULT:      -8.2      9.982     13.388
REMARK  6 active torsions:
REMARK  status: ('A' for Active; 'I' for Inactive)
REMARK    1  A    between atoms: C1_7  and  O1_4 
REMARK    2  A    between atoms: C4_10  and  O1_4 
REMARK    3  A    between atoms: C3_9  and  O2_5 
REMARK    4  A    between atoms: C2_8  and  C9_15 
REMARK    5  A    between atoms: C4_10  and  C6_12 
REMARK    6  A    between atoms: C10_16  and  C11_17 
ROOT
HETATM    1  N1  UNK     1      29.188  -6.390  34.748  1.00  0.00    -0.191 NA
HETATM    2  C9  UNK     1      30.191  -7.113  37.968  1.00  0.00     0.036 C 
HETATM    3  C10 UNK     1      30.761  -6.755  36.786  1.00  0.00     0.055 C 
HETATM    4  C23 UNK     1      29.882  -6.555  35.663  1.00  0.00     0.100 C 
ENDROOT
BRANCH   3   5
HETATM    5  C11 UNK     1      32.191  -6.560  36.604  1.00  0.00    -0.015 A 
HETATM    6  C16 UNK     1      32.686  -6.137  35.371  1.00  0.00     0.016 A 
HETATM    7  C19 UNK     1      34.058  -5.951  35.196  1.00  0.00     0.043 A 
HETATM    8  C21 UNK     1      34.934  -6.188  36.256  1.00  0.00     0.116 A 
HETATM    9  C20 UNK     1      34.439  -6.611  37.489  1.00  0.00     0.043 A 
HETATM   10  F1  UNK     1      36.251  -6.008  36.089  1.00  0.00    -0.206 F 
HETATM   11  C17 UNK     1      33.067  -6.798  37.663  1.00  0.00     0.016 A 
ENDBRANCH   3   5
BRANCH   2  12
HETATM   12  C2  UNK     1      28.753  -7.313  38.198  1.00  0.00    -0.015 A 
HETATM   13  C5  UNK     1      28.251  -8.593  37.998  1.00  0.00     0.052 A 
HETATM   14  C3  UNK     1      26.893  -8.841  38.202  1.00  0.00     0.102 A 
HETATM   15  C1  UNK     1      26.048  -7.806  38.604  1.00  0.00     0.103 A 
HETATM   16  C7  UNK     1      26.561  -6.524  38.803  1.00  0.00     0.059 A 
HETATM   17  C8  UNK     1      27.919  -6.277  38.598  1.00  0.00     0.024 A 
HETATM   18 Br1  UNK     1      28.552  -4.508  38.887  1.00  0.00    -0.050 Br
BRANCH  14  19
HETATM   19  O2  UNK     1      26.404 -10.098  38.005  1.00  0.00    -0.353 OA
HETATM   20  C22 UNK     1      26.159 -10.495  36.658  1.00  0.00     0.210 C 
ENDBRANCH  14  19
BRANCH  15  21
HETATM   21  O1  UNK     1      24.722  -8.036  38.807  1.00  0.00    -0.344 OA
BRANCH  21  22
HETATM   22  C4  UNK     1      23.900  -6.900  39.068  1.00  0.00     0.216 C 
BRANCH  22  23
HETATM   23  C6  UNK     1      22.465  -7.335  39.123  1.00  0.00    -0.012 A 
HETATM   24  C12 UNK     1      21.439  -6.514  38.661  1.00  0.00     0.042 A 
HETATM   25 Cl1  UNK     1      21.761  -4.953  37.999  1.00  0.00    -0.084 Cl
HETATM   26  C14 UNK     1      20.117  -6.953  38.731  1.00  0.00     0.024 A 
HETATM   27  C18 UNK     1      19.826  -8.211  39.260  1.00  0.00     0.002 A 
HETATM   28  C15 UNK     1      20.857  -9.028  39.722  1.00  0.00     0.001 A 
HETATM   29  C13 UNK     1      22.179  -8.590  39.653  1.00  0.00     0.011 A 
ENDBRANCH  22  23
ENDBRANCH  21  22
ENDBRANCH  15  21
ENDBRANCH   2  12
TORSDOF 6
ENDMDL
MODEL 9
REMARK VINA RESULT:      -8.1     10.739     12.716
REMARK  6 active torsions:
REMARK  status: ('A' for Active; 'I' for Inactive)
REMARK    1  A    between atoms: C1_7  and  O1_4 
REMARK    2  A    between atoms: C4_10  and  O1_4 
REMARK    3  A    between atoms: C3_9  and  O2_5 
REMARK    4  A    between atoms: C2_8  and  C9_15 
REMARK    5  A    between atoms: C4_10  and  C6_12 
REMARK    6  A    between atoms: C10_16  and  C11_17 
ROOT
HETATM    1  N1  UNK     1      25.720  -5.421  39.023  1.00  0.00    -0.191 NA
HETATM    2  C9  UNK     1      25.781  -8.668  37.861  1.00  0.00     0.036 C 
HETATM    3  C10 UNK     1      24.865  -7.776  38.327  1.00  0.00     0.055 C 
HETATM    4  C23 UNK     1      25.348  -6.474  38.710  1.00  0.00     0.100 C 
ENDROOT
BRANCH   3   5
HETATM    5  C11 UNK     1      23.444  -8.063  38.448  1.00  0.00    -0.015 A 
HETATM    6  C16 UNK     1      22.754  -8.631  37.378  1.00  0.00     0.016 A 
HETATM    7  C19 UNK     1      21.391  -8.906  37.494  1.00  0.00     0.043 A 
HETATM    8  C21 UNK     1      20.720  -8.614  38.682  1.00  0.00     0.116 A 
HETATM    9  C20 UNK     1      21.410  -8.047  39.752  1.00  0.00     0.043 A 
HETATM   10  F1  UNK     1      19.411  -8.879  38.794  1.00  0.00    -0.206 F 
HETATM   11  C17 UNK     1      22.773  -7.771  39.636  1.00  0.00     0.016 A 
ENDBRANCH   3   5
BRANCH   2  12
HETATM   12  C2  UNK     1      27.222  -8.418  37.715  1.00  0.00    -0.015 A 
HETATM   13  C5  UNK     1      27.622  -7.621  36.649  1.00  0.00     0.052 A 
HETATM   14  C3  UNK     1      28.978  -7.350  36.462  1.00  0.00     0.102 A 
HETATM   15  C1  UNK     1      29.922  -7.880  37.342  1.00  0.00     0.103 A 
HETATM   16  C7  UNK     1      29.511  -8.678  38.409  1.00  0.00     0.059 A 
HETATM   17  C8  UNK     1      28.155  -8.949  38.596  1.00  0.00     0.024 A 
HETATM   18 Br1  UNK     1      27.663 -10.044  40.069  1.00  0.00    -0.050 Br
BRANCH  14  19
HETATM   19  O2  UNK     1      29.367  -6.568  35.417  1.00  0.00    -0.353 OA
HETATM   20  C22 UNK     1      28.667  -6.735  34.186  1.00  0.00     0.210 C 
ENDBRANCH  14  19
BRANCH  15  21
HETATM   21  O1  UNK     1      31.248  -7.622  37.170  1.00  0.00    -0.344 OA
BRANCH  21  22
HETATM   22  C4  UNK     1      31.828  -6.625  38.009  1.00  0.00     0.216 C 
BRANCH  22  23
HETATM   23  C6  UNK     1      32.433  -5.553  37.149  1.00  0.00    -0.012 A 
HETATM   24  C12 UNK     1      31.801  -4.325  36.968  1.00  0.00     0.042 A 
HETATM   25 Cl1  UNK     1      30.291  -3.968  37.723  1.00  0.00    -0.084 Cl
HETATM   26  C14 UNK     1      32.393  -3.354  36.161  1.00  0.00     0.024 A 
HETATM   27  C18 UNK     1      33.615  -3.613  35.539  1.00  0.00     0.002 A 
HETATM   28  C15 UNK     1      34.243  -4.845  35.723  1.00  0.00     0.001 A 
HETATM   29  C13 UNK     1      33.651  -5.817  36.529  1.00  0.00     0.011 A 
ENDBRANCH  22  23
ENDBRANCH  21  22
ENDBRANCH  15  21
ENDBRANCH   2  12
TORSDOF 6
ENDMDL
MODEL 10
REMARK VINA RESULT:      -8.1     26.666     28.419
REMARK  6 active torsions:
REMARK  status: ('A' for Active; 'I' for Inactive)
REMARK    1  A    between atoms: C1_7  and  O1_4 
REMARK    2  A    between atoms: C4_10  and  O1_4 
REMARK    3  A    between atoms: C3_9  and  O2_5 
REMARK    4  A    between atoms: C2_8  and  C9_15 
REMARK    5  A    between atoms: C4_10  and  C6_12 
REMARK    6  A    between atoms: C10_16  and  C11_17 
ROOT
HETATM    1  N1  UNK     1      15.456  11.073   7.566  1.00  0.00    -0.191 NA
HETATM    2  C9  UNK     1      16.764   9.702  10.448  1.00  0.00     0.036 C 
HETATM    3  C10 UNK     1      17.075  10.688   9.564  1.00  0.00     0.055 C 
HETATM    4  C23 UNK     1      16.172  10.894   8.461  1.00  0.00     0.100 C 
ENDROOT
BRANCH   3   5
HETATM    5  C11 UNK     1      18.251  11.536   9.679  1.00  0.00    -0.015 A 
HETATM    6  C16 UNK     1      19.112  11.686   8.593  1.00  0.00     0.016 A 
HETATM    7  C19 UNK     1      20.240  12.498   8.703  1.00  0.00     0.043 A 
HETATM    8  C21 UNK     1      20.507  13.162   9.901  1.00  0.00     0.116 A 
HETATM    9  C20 UNK     1      19.646  13.013  10.987  1.00  0.00     0.043 A 
HETATM   10  F1  UNK     1      21.591  13.944  10.006  1.00  0.00    -0.206 F 
HETATM   11  C17 UNK     1      18.518  12.200  10.877  1.00  0.00     0.016 A 
ENDBRANCH   3   5
BRANCH   2  12
HETATM   12  C2  UNK     1      15.584   8.828  10.376  1.00  0.00    -0.015 A 
HETATM   13  C5  UNK     1      14.361   9.384  10.728  1.00  0.00     0.052 A 
HETATM   14  C3  UNK     1      13.207   8.600  10.677  1.00  0.00     0.102 A 
HETATM   15  C1  UNK     1      13.288   7.266  10.275  1.00  0.00     0.103 A 
HETATM   16  C7  UNK     1      14.521   6.717   9.924  1.00  0.00     0.059 A 
HETATM   17  C8  UNK     1      15.674   7.501   9.974  1.00  0.00     0.024 A 
HETATM   18 Br1  UNK     1      17.321   6.691   9.482  1.00  0.00    -0.050 Br
BRANCH  14  19
HETATM   19  O2  UNK     1      12.009   9.148  11.022  1.00  0.00    -0.353 OA
HETATM   20  C22 UNK     1      11.993  10.012  12.157  1.00  0.00     0.210 C 
ENDBRANCH  14  19
BRANCH  15  21
HETATM   21  O1  UNK     1      12.170   6.492  10.222  1.00  0.00    -0.344 OA
BRANCH  21  22
HETATM   22  C4  UNK     1      12.174   5.413   9.288  1.00  0.00     0.216 C 
BRANCH  22  23
HETATM   23  C6  UNK     1      11.305   5.774   8.119  1.00  0.00    -0.012 A 
HETATM   24  C12 UNK     1       9.916   5.706   8.197  1.00  0.00     0.042 A 
HETATM   25 Cl1  UNK     1       9.118   5.205   9.643  1.00  0.00    -0.084 Cl
HETATM   26  C14 UNK     1       9.142   6.049   7.089  1.00  0.00     0.024 A 
HETATM   27  C18 UNK     1       9.760   6.458   5.906  1.00  0.00     0.002 A 
HETATM   28  C15 UNK     1      11.151   6.524   5.833  1.00  0.00     0.001 A 
HETATM   29  C13 UNK     1      11.925   6.181   6.941  1.00  0.00     0.011 A 
ENDBRANCH  22  23
ENDBRANCH  21  22
ENDBRANCH  15  21
ENDBRANCH   2  12
TORSDOF 6
ENDMDL
