MODEL 1
REMARK VINA RESULT:     -10.1      0.000      0.000
REMARK  6 active torsions:
REMARK  status: ('A' for Active; 'I' for Inactive)
REMARK    1  A    between atoms: C18_25  and  O1_2 
REMARK    2  A    between atoms: C7_14  and  O1_2 
REMARK    3  A    between atoms: C5_12  and  N1_5 
REMARK    4  A    between atoms: C6_13  and  N2_6 
REMARK    5  A    between atoms: C10_17  and  N3_7 
REMARK    6  A    between atoms: C6_13  and  N3_7 
ROOT
HETATM    1  S1  UNK     1      18.293  -1.692  37.965  1.00  0.00    -0.041 SA
HETATM    2  C6  UNK     1      18.678  -2.536  36.567  1.00  0.00     0.174 C 
ENDROOT
BRANCH   2   3
HETATM    3  N2  UNK     1      19.145  -1.871  35.482  1.00  0.00    -0.355 N 
HETATM    4  C3  UNK     1      18.409  -0.774  34.875  1.00  0.00     0.145 C 
HETATM    5  C1  UNK     1      18.259  -0.986  33.368  1.00  0.00     0.143 C 
HETATM    6  N1  UNK     1      19.562  -1.300  32.764  1.00  0.00    -0.376 N 
HETATM    7  C2  UNK     1      20.312  -2.403  33.389  1.00  0.00     0.143 C 
HETATM    8  C4  UNK     1      20.441  -2.170  34.894  1.00  0.00     0.145 C 
BRANCH   6   9
HETATM    9  C5  UNK     1      19.764  -1.070  31.400  1.00  0.00     0.064 A 
HETATM   10  C7  UNK     1      19.482   0.181  30.798  1.00  0.00     0.095 A 
HETATM   11  C9  UNK     1      19.689   0.398  29.436  1.00  0.00     0.039 A 
HETATM   12  C12 UNK     1      20.186  -0.630  28.634  1.00  0.00     0.003 A 
HETATM   13  C11 UNK     1      20.475  -1.875  29.194  1.00  0.00     0.002 A 
HETATM   14  C8  UNK     1      20.267  -2.090  30.558  1.00  0.00     0.032 A 
BRANCH  10  15
HETATM   15  O1  UNK     1      18.996   1.198  31.564  1.00  0.00    -0.349 OA
BRANCH  15  16
HETATM   16  C18 UNK     1      18.483   2.337  30.878  1.00  0.00     0.171 C 
HETATM   17  C21 UNK     1      18.158   3.418  31.888  1.00  0.00     0.034 C 
ENDBRANCH  15  16
ENDBRANCH  10  15
ENDBRANCH   6   9
ENDBRANCH   2   3
BRANCH   2  18
HETATM   18  N3  UNK     1      18.581  -3.916  36.526  1.00  0.00    -0.333 N 
HETATM   19  H10 UNK     1      17.660  -4.262  36.266  1.00  0.00     0.168 HD
BRANCH  18  20
HETATM   20  C10 UNK     1      19.521  -4.922  36.756  1.00  0.00     0.036 A 
HETATM   21  C13 UNK     1      19.621  -5.998  35.880  1.00  0.00     0.067 A 
HETATM   22  C16 UNK     1      20.569  -6.993  36.129  1.00  0.00     0.092 A 
HETATM   23  C15 UNK     1      21.424  -6.948  37.231  1.00  0.00     0.004 A 
HETATM   24  O2  UNK     1      20.624  -8.057  35.207  1.00  0.00    -0.275 OA
HETATM   25  C19 UNK     1      22.392  -8.038  37.415  1.00  0.00    -0.043 A 
HETATM   26  C17 UNK     1      21.308  -5.856  38.101  1.00  0.00     0.017 A 
HETATM   27  C20 UNK     1      22.421  -9.037  36.522  1.00  0.00     0.090 A 
HETATM   28  C22 UNK     1      23.325  -8.019  38.590  1.00  0.00     0.049 C 
HETATM   29  C23 UNK     1      21.525  -9.098  35.355  1.00  0.00     0.288 A 
HETATM   30  O3  UNK     1      21.582 -10.029  34.559  1.00  0.00    -0.260 OA
HETATM   31  C14 UNK     1      20.363  -4.851  37.864  1.00  0.00     0.030 A 
ENDBRANCH  18  20
ENDBRANCH   2  18
TORSDOF 6
ENDMDL
MODEL 2
REMARK VINA RESULT:      -9.7      1.849      2.199
REMARK  6 active torsions:
REMARK  status: ('A' for Active; 'I' for Inactive)
REMARK    1  A    between atoms: C18_25  and  O1_2 
REMARK    2  A    between atoms: C7_14  and  O1_2 
REMARK    3  A    between atoms: C5_12  and  N1_5 
REMARK    4  A    between atoms: C6_13  and  N2_6 
REMARK    5  A    between atoms: C10_17  and  N3_7 
REMARK    6  A    between atoms: C6_13  and  N3_7 
ROOT
HETATM    1  S1  UNK     1      18.179  -1.647  37.887  1.00  0.00    -0.041 SA
HETATM    2  C6  UNK     1      18.669  -2.502  36.528  1.00  0.00     0.174 C 
ENDROOT
BRANCH   2   3
HETATM    3  N2  UNK     1      19.136  -1.838  35.443  1.00  0.00    -0.355 N 
HETATM    4  C3  UNK     1      18.396  -0.748  34.828  1.00  0.00     0.145 C 
HETATM    5  C1  UNK     1      18.255  -0.966  33.322  1.00  0.00     0.143 C 
HETATM    6  N1  UNK     1      19.562  -1.274  32.725  1.00  0.00    -0.376 N 
HETATM    7  C2  UNK     1      20.317  -2.370  33.358  1.00  0.00     0.143 C 
HETATM    8  C4  UNK     1      20.437  -2.131  34.862  1.00  0.00     0.145 C 
BRANCH   6   9
HETATM    9  C5  UNK     1      19.770  -1.047  31.361  1.00  0.00     0.064 A 
HETATM   10  C7  UNK     1      19.616   0.235  30.780  1.00  0.00     0.095 A 
HETATM   11  C9  UNK     1      19.827   0.448  29.418  1.00  0.00     0.039 A 
HETATM   12  C12 UNK     1      20.198  -0.616  28.595  1.00  0.00     0.003 A 
HETATM   13  C11 UNK     1      20.358  -1.892  29.135  1.00  0.00     0.002 A 
HETATM   14  C8  UNK     1      20.148  -2.104  30.498  1.00  0.00     0.032 A 
BRANCH  10  15
HETATM   15  O1  UNK     1      19.254   1.288  31.566  1.00  0.00    -0.349 OA
BRANCH  15  16
HETATM   16  C18 UNK     1      18.485   2.319  30.953  1.00  0.00     0.171 C 
HETATM   17  C21 UNK     1      18.163   3.377  31.987  1.00  0.00     0.034 C 
ENDBRANCH  15  16
ENDBRANCH  10  15
ENDBRANCH   6   9
ENDBRANCH   2   3
BRANCH   2  18
HETATM   18  N3  UNK     1      18.657  -3.886  36.522  1.00  0.00    -0.333 N 
HETATM   19  H10 UNK     1      17.935  -4.294  35.932  1.00  0.00     0.168 HD
BRANCH  18  20
HETATM   20  C10 UNK     1      19.465  -4.826  37.161  1.00  0.00     0.036 A 
HETATM   21  C13 UNK     1      20.799  -4.535  37.428  1.00  0.00     0.067 A 
HETATM   22  C16 UNK     1      21.590  -5.490  38.070  1.00  0.00     0.092 A 
HETATM   23  C15 UNK     1      21.090  -6.734  38.456  1.00  0.00     0.004 A 
HETATM   24  O2  UNK     1      22.932  -5.137  38.314  1.00  0.00    -0.275 OA
HETATM   25  C19 UNK     1      21.993  -7.679  39.126  1.00  0.00    -0.043 A 
HETATM   26  C17 UNK     1      19.744  -7.009  38.178  1.00  0.00     0.017 A 
HETATM   27  C20 UNK     1      23.265  -7.316  39.345  1.00  0.00     0.090 A 
HETATM   28  C22 UNK     1      21.486  -9.025  39.553  1.00  0.00     0.049 C 
HETATM   29  C23 UNK     1      23.807  -6.007  38.943  1.00  0.00     0.288 A 
HETATM   30  O3  UNK     1      24.977  -5.710  39.161  1.00  0.00    -0.260 OA
HETATM   31  C14 UNK     1      18.938  -6.061  37.536  1.00  0.00     0.030 A 
ENDBRANCH  18  20
ENDBRANCH   2  18
TORSDOF 6
ENDMDL
MODEL 3
REMARK VINA RESULT:      -9.3      6.062     10.571
REMARK  6 active torsions:
REMARK  status: ('A' for Active; 'I' for Inactive)
REMARK    1  A    between atoms: C18_25  and  O1_2 
REMARK    2  A    between atoms: C7_14  and  O1_2 
REMARK    3  A    between atoms: C5_12  and  N1_5 
REMARK    4  A    between atoms: C6_13  and  N2_6 
REMARK    5  A    between atoms: C10_17  and  N3_7 
REMARK    6  A    between atoms: C6_13  and  N3_7 
ROOT
HETATM    1  S1  UNK     1      19.536   5.760  31.652  1.00  0.00    -0.041 SA
HETATM    2  C6  UNK     1      17.983   5.276  32.064  1.00  0.00     0.174 C 
ENDROOT
BRANCH   2   3
HETATM    3  N2  UNK     1      17.167   6.122  32.739  1.00  0.00    -0.355 N 
HETATM    4  C3  UNK     1      16.092   6.845  32.079  1.00  0.00     0.145 C 
HETATM    5  C1  UNK     1      16.160   8.337  32.403  1.00  0.00     0.143 C 
HETATM    6  N1  UNK     1      16.279   8.541  33.854  1.00  0.00    -0.376 N 
HETATM    7  C2  UNK     1      17.360   7.796  34.523  1.00  0.00     0.143 C 
HETATM    8  C4  UNK     1      17.272   6.311  34.177  1.00  0.00     0.145 C 
BRANCH   6   9
HETATM    9  C5  UNK     1      15.889   9.761  34.414  1.00  0.00     0.064 A 
HETATM   10  C7  UNK     1      16.657  10.941  34.256  1.00  0.00     0.095 A 
HETATM   11  C9  UNK     1      16.257  12.152  34.820  1.00  0.00     0.039 A 
HETATM   12  C12 UNK     1      15.076  12.220  35.559  1.00  0.00     0.003 A 
HETATM   13  C11 UNK     1      14.296  11.077  35.735  1.00  0.00     0.002 A 
HETATM   14  C8  UNK     1      14.697   9.866  35.170  1.00  0.00     0.032 A 
BRANCH  10  15
HETATM   15  O1  UNK     1      17.815  10.895  33.537  1.00  0.00    -0.349 OA
BRANCH  15  16
HETATM   16  C18 UNK     1      19.000  11.341  34.191  1.00  0.00     0.171 C 
HETATM   17  C21 UNK     1      19.932  10.163  34.382  1.00  0.00     0.034 C 
ENDBRANCH  15  16
ENDBRANCH  10  15
ENDBRANCH   6   9
ENDBRANCH   2   3
BRANCH   2  18
HETATM   18  N3  UNK     1      17.502   4.039  31.671  1.00  0.00    -0.333 N 
HETATM   19  H10 UNK     1      16.487   3.978  31.637  1.00  0.00     0.168 HD
BRANCH  18  20
HETATM   20  C10 UNK     1      18.154   2.864  31.294  1.00  0.00     0.036 A 
HETATM   21  C13 UNK     1      18.376   1.858  32.227  1.00  0.00     0.067 A 
HETATM   22  C16 UNK     1      19.029   0.690  31.827  1.00  0.00     0.092 A 
HETATM   23  C15 UNK     1      19.471   0.494  30.518  1.00  0.00     0.004 A 
HETATM   24  O2  UNK     1      19.224  -0.294  32.817  1.00  0.00    -0.275 OA
HETATM   25  C19 UNK     1      20.149  -0.766  30.185  1.00  0.00    -0.043 A 
HETATM   26  C17 UNK     1      19.237   1.520  29.593  1.00  0.00     0.017 A 
HETATM   27  C20 UNK     1      20.321  -1.684  31.147  1.00  0.00     0.090 A 
HETATM   28  C22 UNK     1      20.636  -1.007  28.787  1.00  0.00     0.049 C 
HETATM   29  C23 UNK     1      19.860  -1.491  32.533  1.00  0.00     0.288 A 
HETATM   30  O3  UNK     1      20.036  -2.355  33.386  1.00  0.00    -0.260 OA
HETATM   31  C14 UNK     1      18.584   2.696  29.978  1.00  0.00     0.030 A 
ENDBRANCH  18  20
ENDBRANCH   2  18
TORSDOF 6
ENDMDL
MODEL 4
REMARK VINA RESULT:      -9.1      1.964      3.337
REMARK  6 active torsions:
REMARK  status: ('A' for Active; 'I' for Inactive)
REMARK    1  A    between atoms: C18_25  and  O1_2 
REMARK    2  A    between atoms: C7_14  and  O1_2 
REMARK    3  A    between atoms: C5_12  and  N1_5 
REMARK    4  A    between atoms: C6_13  and  N2_6 
REMARK    5  A    between atoms: C10_17  and  N3_7 
REMARK    6  A    between atoms: C6_13  and  N3_7 
ROOT
HETATM    1  S1  UNK     1      17.976  -1.450  37.650  1.00  0.00    -0.041 SA
HETATM    2  C6  UNK     1      18.363  -1.766  36.048  1.00  0.00     0.174 C 
ENDROOT
BRANCH   2   3
HETATM    3  N2  UNK     1      18.002  -0.889  35.079  1.00  0.00    -0.355 N 
HETATM    4  C3  UNK     1      18.343  -1.102  33.682  1.00  0.00     0.145 C 
HETATM    5  C1  UNK     1      19.007   0.140  33.088  1.00  0.00     0.143 C 
HETATM    6  N1  UNK     1      18.206   1.338  33.381  1.00  0.00    -0.376 N 
HETATM    7  C2  UNK     1      17.849   1.544  34.795  1.00  0.00     0.143 C 
HETATM    8  C4  UNK     1      17.195   0.287  35.365  1.00  0.00     0.145 C 
BRANCH   6   9
HETATM    9  C5  UNK     1      18.339   2.472  32.574  1.00  0.00     0.064 A 
HETATM   10  C7  UNK     1      18.482   2.382  31.168  1.00  0.00     0.095 A 
HETATM   11  C9  UNK     1      18.612   3.522  30.374  1.00  0.00     0.039 A 
HETATM   12  C12 UNK     1      18.604   4.786  30.964  1.00  0.00     0.003 A 
HETATM   13  C11 UNK     1      18.465   4.911  32.346  1.00  0.00     0.002 A 
HETATM   14  C8  UNK     1      18.334   3.770  33.139  1.00  0.00     0.032 A 
BRANCH  10  15
HETATM   15  O1  UNK     1      18.493   1.156  30.573  1.00  0.00    -0.349 OA
BRANCH  15  16
HETATM   16  C18 UNK     1      19.182   1.046  29.330  1.00  0.00     0.171 C 
HETATM   17  C21 UNK     1      20.293   0.028  29.469  1.00  0.00     0.034 C 
ENDBRANCH  15  16
ENDBRANCH  10  15
ENDBRANCH   6   9
ENDBRANCH   2   3
BRANCH   2  18
HETATM   18  N3  UNK     1      19.101  -2.886  35.707  1.00  0.00    -0.333 N 
HETATM   19  H10 UNK     1      19.296  -2.970  34.712  1.00  0.00     0.168 HD
BRANCH  18  20
HETATM   20  C10 UNK     1      19.643  -3.914  36.480  1.00  0.00     0.036 A 
HETATM   21  C13 UNK     1      18.984  -5.134  36.581  1.00  0.00     0.067 A 
HETATM   22  C16 UNK     1      19.546  -6.149  37.359  1.00  0.00     0.092 A 
HETATM   23  C15 UNK     1      20.749  -5.983  38.045  1.00  0.00     0.004 A 
HETATM   24  O2  UNK     1      18.833  -7.363  37.422  1.00  0.00    -0.275 OA
HETATM   25  C19 UNK     1      21.267  -7.104  38.841  1.00  0.00    -0.043 A 
HETATM   26  C17 UNK     1      21.397  -4.745  37.930  1.00  0.00     0.017 A 
HETATM   27  C20 UNK     1      20.568  -8.247  38.882  1.00  0.00     0.090 A 
HETATM   28  C22 UNK     1      22.559  -6.956  39.590  1.00  0.00     0.049 C 
HETATM   29  C23 UNK     1      19.296  -8.437  38.165  1.00  0.00     0.288 A 
HETATM   30  O3  UNK     1      18.685  -9.498  38.226  1.00  0.00    -0.260 OA
HETATM   31  C14 UNK     1      20.848  -3.719  37.154  1.00  0.00     0.030 A 
ENDBRANCH  18  20
ENDBRANCH   2  18
TORSDOF 6
ENDMDL
MODEL 5
REMARK VINA RESULT:      -8.8      6.326     10.840
REMARK  6 active torsions:
REMARK  status: ('A' for Active; 'I' for Inactive)
REMARK    1  A    between atoms: C18_25  and  O1_2 
REMARK    2  A    between atoms: C7_14  and  O1_2 
REMARK    3  A    between atoms: C5_12  and  N1_5 
REMARK    4  A    between atoms: C6_13  and  N2_6 
REMARK    5  A    between atoms: C10_17  and  N3_7 
REMARK    6  A    between atoms: C6_13  and  N3_7 
ROOT
HETATM    1  S1  UNK     1      19.649   6.043  32.399  1.00  0.00    -0.041 SA
HETATM    2  C6  UNK     1      18.023   5.635  32.466  1.00  0.00     0.174 C 
ENDROOT
BRANCH   2   3
HETATM    3  N2  UNK     1      17.139   6.469  33.066  1.00  0.00    -0.355 N 
HETATM    4  C3  UNK     1      16.122   7.186  32.314  1.00  0.00     0.145 C 
HETATM    5  C1  UNK     1      16.146   8.677  32.649  1.00  0.00     0.143 C 
HETATM    6  N1  UNK     1      16.128   8.874  34.106  1.00  0.00    -0.376 N 
HETATM    7  C2  UNK     1      17.150   8.136  34.868  1.00  0.00     0.143 C 
HETATM    8  C4  UNK     1      17.110   6.652  34.509  1.00  0.00     0.145 C 
BRANCH   6   9
HETATM    9  C5  UNK     1      15.676  10.088  34.634  1.00  0.00     0.064 A 
HETATM   10  C7  UNK     1      16.344  11.311  34.383  1.00  0.00     0.095 A 
HETATM   11  C9  UNK     1      15.883  12.515  34.915  1.00  0.00     0.039 A 
HETATM   12  C12 UNK     1      14.739  12.532  35.714  1.00  0.00     0.003 A 
HETATM   13  C11 UNK     1      14.058  11.344  35.982  1.00  0.00     0.002 A 
HETATM   14  C8  UNK     1      14.520  10.140  35.448  1.00  0.00     0.032 A 
BRANCH  10  15
HETATM   15  O1  UNK     1      17.463  11.317  33.605  1.00  0.00    -0.349 OA
BRANCH  15  16
HETATM   16  C18 UNK     1      18.690  11.670  34.238  1.00  0.00     0.171 C 
HETATM   17  C21 UNK     1      19.603  10.463  34.254  1.00  0.00     0.034 C 
ENDBRANCH  15  16
ENDBRANCH  10  15
ENDBRANCH   6   9
ENDBRANCH   2   3
BRANCH   2  18
HETATM   18  N3  UNK     1      17.559   4.479  31.861  1.00  0.00    -0.333 N 
HETATM   19  H10 UNK     1      16.694   4.600  31.340  1.00  0.00     0.168 HD
BRANCH  18  20
HETATM   20  C10 UNK     1      18.072   3.182  31.818  1.00  0.00     0.036 A 
HETATM   21  C13 UNK     1      18.609   2.682  30.637  1.00  0.00     0.067 A 
HETATM   22  C16 UNK     1      19.117   1.382  30.617  1.00  0.00     0.092 A 
HETATM   23  C15 UNK     1      19.106   0.559  31.744  1.00  0.00     0.004 A 
HETATM   24  O2  UNK     1      19.650   0.932  29.392  1.00  0.00    -0.275 OA
HETATM   25  C19 UNK     1      19.662  -0.796  31.633  1.00  0.00    -0.043 A 
HETATM   26  C17 UNK     1      18.560   1.082  32.924  1.00  0.00     0.017 A 
HETATM   27  C20 UNK     1      20.161  -1.197  30.454  1.00  0.00     0.090 A 
HETATM   28  C22 UNK     1      19.664  -1.704  32.826  1.00  0.00     0.049 C 
HETATM   29  C23 UNK     1      20.181  -0.341  29.257  1.00  0.00     0.288 A 
HETATM   30  O3  UNK     1      20.646  -0.743  28.196  1.00  0.00    -0.260 OA
HETATM   31  C14 UNK     1      18.047   2.383  32.960  1.00  0.00     0.030 A 
ENDBRANCH  18  20
ENDBRANCH   2  18
TORSDOF 6
ENDMDL
MODEL 6
REMARK VINA RESULT:      -8.8     27.226     29.013
REMARK  6 active torsions:
REMARK  status: ('A' for Active; 'I' for Inactive)
REMARK    1  A    between atoms: C18_25  and  O1_2 
REMARK    2  A    between atoms: C7_14  and  O1_2 
REMARK    3  A    between atoms: C5_12  and  N1_5 
REMARK    4  A    between atoms: C6_13  and  N2_6 
REMARK    5  A    between atoms: C10_17  and  N3_7 
REMARK    6  A    between atoms: C6_13  and  N3_7 
ROOT
HETATM    1  S1  UNK     1       9.716   6.172   6.040  1.00  0.00    -0.041 SA
HETATM    2  C6  UNK     1       9.771   6.740   7.618  1.00  0.00     0.174 C 
ENDROOT
BRANCH   2   3
HETATM    3  N2  UNK     1      10.966   6.943   8.224  1.00  0.00    -0.355 N 
HETATM    4  C3  UNK     1      11.099   7.779   9.406  1.00  0.00     0.145 C 
HETATM    5  C1  UNK     1      12.209   8.813   9.220  1.00  0.00     0.143 C 
HETATM    6  N1  UNK     1      13.440   8.163   8.749  1.00  0.00    -0.376 N 
HETATM    7  C2  UNK     1      13.301   7.305   7.560  1.00  0.00     0.143 C 
HETATM    8  C4  UNK     1      12.181   6.286   7.769  1.00  0.00     0.145 C 
BRANCH   6   9
HETATM    9  C5  UNK     1      14.675   8.786   8.957  1.00  0.00     0.064 A 
HETATM   10  C7  UNK     1      15.673   8.218   9.786  1.00  0.00     0.095 A 
HETATM   11  C9  UNK     1      16.900   8.850   9.985  1.00  0.00     0.039 A 
HETATM   12  C12 UNK     1      17.166  10.069   9.361  1.00  0.00     0.003 A 
HETATM   13  C11 UNK     1      16.205  10.656   8.538  1.00  0.00     0.002 A 
HETATM   14  C8  UNK     1      14.977  10.023   8.339  1.00  0.00     0.032 A 
BRANCH  10  15
HETATM   15  O1  UNK     1      15.433   7.028  10.406  1.00  0.00    -0.349 OA
BRANCH  15  16
HETATM   16  C18 UNK     1      16.002   5.864   9.813  1.00  0.00     0.171 C 
HETATM   17  C21 UNK     1      14.981   4.746   9.841  1.00  0.00     0.034 C 
ENDBRANCH  15  16
ENDBRANCH  10  15
ENDBRANCH   6   9
ENDBRANCH   2   3
BRANCH   2  18
HETATM   18  N3  UNK     1       8.605   7.062   8.294  1.00  0.00    -0.333 N 
HETATM   19  H10 UNK     1       8.236   7.983   8.071  1.00  0.00     0.168 HD
BRANCH  18  20
HETATM   20  C10 UNK     1       7.834   6.347   9.210  1.00  0.00     0.036 A 
HETATM   21  C13 UNK     1       7.442   5.043   8.927  1.00  0.00     0.067 A 
HETATM   22  C16 UNK     1       6.671   4.346   9.859  1.00  0.00     0.092 A 
HETATM   23  C15 UNK     1       6.275   4.912  11.071  1.00  0.00     0.004 A 
HETATM   24  O2  UNK     1       6.307   3.028   9.516  1.00  0.00    -0.275 OA
HETATM   25  C19 UNK     1       5.464   4.105  11.993  1.00  0.00    -0.043 A 
HETATM   26  C17 UNK     1       6.679   6.227  11.338  1.00  0.00     0.017 A 
HETATM   27  C20 UNK     1       5.132   2.855  11.640  1.00  0.00     0.090 A 
HETATM   28  C22 UNK     1       5.022   4.685  13.304  1.00  0.00     0.049 C 
HETATM   29  C23 UNK     1       5.542   2.244  10.365  1.00  0.00     0.288 A 
HETATM   30  O3  UNK     1       5.219   1.097  10.077  1.00  0.00    -0.260 OA
HETATM   31  C14 UNK     1       7.453   6.938  10.414  1.00  0.00     0.030 A 
ENDBRANCH  18  20
ENDBRANCH   2  18
TORSDOF 6
ENDMDL
MODEL 7
REMARK VINA RESULT:      -8.8     10.251     12.695
REMARK  6 active torsions:
REMARK  status: ('A' for Active; 'I' for Inactive)
REMARK    1  A    between atoms: C18_25  and  O1_2 
REMARK    2  A    between atoms: C7_14  and  O1_2 
REMARK    3  A    between atoms: C5_12  and  N1_5 
REMARK    4  A    between atoms: C6_13  and  N2_6 
REMARK    5  A    between atoms: C10_17  and  N3_7 
REMARK    6  A    between atoms: C6_13  and  N3_7 
ROOT
HETATM    1  S1  UNK     1      36.505  -7.289  34.928  1.00  0.00    -0.041 SA
HETATM    2  C6  UNK     1      34.858  -7.279  35.250  1.00  0.00     0.174 C 
ENDROOT
BRANCH   2   3
HETATM    3  N2  UNK     1      33.974  -7.027  34.254  1.00  0.00    -0.355 N 
HETATM    4  C3  UNK     1      33.545  -5.678  33.927  1.00  0.00     0.145 C 
HETATM    5  C1  UNK     1      32.020  -5.588  33.873  1.00  0.00     0.143 C 
HETATM    6  N1  UNK     1      31.475  -6.660  33.028  1.00  0.00    -0.376 N 
HETATM    7  C2  UNK     1      31.921  -8.026  33.352  1.00  0.00     0.143 C 
HETATM    8  C4  UNK     1      33.447  -8.085  33.407  1.00  0.00     0.145 C 
BRANCH   6   9
HETATM    9  C5  UNK     1      30.208  -6.512  32.455  1.00  0.00     0.064 A 
HETATM   10  C7  UNK     1      29.040  -6.359  33.241  1.00  0.00     0.095 A 
HETATM   11  C9  UNK     1      27.782  -6.211  32.657  1.00  0.00     0.039 A 
HETATM   12  C12 UNK     1      27.655  -6.211  31.268  1.00  0.00     0.003 A 
HETATM   13  C11 UNK     1      28.784  -6.360  30.463  1.00  0.00     0.002 A 
HETATM   14  C8  UNK     1      30.043  -6.507  31.049  1.00  0.00     0.032 A 
BRANCH  10  15
HETATM   15  O1  UNK     1      29.143  -6.356  34.600  1.00  0.00    -0.349 OA
BRANCH  15  16
HETATM   16  C18 UNK     1      28.172  -7.107  35.325  1.00  0.00     0.171 C 
HETATM   17  C21 UNK     1      28.468  -8.583  35.163  1.00  0.00     0.034 C 
ENDBRANCH  15  16
ENDBRANCH  10  15
ENDBRANCH   6   9
ENDBRANCH   2   3
BRANCH   2  18
HETATM   18  N3  UNK     1      34.384  -7.583  36.515  1.00  0.00    -0.333 N 
HETATM   19  H10 UNK     1      35.094  -7.941  37.151  1.00  0.00     0.168 HD
BRANCH  18  20
HETATM   20  C10 UNK     1      33.116  -7.471  37.086  1.00  0.00     0.036 A 
HETATM   21  C13 UNK     1      32.681  -6.249  37.586  1.00  0.00     0.067 A 
HETATM   22  C16 UNK     1      31.407  -6.159  38.151  1.00  0.00     0.092 A 
HETATM   23  C15 UNK     1      30.549  -7.257  38.236  1.00  0.00     0.004 A 
HETATM   24  O2  UNK     1      31.021  -4.894  38.639  1.00  0.00    -0.275 OA
HETATM   25  C19 UNK     1      29.226  -7.072  38.846  1.00  0.00    -0.043 A 
HETATM   26  C17 UNK     1      31.007  -8.479  37.726  1.00  0.00     0.017 A 
HETATM   27  C20 UNK     1      28.887  -5.857  39.302  1.00  0.00     0.090 A 
HETATM   28  C22 UNK     1      28.282  -8.232  38.952  1.00  0.00     0.049 C 
HETATM   29  C23 UNK     1      29.780  -4.690  39.221  1.00  0.00     0.288 A 
HETATM   30  O3  UNK     1      29.434  -3.594  39.649  1.00  0.00    -0.260 OA
HETATM   31  C14 UNK     1      32.281  -8.585  37.156  1.00  0.00     0.030 A 
ENDBRANCH  18  20
ENDBRANCH   2  18
TORSDOF 6
ENDMDL
MODEL 8
REMARK VINA RESULT:      -8.7      1.634      9.254
REMARK  6 active torsions:
REMARK  status: ('A' for Active; 'I' for Inactive)
REMARK    1  A    between atoms: C18_25  and  O1_2 
REMARK    2  A    between atoms: C7_14  and  O1_2 
REMARK    3  A    between atoms: C5_12  and  N1_5 
REMARK    4  A    between atoms: C6_13  and  N2_6 
REMARK    5  A    between atoms: C10_17  and  N3_7 
REMARK    6  A    between atoms: C6_13  and  N3_7 
ROOT
HETATM    1  S1  UNK     1      17.906  -2.318  36.947  1.00  0.00    -0.041 SA
HETATM    2  C6  UNK     1      19.247  -3.174  36.413  1.00  0.00     0.174 C 
ENDROOT
BRANCH   2   3
HETATM    3  N2  UNK     1      19.383  -4.486  36.727  1.00  0.00    -0.355 N 
HETATM    4  C3  UNK     1      20.422  -4.960  37.627  1.00  0.00     0.145 C 
HETATM    5  C1  UNK     1      21.200  -6.116  36.999  1.00  0.00     0.143 C 
HETATM    6  N1  UNK     1      20.275  -7.137  36.488  1.00  0.00    -0.376 N 
HETATM    7  C2  UNK     1      19.214  -6.653  35.588  1.00  0.00     0.143 C 
HETATM    8  C4  UNK     1      18.458  -5.495  36.236  1.00  0.00     0.145 C 
BRANCH   6   9
HETATM    9  C5  UNK     1      20.724  -8.451  36.315  1.00  0.00     0.064 A 
HETATM   10  C7  UNK     1      20.613  -9.424  37.337  1.00  0.00     0.095 A 
HETATM   11  C9  UNK     1      21.063 -10.731  37.150  1.00  0.00     0.039 A 
HETATM   12  C12 UNK     1      21.638 -11.103  35.935  1.00  0.00     0.003 A 
HETATM   13  C11 UNK     1      21.763 -10.169  34.907  1.00  0.00     0.002 A 
HETATM   14  C8  UNK     1      21.311  -8.862  35.094  1.00  0.00     0.032 A 
BRANCH  10  15
HETATM   15  O1  UNK     1      20.054  -9.081  38.532  1.00  0.00    -0.349 OA
BRANCH  15  16
HETATM   16  C18 UNK     1      20.833  -9.315  39.702  1.00  0.00     0.171 C 
HETATM   17  C21 UNK     1      21.921  -8.266  39.789  1.00  0.00     0.034 C 
ENDBRANCH  15  16
ENDBRANCH  10  15
ENDBRANCH   6   9
ENDBRANCH   2   3
BRANCH   2  18
HETATM   18  N3  UNK     1      20.194  -2.571  35.602  1.00  0.00    -0.333 N 
HETATM   19  H10 UNK     1      21.123  -2.518  36.014  1.00  0.00     0.168 HD
BRANCH  18  20
HETATM   20  C10 UNK     1      20.113  -2.039  34.315  1.00  0.00     0.036 A 
HETATM   21  C13 UNK     1      19.398  -0.868  34.087  1.00  0.00     0.067 A 
HETATM   22  C16 UNK     1      19.331  -0.353  32.791  1.00  0.00     0.092 A 
HETATM   23  C15 UNK     1      19.957  -0.973  31.709  1.00  0.00     0.004 A 
HETATM   24  O2  UNK     1      18.593   0.837  32.622  1.00  0.00    -0.275 OA
HETATM   25  C19 UNK     1      19.834  -0.361  30.379  1.00  0.00    -0.043 A 
HETATM   26  C17 UNK     1      20.672  -2.151  31.960  1.00  0.00     0.017 A 
HETATM   27  C20 UNK     1      19.126   0.770  30.249  1.00  0.00     0.090 A 
HETATM   28  C22 UNK     1      20.495  -1.003  29.195  1.00  0.00     0.049 C 
HETATM   29  C23 UNK     1      18.459   1.436  31.380  1.00  0.00     0.288 A 
HETATM   30  O3  UNK     1      17.820   2.470  31.222  1.00  0.00    -0.260 OA
HETATM   31  C14 UNK     1      20.749  -2.680  33.253  1.00  0.00     0.030 A 
ENDBRANCH  18  20
ENDBRANCH   2  18
TORSDOF 6
ENDMDL
MODEL 9
REMARK VINA RESULT:      -8.6     27.742     30.333
REMARK  6 active torsions:
REMARK  status: ('A' for Active; 'I' for Inactive)
REMARK    1  A    between atoms: C18_25  and  O1_2 
REMARK    2  A    between atoms: C7_14  and  O1_2 
REMARK    3  A    between atoms: C5_12  and  N1_5 
REMARK    4  A    between atoms: C6_13  and  N2_6 
REMARK    5  A    between atoms: C10_17  and  N3_7 
REMARK    6  A    between atoms: C6_13  and  N3_7 
ROOT
HETATM    1  S1  UNK     1      16.983   7.173  10.281  1.00  0.00    -0.041 SA
HETATM    2  C6  UNK     1      15.767   8.315  10.096  1.00  0.00     0.174 C 
ENDROOT
BRANCH   2   3
HETATM    3  N2  UNK     1      14.483   7.916   9.934  1.00  0.00    -0.355 N 
HETATM    4  C3  UNK     1      14.120   6.513   9.818  1.00  0.00     0.145 C 
HETATM    5  C1  UNK     1      13.240   6.277   8.591  1.00  0.00     0.143 C 
HETATM    6  N1  UNK     1      12.125   7.234   8.570  1.00  0.00    -0.376 N 
HETATM    7  C2  UNK     1      12.492   8.655   8.702  1.00  0.00     0.143 C 
HETATM    8  C4  UNK     1      13.377   8.861   9.931  1.00  0.00     0.145 C 
BRANCH   6   9
HETATM    9  C5  UNK     1      10.965   6.929   7.850  1.00  0.00     0.064 A 
HETATM   10  C7  UNK     1       9.673   7.070   8.412  1.00  0.00     0.095 A 
HETATM   11  C9  UNK     1       8.524   6.763   7.682  1.00  0.00     0.039 A 
HETATM   12  C12 UNK     1       8.634   6.306   6.369  1.00  0.00     0.003 A 
HETATM   13  C11 UNK     1       9.892   6.156   5.785  1.00  0.00     0.002 A 
HETATM   14  C8  UNK     1      11.040   6.464   6.515  1.00  0.00     0.032 A 
BRANCH  10  15
HETATM   15  O1  UNK     1       9.544   7.514   9.694  1.00  0.00    -0.349 OA
BRANCH  15  16
HETATM   16  C18 UNK     1       8.572   8.529   9.933  1.00  0.00     0.171 C 
HETATM   17  C21 UNK     1       9.273   9.866  10.047  1.00  0.00     0.034 C 
ENDBRANCH  15  16
ENDBRANCH  10  15
ENDBRANCH   6   9
ENDBRANCH   2   3
BRANCH   2  18
HETATM   18  N3  UNK     1      16.053   9.668  10.167  1.00  0.00    -0.333 N 
HETATM   19  H10 UNK     1      15.709  10.123  11.010  1.00  0.00     0.168 HD
BRANCH  18  20
HETATM   20  C10 UNK     1      16.742  10.520   9.303  1.00  0.00     0.036 A 
HETATM   21  C13 UNK     1      18.116  10.684   9.433  1.00  0.00     0.067 A 
HETATM   22  C16 UNK     1      18.786  11.540   8.557  1.00  0.00     0.092 A 
HETATM   23  C15 UNK     1      18.124  12.243   7.549  1.00  0.00     0.004 A 
HETATM   24  O2  UNK     1      20.179  11.664   8.737  1.00  0.00    -0.275 OA
HETATM   25  C19 UNK     1      18.908  13.122   6.672  1.00  0.00    -0.043 A 
HETATM   26  C17 UNK     1      16.739  12.064   7.435  1.00  0.00     0.017 A 
HETATM   27  C20 UNK     1      20.231  13.221   6.867  1.00  0.00     0.090 A 
HETATM   28  C22 UNK     1      18.225  13.892   5.580  1.00  0.00     0.049 C 
HETATM   29  C23 UNK     1      20.943  12.487   7.926  1.00  0.00     0.288 A 
HETATM   30  O3  UNK     1      22.155  12.602   8.074  1.00  0.00    -0.260 OA
HETATM   31  C14 UNK     1      16.054  11.209   8.305  1.00  0.00     0.030 A 
ENDBRANCH  18  20
ENDBRANCH   2  18
TORSDOF 6
ENDMDL
MODEL 10
REMARK VINA RESULT:      -8.6     10.449     12.772
REMARK  6 active torsions:
REMARK  status: ('A' for Active; 'I' for Inactive)
REMARK    1  A    between atoms: C18_25  and  O1_2 
REMARK    2  A    between atoms: C7_14  and  O1_2 
REMARK    3  A    between atoms: C5_12  and  N1_5 
REMARK    4  A    between atoms: C6_13  and  N2_6 
REMARK    5  A    between atoms: C10_17  and  N3_7 
REMARK    6  A    between atoms: C6_13  and  N3_7 
ROOT
HETATM    1  S1  UNK     1      36.337  -6.996  35.015  1.00  0.00    -0.041 SA
HETATM    2  C6  UNK     1      34.684  -7.146  35.261  1.00  0.00     0.174 C 
ENDROOT
BRANCH   2   3
HETATM    3  N2  UNK     1      33.821  -6.868  34.253  1.00  0.00    -0.355 N 
HETATM    4  C3  UNK     1      33.275  -5.536  34.052  1.00  0.00     0.145 C 
HETATM    5  C1  UNK     1      31.753  -5.584  33.929  1.00  0.00     0.143 C 
HETATM    6  N1  UNK     1      31.350  -6.600  32.947  1.00  0.00    -0.376 N 
HETATM    7  C2  UNK     1      31.915  -7.946  33.144  1.00  0.00     0.143 C 
HETATM    8  C4  UNK     1      33.436  -7.869  33.270  1.00  0.00     0.145 C 
BRANCH   6   9
HETATM    9  C5  UNK     1      30.099  -6.507  32.328  1.00  0.00     0.064 A 
HETATM   10  C7  UNK     1      29.963  -6.340  30.928  1.00  0.00     0.095 A 
HETATM   11  C9  UNK     1      28.710  -6.249  30.324  1.00  0.00     0.039 A 
HETATM   12  C12 UNK     1      27.554  -6.322  31.102  1.00  0.00     0.003 A 
HETATM   13  C11 UNK     1      27.652  -6.487  32.484  1.00  0.00     0.002 A 
HETATM   14  C8  UNK     1      28.907  -6.578  33.087  1.00  0.00     0.032 A 
BRANCH  10  15
HETATM   15  O1  UNK     1      31.080  -6.265  30.151  1.00  0.00    -0.349 OA
BRANCH  15  16
HETATM   16  C18 UNK     1      31.468  -7.450  29.459  1.00  0.00     0.171 C 
HETATM   17  C21 UNK     1      32.979  -7.544  29.447  1.00  0.00     0.034 C 
ENDBRANCH  15  16
ENDBRANCH  10  15
ENDBRANCH   6   9
ENDBRANCH   2   3
BRANCH   2  18
HETATM   18  N3  UNK     1      34.189  -7.610  36.468  1.00  0.00    -0.333 N 
HETATM   19  H10 UNK     1      34.886  -8.058  37.059  1.00  0.00     0.168 HD
BRANCH  18  20
HETATM   20  C10 UNK     1      32.913  -7.560  37.031  1.00  0.00     0.036 A 
HETATM   21  C13 UNK     1      32.414  -6.358  37.521  1.00  0.00     0.067 A 
HETATM   22  C16 UNK     1      31.134  -6.330  38.080  1.00  0.00     0.092 A 
HETATM   23  C15 UNK     1      30.334  -7.470  38.167  1.00  0.00     0.004 A 
HETATM   24  O2  UNK     1      30.681  -5.084  38.557  1.00  0.00    -0.275 OA
HETATM   25  C19 UNK     1      29.000  -7.349  38.771  1.00  0.00    -0.043 A 
HETATM   26  C17 UNK     1      30.856  -8.671  37.668  1.00  0.00     0.017 A 
HETATM   27  C20 UNK     1      28.596  -6.151  39.217  1.00  0.00     0.090 A 
HETATM   28  C22 UNK     1      28.116  -8.556  38.880  1.00  0.00     0.049 C 
HETATM   29  C23 UNK     1      29.429  -4.940  39.131  1.00  0.00     0.288 A 
HETATM   30  O3  UNK     1      29.025  -3.860  39.550  1.00  0.00    -0.260 OA
HETATM   31  C14 UNK     1      32.136  -8.715  37.105  1.00  0.00     0.030 A 
ENDBRANCH  18  20
ENDBRANCH   2  18
TORSDOF 6
ENDMDL
