MODEL 1
REMARK VINA RESULT:      -9.3      0.000      0.000
REMARK  5 active torsions:
REMARK  status: ('A' for Active; 'I' for Inactive)
REMARK    1  A    between atoms: C16_27  and  O3_4 
REMARK    2  A    between atoms: C3_14  and  N1_9 
REMARK       I    between atoms: C9_20  and  N1_9 
REMARK    3  A    between atoms: C13_24  and  N2_10 
REMARK    4  A    between atoms: C4_15  and  C9_20 
REMARK    5  A    between atoms: C16_27  and  C8_19 
ROOT
HETATM    1  S1  UNK     1      16.685   6.360  31.961  1.00  0.00    -0.064 SA
HETATM    2  N3  UNK     1      21.686   6.456  32.911  1.00  0.00    -0.191 NA
HETATM    3  C2  UNK     1      18.396   7.921  33.073  1.00  0.00    -0.015 A 
HETATM    4  C3  UNK     1      18.315   5.887  32.012  1.00  0.00     0.099 A 
HETATM    5  C6  UNK     1      19.130   6.786  32.622  1.00  0.00     0.086 A 
HETATM    6  C8  UNK     1      17.054   7.819  32.778  1.00  0.00     0.089 A 
HETATM    7  C14 UNK     1      19.000   9.081  33.778  1.00  0.00     0.051 C 
HETATM    8  C17 UNK     1      20.541   6.605  32.781  1.00  0.00     0.103 C 
ENDROOT
BRANCH   4   9
HETATM    9  N1  UNK     1      18.603   4.649  31.427  1.00  0.00    -0.316 N 
HETATM   10  C9  UNK     1      18.244   3.404  31.926  1.00  0.00     0.262 C 
HETATM   11  O2  UNK     1      17.618   3.141  32.951  1.00  0.00    -0.267 OA
HETATM   12  H2  UNK     1      18.916   4.715  30.462  1.00  0.00     0.170 HD
BRANCH  10  13
HETATM   13  C4  UNK     1      18.707   2.314  31.061  1.00  0.00     0.108 A 
HETATM   14  C12 UNK     1      18.666   2.412  29.584  1.00  0.00     0.304 A 
HETATM   15  O1  UNK     1      19.132   1.310  28.871  1.00  0.00    -0.274 OA
HETATM   16  O4  UNK     1      18.241   3.409  29.012  1.00  0.00    -0.259 OA
HETATM   17  C5  UNK     1      19.620   0.158  29.518  1.00  0.00     0.089 A 
HETATM   18  C1  UNK     1      19.650   0.088  30.907  1.00  0.00     0.001 A 
HETATM   19  C11 UNK     1      20.066  -0.893  28.720  1.00  0.00     0.041 A 
HETATM   20  C7  UNK     1      19.170   1.222  31.680  1.00  0.00     0.037 A 
HETATM   21  C10 UNK     1      20.142  -1.071  31.513  1.00  0.00     0.050 A 
HETATM   22  C13 UNK     1      20.592  -2.135  30.724  1.00  0.00     0.103 A 
HETATM   23  C15 UNK     1      20.554  -2.045  29.332  1.00  0.00     0.039 A 
BRANCH  22  24
HETATM   24  N2  UNK     1      21.091  -3.312  31.343  1.00  0.00    -0.116 N 
HETATM   25  O6  UNK     1      21.534  -4.237  30.621  1.00  0.00    -0.532 OA
HETATM   26  O7  UNK     1      21.073  -3.395  32.595  1.00  0.00    -0.532 OA
ENDBRANCH  22  24
ENDBRANCH  10  13
ENDBRANCH   4   9
BRANCH   6  27
HETATM   27  C16 UNK     1      15.995   8.734  33.059  1.00  0.00     0.300 C 
HETATM   28  O5  UNK     1      15.418   9.474  32.236  1.00  0.00    -0.259 OA
BRANCH  27  29
HETATM   29  O3  UNK     1      15.642   8.732  34.394  1.00  0.00    -0.322 OA
HETATM   30  C18 UNK     1      14.668   9.692  34.818  1.00  0.00     0.213 C 
ENDBRANCH  27  29
ENDBRANCH   6  27
TORSDOF 5
ENDMDL
MODEL 2
REMARK VINA RESULT:      -9.2      7.015     12.719
REMARK  5 active torsions:
REMARK  status: ('A' for Active; 'I' for Inactive)
REMARK    1  A    between atoms: C16_27  and  O3_4 
REMARK    2  A    between atoms: C3_14  and  N1_9 
REMARK       I    between atoms: C9_20  and  N1_9 
REMARK    3  A    between atoms: C13_24  and  N2_10 
REMARK    4  A    between atoms: C4_15  and  C9_20 
REMARK    5  A    between atoms: C16_27  and  C8_19 
ROOT
HETATM    1  S1  UNK     1      19.467  -7.204  37.641  1.00  0.00    -0.064 SA
HETATM    2  N3  UNK     1      21.204  -7.432  32.860  1.00  0.00    -0.191 NA
HETATM    3  C2  UNK     1      20.531  -8.934  36.068  1.00  0.00    -0.015 A 
HETATM    4  C3  UNK     1      19.877  -6.733  36.061  1.00  0.00     0.099 A 
HETATM    5  C6  UNK     1      20.432  -7.726  35.318  1.00  0.00     0.086 A 
HETATM    6  C8  UNK     1      20.041  -8.790  37.347  1.00  0.00     0.089 A 
HETATM    7  C14 UNK     1      21.095 -10.202  35.538  1.00  0.00     0.051 C 
HETATM    8  C17 UNK     1      20.859  -7.564  33.962  1.00  0.00     0.103 C 
ENDROOT
BRANCH   4   9
HETATM    9  N1  UNK     1      19.594  -5.403  35.735  1.00  0.00    -0.316 N 
HETATM   10  C9  UNK     1      20.253  -4.282  36.222  1.00  0.00     0.262 C 
HETATM   11  O2  UNK     1      21.191  -4.229  37.014  1.00  0.00    -0.267 OA
HETATM   12  H2  UNK     1      18.996  -5.300  34.919  1.00  0.00     0.170 HD
BRANCH  10  13
HETATM   13  C4  UNK     1      19.699  -3.040  35.672  1.00  0.00     0.108 A 
HETATM   14  C12 UNK     1      20.148  -2.488  34.373  1.00  0.00     0.304 A 
HETATM   15  O1  UNK     1      19.548  -1.302  33.957  1.00  0.00    -0.274 OA
HETATM   16  O4  UNK     1      21.006  -3.042  33.695  1.00  0.00    -0.259 OA
HETATM   17  C5  UNK     1      18.564  -0.656  34.731  1.00  0.00     0.089 A 
HETATM   18  C1  UNK     1      18.158  -1.193  35.948  1.00  0.00     0.001 A 
HETATM   19  C11 UNK     1      18.021   0.526  34.231  1.00  0.00     0.041 A 
HETATM   20  C7  UNK     1      18.764  -2.431  36.409  1.00  0.00     0.037 A 
HETATM   21  C10 UNK     1      17.177  -0.523  36.685  1.00  0.00     0.050 A 
HETATM   22  C13 UNK     1      16.624   0.665  36.197  1.00  0.00     0.103 A 
HETATM   23  C15 UNK     1      17.046   1.188  34.974  1.00  0.00     0.039 A 
BRANCH  22  24
HETATM   24  N2  UNK     1      15.629   1.343  36.951  1.00  0.00    -0.116 N 
HETATM   25  O6  UNK     1      14.420   1.120  36.700  1.00  0.00    -0.532 OA
HETATM   26  O7  UNK     1      15.986   2.147  37.845  1.00  0.00    -0.532 OA
ENDBRANCH  22  24
ENDBRANCH  10  13
ENDBRANCH   4   9
BRANCH   6  27
HETATM   27  C16 UNK     1      19.961  -9.754  38.398  1.00  0.00     0.300 C 
HETATM   28  O5  UNK     1      19.481 -10.902  38.314  1.00  0.00    -0.259 OA
BRANCH  27  29
HETATM   29  O3  UNK     1      20.491  -9.281  39.582  1.00  0.00    -0.322 OA
HETATM   30  C18 UNK     1      21.826  -8.763  39.546  1.00  0.00     0.213 C 
ENDBRANCH  27  29
ENDBRANCH   6  27
TORSDOF 5
ENDMDL
MODEL 3
REMARK VINA RESULT:      -9.2      3.537      4.772
REMARK  5 active torsions:
REMARK  status: ('A' for Active; 'I' for Inactive)
REMARK    1  A    between atoms: C16_27  and  O3_4 
REMARK    2  A    between atoms: C3_14  and  N1_9 
REMARK       I    between atoms: C9_20  and  N1_9 
REMARK    3  A    between atoms: C13_24  and  N2_10 
REMARK    4  A    between atoms: C4_15  and  C9_20 
REMARK    5  A    between atoms: C16_27  and  C8_19 
ROOT
HETATM    1  S1  UNK     1      17.970   8.416  34.108  1.00  0.00    -0.064 SA
HETATM    2  N3  UNK     1      13.626   6.817  31.987  1.00  0.00    -0.191 NA
HETATM    3  C2  UNK     1      15.779   9.429  33.228  1.00  0.00    -0.015 A 
HETATM    4  C3  UNK     1      16.786   7.379  33.467  1.00  0.00     0.099 A 
HETATM    5  C6  UNK     1      15.671   8.022  33.032  1.00  0.00     0.086 A 
HETATM    6  C8  UNK     1      16.979   9.779  33.805  1.00  0.00     0.089 A 
HETATM    7  C14 UNK     1      14.725  10.407  32.857  1.00  0.00     0.051 C 
HETATM    8  C17 UNK     1      14.542   7.357  32.456  1.00  0.00     0.103 C 
ENDROOT
BRANCH   4   9
HETATM    9  N1  UNK     1      17.110   6.019  33.470  1.00  0.00    -0.316 N 
HETATM   10  C9  UNK     1      18.140   5.420  32.757  1.00  0.00     0.262 C 
HETATM   11  O2  UNK     1      18.955   5.945  32.002  1.00  0.00    -0.267 OA
HETATM   12  H2  UNK     1      16.669   5.495  34.222  1.00  0.00     0.170 HD
BRANCH  10  13
HETATM   13  C4  UNK     1      18.197   3.973  32.990  1.00  0.00     0.108 A 
HETATM   14  C12 UNK     1      18.307   3.002  31.877  1.00  0.00     0.304 A 
HETATM   15  O1  UNK     1      18.352   1.655  32.225  1.00  0.00    -0.274 OA
HETATM   16  O4  UNK     1      18.353   3.361  30.706  1.00  0.00    -0.259 OA
HETATM   17  C5  UNK     1      18.298   1.231  33.568  1.00  0.00     0.089 A 
HETATM   18  C1  UNK     1      18.195   2.161  34.597  1.00  0.00     0.001 A 
HETATM   19  C11 UNK     1      18.351  -0.138  33.817  1.00  0.00     0.041 A 
HETATM   20  C7  UNK     1      18.146   3.576  34.267  1.00  0.00     0.037 A 
HETATM   21  C10 UNK     1      18.144   1.702  35.916  1.00  0.00     0.050 A 
HETATM   22  C13 UNK     1      18.196   0.330  36.182  1.00  0.00     0.103 A 
HETATM   23  C15 UNK     1      18.298  -0.587  35.135  1.00  0.00     0.039 A 
BRANCH  22  24
HETATM   24  N2  UNK     1      18.143  -0.132  37.524  1.00  0.00    -0.116 N 
HETATM   25  O6  UNK     1      17.947   0.696  38.445  1.00  0.00    -0.532 OA
HETATM   26  O7  UNK     1      18.295  -1.357  37.752  1.00  0.00    -0.532 OA
ENDBRANCH  22  24
ENDBRANCH  10  13
ENDBRANCH   4   9
BRANCH   6  27
HETATM   27  C16 UNK     1      17.468  11.073  34.160  1.00  0.00     0.300 C 
HETATM   28  O5  UNK     1      18.406  11.687  33.612  1.00  0.00    -0.259 OA
BRANCH  27  29
HETATM   29  O3  UNK     1      16.774  11.621  35.221  1.00  0.00    -0.322 OA
HETATM   30  C18 UNK     1      16.948  13.021  35.468  1.00  0.00     0.213 C 
ENDBRANCH  27  29
ENDBRANCH   6  27
TORSDOF 5
ENDMDL
MODEL 4
REMARK VINA RESULT:      -9.2      7.158      9.874
REMARK  5 active torsions:
REMARK  status: ('A' for Active; 'I' for Inactive)
REMARK    1  A    between atoms: C16_27  and  O3_4 
REMARK    2  A    between atoms: C3_14  and  N1_9 
REMARK       I    between atoms: C9_20  and  N1_9 
REMARK    3  A    between atoms: C13_24  and  N2_10 
REMARK    4  A    between atoms: C4_15  and  C9_20 
REMARK    5  A    between atoms: C16_27  and  C8_19 
ROOT
HETATM    1  S1  UNK     1      17.992  -1.733  37.761  1.00  0.00    -0.064 SA
HETATM    2  N3  UNK     1      20.203  -2.138  33.193  1.00  0.00    -0.191 NA
HETATM    3  C2  UNK     1      18.651  -0.200  35.807  1.00  0.00    -0.015 A 
HETATM    4  C3  UNK     1      18.746  -2.416  36.401  1.00  0.00     0.099 A 
HETATM    5  C6  UNK     1      19.050  -1.516  35.431  1.00  0.00     0.086 A 
HETATM    6  C8  UNK     1      18.063  -0.175  37.053  1.00  0.00     0.089 A 
HETATM    7  C14 UNK     1      18.845   1.005  34.962  1.00  0.00     0.051 C 
HETATM    8  C17 UNK     1      19.686  -1.859  34.195  1.00  0.00     0.103 C 
ENDROOT
BRANCH   4   9
HETATM    9  N1  UNK     1      18.952  -3.799  36.456  1.00  0.00    -0.316 N 
HETATM   10  C9  UNK     1      19.967  -4.448  37.145  1.00  0.00     0.262 C 
HETATM   11  O2  UNK     1      20.865  -3.959  37.827  1.00  0.00    -0.267 OA
HETATM   12  H2  UNK     1      18.159  -4.345  36.130  1.00  0.00     0.170 HD
BRANCH  10  13
HETATM   13  C4  UNK     1      19.889  -5.905  36.989  1.00  0.00     0.108 A 
HETATM   14  C12 UNK     1      18.604  -6.635  37.072  1.00  0.00     0.304 A 
HETATM   15  O1  UNK     1      18.659  -8.017  36.909  1.00  0.00    -0.274 OA
HETATM   16  O4  UNK     1      17.542  -6.058  37.277  1.00  0.00    -0.259 OA
HETATM   17  C5  UNK     1      19.874  -8.691  36.676  1.00  0.00     0.089 A 
HETATM   18  C1  UNK     1      21.070  -7.984  36.602  1.00  0.00     0.001 A 
HETATM   19  C11 UNK     1      19.829 -10.075  36.524  1.00  0.00     0.041 A 
HETATM   20  C7  UNK     1      21.046  -6.539  36.768  1.00  0.00     0.037 A 
HETATM   21  C10 UNK     1      22.255  -8.687  36.368  1.00  0.00     0.050 A 
HETATM   22  C13 UNK     1      22.225 -10.077  36.215  1.00  0.00     0.103 A 
HETATM   23  C15 UNK     1      21.015 -10.768  36.294  1.00  0.00     0.039 A 
BRANCH  22  24
HETATM   24  N2  UNK     1      23.431 -10.788  35.979  1.00  0.00    -0.116 N 
HETATM   25  O6  UNK     1      24.511 -10.309  36.400  1.00  0.00    -0.532 OA
HETATM   26  O7  UNK     1      23.384 -11.876  35.356  1.00  0.00    -0.532 OA
ENDBRANCH  22  24
ENDBRANCH  10  13
ENDBRANCH   4   9
BRANCH   6  27
HETATM   27  C16 UNK     1      17.535   0.934  37.781  1.00  0.00     0.300 C 
HETATM   28  O5  UNK     1      17.887   1.307  38.918  1.00  0.00    -0.259 OA
BRANCH  27  29
HETATM   29  O3  UNK     1      16.548   1.597  37.079  1.00  0.00    -0.322 OA
HETATM   30  C18 UNK     1      15.419   0.830  36.646  1.00  0.00     0.213 C 
ENDBRANCH  27  29
ENDBRANCH   6  27
TORSDOF 5
ENDMDL
MODEL 5
REMARK VINA RESULT:      -9.1      2.534      4.133
REMARK  5 active torsions:
REMARK  status: ('A' for Active; 'I' for Inactive)
REMARK    1  A    between atoms: C16_27  and  O3_4 
REMARK    2  A    between atoms: C3_14  and  N1_9 
REMARK       I    between atoms: C9_20  and  N1_9 
REMARK    3  A    between atoms: C13_24  and  N2_10 
REMARK    4  A    between atoms: C4_15  and  C9_20 
REMARK    5  A    between atoms: C16_27  and  C8_19 
ROOT
HETATM    1  S1  UNK     1      17.775   8.728  33.854  1.00  0.00    -0.064 SA
HETATM    2  N3  UNK     1      13.459   6.940  31.831  1.00  0.00    -0.191 NA
HETATM    3  C2  UNK     1      15.427   9.594  33.273  1.00  0.00    -0.015 A 
HETATM    4  C3  UNK     1      16.656   7.657  33.157  1.00  0.00     0.099 A 
HETATM    5  C6  UNK     1      15.449   8.221  32.892  1.00  0.00     0.086 A 
HETATM    6  C8  UNK     1      16.629   9.999  33.810  1.00  0.00     0.089 A 
HETATM    7  C14 UNK     1      14.251  10.487  33.113  1.00  0.00     0.051 C 
HETATM    8  C17 UNK     1      14.350   7.514  32.307  1.00  0.00     0.103 C 
ENDROOT
BRANCH   4   9
HETATM    9  N1  UNK     1      17.116   6.353  32.949  1.00  0.00    -0.316 N 
HETATM   10  C9  UNK     1      17.878   5.914  31.875  1.00  0.00     0.262 C 
HETATM   11  O2  UNK     1      18.292   6.561  30.915  1.00  0.00    -0.267 OA
HETATM   12  H2  UNK     1      17.046   5.758  33.772  1.00  0.00     0.170 HD
BRANCH  10  13
HETATM   13  C4  UNK     1      18.187   4.484  31.971  1.00  0.00     0.108 A 
HETATM   14  C12 UNK     1      18.169   3.762  33.263  1.00  0.00     0.304 A 
HETATM   15  O1  UNK     1      18.481   2.405  33.226  1.00  0.00    -0.274 OA
HETATM   16  O4  UNK     1      17.897   4.325  34.318  1.00  0.00    -0.259 OA
HETATM   17  C5  UNK     1      18.798   1.748  32.021  1.00  0.00     0.089 A 
HETATM   18  C1  UNK     1      18.808   2.446  30.818  1.00  0.00     0.001 A 
HETATM   19  C11 UNK     1      19.095   0.388  32.084  1.00  0.00     0.041 A 
HETATM   20  C7  UNK     1      18.487   3.864  30.824  1.00  0.00     0.037 A 
HETATM   21  C10 UNK     1      19.126   1.759  29.643  1.00  0.00     0.050 A 
HETATM   22  C13 UNK     1      19.428   0.395  29.691  1.00  0.00     0.103 A 
HETATM   23  C15 UNK     1      19.413  -0.288  30.908  1.00  0.00     0.039 A 
BRANCH  22  24
HETATM   24  N2  UNK     1      19.752  -0.300  28.495  1.00  0.00    -0.116 N 
HETATM   25  O6  UNK     1      20.848  -0.907  28.423  1.00  0.00    -0.532 OA
HETATM   26  O7  UNK     1      18.935  -0.287  27.543  1.00  0.00    -0.532 OA
ENDBRANCH  22  24
ENDBRANCH  10  13
ENDBRANCH   4   9
BRANCH   6  27
HETATM   27  C16 UNK     1      17.010  11.283  34.307  1.00  0.00     0.300 C 
HETATM   28  O5  UNK     1      16.565  11.842  35.329  1.00  0.00    -0.259 OA
BRANCH  27  29
HETATM   29  O3  UNK     1      17.967  11.887  33.515  1.00  0.00    -0.322 OA
HETATM   30  C18 UNK     1      18.314  13.241  33.821  1.00  0.00     0.213 C 
ENDBRANCH  27  29
ENDBRANCH   6  27
TORSDOF 5
ENDMDL
MODEL 6
REMARK VINA RESULT:      -9.0      6.579     12.118
REMARK  5 active torsions:
REMARK  status: ('A' for Active; 'I' for Inactive)
REMARK    1  A    between atoms: C16_27  and  O3_4 
REMARK    2  A    between atoms: C3_14  and  N1_9 
REMARK       I    between atoms: C9_20  and  N1_9 
REMARK    3  A    between atoms: C13_24  and  N2_10 
REMARK    4  A    between atoms: C4_15  and  C9_20 
REMARK    5  A    between atoms: C16_27  and  C8_19 
ROOT
HETATM    1  S1  UNK     1      19.482  -6.747  37.810  1.00  0.00    -0.064 SA
HETATM    2  N3  UNK     1      20.888  -7.100  32.929  1.00  0.00    -0.191 NA
HETATM    3  C2  UNK     1      20.414  -8.525  36.207  1.00  0.00    -0.015 A 
HETATM    4  C3  UNK     1      19.791  -6.315  36.196  1.00  0.00     0.099 A 
HETATM    5  C6  UNK     1      20.281  -7.331  35.440  1.00  0.00     0.086 A 
HETATM    6  C8  UNK     1      20.014  -8.347  37.513  1.00  0.00     0.089 A 
HETATM    7  C14 UNK     1      20.923  -9.812  35.667  1.00  0.00     0.051 C 
HETATM    8  C17 UNK     1      20.617  -7.204  34.054  1.00  0.00     0.103 C 
ENDROOT
BRANCH   4   9
HETATM    9  N1  UNK     1      19.504  -4.988  35.861  1.00  0.00    -0.316 N 
HETATM   10  C9  UNK     1      20.235  -3.870  36.241  1.00  0.00     0.262 C 
HETATM   11  O2  UNK     1      21.254  -3.819  36.928  1.00  0.00    -0.267 OA
HETATM   12  H2  UNK     1      18.825  -4.892  35.110  1.00  0.00     0.170 HD
BRANCH  10  13
HETATM   13  C4  UNK     1      19.654  -2.631  35.714  1.00  0.00     0.108 A 
HETATM   14  C12 UNK     1      18.886  -1.699  36.570  1.00  0.00     0.304 A 
HETATM   15  O1  UNK     1      18.383  -0.555  35.955  1.00  0.00    -0.274 OA
HETATM   16  O4  UNK     1      18.696  -1.919  37.761  1.00  0.00    -0.259 OA
HETATM   17  C5  UNK     1      18.593  -0.294  34.587  1.00  0.00     0.089 A 
HETATM   18  C1  UNK     1      19.319  -1.183  33.802  1.00  0.00     0.001 A 
HETATM   19  C11 UNK     1      18.052   0.878  34.061  1.00  0.00     0.041 A 
HETATM   20  C7  UNK     1      19.857  -2.387  34.415  1.00  0.00     0.037 A 
HETATM   21  C10 UNK     1      19.507  -0.888  32.449  1.00  0.00     0.050 A 
HETATM   22  C13 UNK     1      18.969   0.283  31.907  1.00  0.00     0.103 A 
HETATM   23  C15 UNK     1      18.243   1.163  32.711  1.00  0.00     0.039 A 
BRANCH  22  24
HETATM   24  N2  UNK     1      19.162   0.578  30.531  1.00  0.00    -0.116 N 
HETATM   25  O6  UNK     1      20.145   0.078  29.934  1.00  0.00    -0.532 OA
HETATM   26  O7  UNK     1      18.343   1.331  29.950  1.00  0.00    -0.532 OA
ENDBRANCH  22  24
ENDBRANCH  10  13
ENDBRANCH   4   9
BRANCH   6  27
HETATM   27  C16 UNK     1      19.992  -9.287  38.587  1.00  0.00     0.300 C 
HETATM   28  O5  UNK     1      19.518 -10.440  38.552  1.00  0.00    -0.259 OA
BRANCH  27  29
HETATM   29  O3  UNK     1      20.576  -8.784  39.734  1.00  0.00    -0.322 OA
HETATM   30  C18 UNK     1      22.006  -8.737  39.778  1.00  0.00     0.213 C 
ENDBRANCH  27  29
ENDBRANCH   6  27
TORSDOF 5
ENDMDL
MODEL 7
REMARK VINA RESULT:      -8.9     14.801     19.542
REMARK  5 active torsions:
REMARK  status: ('A' for Active; 'I' for Inactive)
REMARK    1  A    between atoms: C16_27  and  O3_4 
REMARK    2  A    between atoms: C3_14  and  N1_9 
REMARK       I    between atoms: C9_20  and  N1_9 
REMARK    3  A    between atoms: C13_24  and  N2_10 
REMARK    4  A    between atoms: C4_15  and  C9_20 
REMARK    5  A    between atoms: C16_27  and  C8_19 
ROOT
HETATM    1  S1  UNK     1      18.842  -5.264  12.658  1.00  0.00    -0.064 SA
HETATM    2  N3  UNK     1      16.070  -5.735  16.902  1.00  0.00    -0.191 NA
HETATM    3  C2  UNK     1      17.422  -7.055  13.832  1.00  0.00    -0.015 A 
HETATM    4  C3  UNK     1      18.095  -4.880  14.134  1.00  0.00     0.099 A 
HETATM    5  C6  UNK     1      17.370  -5.899  14.664  1.00  0.00     0.086 A 
HETATM    6  C8  UNK     1      18.190  -6.847  12.707  1.00  0.00     0.089 A 
HETATM    7  C14 UNK     1      16.732  -8.335  14.135  1.00  0.00     0.051 C 
HETATM    8  C17 UNK     1      16.652  -5.809  15.899  1.00  0.00     0.103 C 
ENDROOT
BRANCH   4   9
HETATM    9  N1  UNK     1      18.319  -3.582  14.605  1.00  0.00    -0.316 N 
HETATM   10  C9  UNK     1      19.367  -3.176  15.419  1.00  0.00     0.262 C 
HETATM   11  O2  UNK     1      20.285  -3.851  15.880  1.00  0.00    -0.267 OA
HETATM   12  H2  UNK     1      17.773  -2.872  14.123  1.00  0.00     0.170 HD
BRANCH  10  13
HETATM   13  C4  UNK     1      19.299  -1.743  15.724  1.00  0.00     0.108 A 
HETATM   14  C12 UNK     1      19.370  -0.711  14.665  1.00  0.00     0.304 A 
HETATM   15  O1  UNK     1      19.297   0.617  15.080  1.00  0.00    -0.274 OA
HETATM   16  O4  UNK     1      19.491  -1.004  13.481  1.00  0.00    -0.259 OA
HETATM   17  C5  UNK     1      19.161   0.965  16.438  1.00  0.00     0.089 A 
HETATM   18  C1  UNK     1      19.096  -0.022  17.416  1.00  0.00     0.001 A 
HETATM   19  C11 UNK     1      19.094   2.320  16.755  1.00  0.00     0.041 A 
HETATM   20  C7  UNK     1      19.170  -1.418  17.015  1.00  0.00     0.037 A 
HETATM   21  C10 UNK     1      18.960   0.363  18.753  1.00  0.00     0.050 A 
HETATM   22  C13 UNK     1      18.893   1.719  19.087  1.00  0.00     0.103 A 
HETATM   23  C15 UNK     1      18.960   2.695  18.090  1.00  0.00     0.039 A 
BRANCH  22  24
HETATM   24  N2  UNK     1      18.756   2.106  20.447  1.00  0.00    -0.116 N 
HETATM   25  O6  UNK     1      19.780   2.438  21.090  1.00  0.00    -0.532 OA
HETATM   26  O7  UNK     1      17.614   2.105  20.967  1.00  0.00    -0.532 OA
ENDBRANCH  22  24
ENDBRANCH  10  13
ENDBRANCH   4   9
BRANCH   6  27
HETATM   27  C16 UNK     1      18.488  -7.745  11.638  1.00  0.00     0.300 C 
HETATM   28  O5  UNK     1      18.180  -7.595  10.438  1.00  0.00    -0.259 OA
BRANCH  27  29
HETATM   29  O3  UNK     1      19.187  -8.855  12.068  1.00  0.00    -0.322 OA
HETATM   30  C18 UNK     1      20.605  -8.723  12.218  1.00  0.00     0.213 C 
ENDBRANCH  27  29
ENDBRANCH   6  27
TORSDOF 5
ENDMDL
MODEL 8
REMARK VINA RESULT:      -8.7      6.748     12.385
REMARK  5 active torsions:
REMARK  status: ('A' for Active; 'I' for Inactive)
REMARK    1  A    between atoms: C16_27  and  O3_4 
REMARK    2  A    between atoms: C3_14  and  N1_9 
REMARK       I    between atoms: C9_20  and  N1_9 
REMARK    3  A    between atoms: C13_24  and  N2_10 
REMARK    4  A    between atoms: C4_15  and  C9_20 
REMARK    5  A    between atoms: C16_27  and  C8_19 
ROOT
HETATM    1  S1  UNK     1      20.868  -6.018  37.946  1.00  0.00    -0.064 SA
HETATM    2  N3  UNK     1      16.339  -6.659  35.710  1.00  0.00    -0.191 NA
HETATM    3  C2  UNK     1      19.314  -7.953  37.282  1.00  0.00    -0.015 A 
HETATM    4  C3  UNK     1      19.392  -5.660  37.184  1.00  0.00     0.099 A 
HETATM    5  C6  UNK     1      18.652  -6.757  36.878  1.00  0.00     0.086 A 
HETATM    6  C8  UNK     1      20.529  -7.695  37.877  1.00  0.00     0.089 A 
HETATM    7  C14 UNK     1      18.764  -9.319  37.087  1.00  0.00     0.051 C 
HETATM    8  C17 UNK     1      17.375  -6.703  36.233  1.00  0.00     0.103 C 
ENDROOT
BRANCH   4   9
HETATM    9  N1  UNK     1      19.135  -4.302  36.974  1.00  0.00    -0.316 N 
HETATM   10  C9  UNK     1      19.680  -3.510  35.972  1.00  0.00     0.262 C 
HETATM   11  O2  UNK     1      20.475  -3.830  35.090  1.00  0.00    -0.267 OA
HETATM   12  H2  UNK     1      18.325  -3.955  37.482  1.00  0.00     0.170 HD
BRANCH  10  13
HETATM   13  C4  UNK     1      19.194  -2.128  36.041  1.00  0.00     0.108 A 
HETATM   14  C12 UNK     1      18.801  -1.497  37.322  1.00  0.00     0.304 A 
HETATM   15  O1  UNK     1      18.355  -0.179  37.259  1.00  0.00    -0.274 OA
HETATM   16  O4  UNK     1      18.859  -2.101  38.387  1.00  0.00    -0.259 OA
HETATM   17  C5  UNK     1      18.281   0.523  36.040  1.00  0.00     0.089 A 
HETATM   18  C1  UNK     1      18.656  -0.089  34.849  1.00  0.00     0.001 A 
HETATM   19  C11 UNK     1      17.824   1.838  36.078  1.00  0.00     0.041 A 
HETATM   20  C7  UNK     1      19.127  -1.465  34.881  1.00  0.00     0.037 A 
HETATM   21  C10 UNK     1      18.570   0.641  33.660  1.00  0.00     0.050 A 
HETATM   22  C13 UNK     1      18.112   1.961  33.682  1.00  0.00     0.103 A 
HETATM   23  C15 UNK     1      17.739   2.558  34.888  1.00  0.00     0.039 A 
BRANCH  22  24
HETATM   24  N2  UNK     1      18.024   2.700  32.472  1.00  0.00    -0.116 N 
HETATM   25  O6  UNK     1      17.769   3.927  32.526  1.00  0.00    -0.532 OA
HETATM   26  O7  UNK     1      18.204   2.104  31.382  1.00  0.00    -0.532 OA
ENDBRANCH  22  24
ENDBRANCH  10  13
ENDBRANCH   4   9
BRANCH   6  27
HETATM   27  C16 UNK     1      21.486  -8.610  38.412  1.00  0.00     0.300 C 
HETATM   28  O5  UNK     1      21.415  -9.195  39.512  1.00  0.00    -0.259 OA
BRANCH  27  29
HETATM   29  O3  UNK     1      22.556  -8.805  37.561  1.00  0.00    -0.322 OA
HETATM   30  C18 UNK     1      22.397  -9.771  36.516  1.00  0.00     0.213 C 
ENDBRANCH  27  29
ENDBRANCH   6  27
TORSDOF 5
ENDMDL
MODEL 9
REMARK VINA RESULT:      -8.4     13.515     16.655
REMARK  5 active torsions:
REMARK  status: ('A' for Active; 'I' for Inactive)
REMARK    1  A    between atoms: C16_27  and  O3_4 
REMARK    2  A    between atoms: C3_14  and  N1_9 
REMARK       I    between atoms: C9_20  and  N1_9 
REMARK    3  A    between atoms: C13_24  and  N2_10 
REMARK    4  A    between atoms: C4_15  and  C9_20 
REMARK    5  A    between atoms: C16_27  and  C8_19 
ROOT
HETATM    1  S1  UNK     1      29.236  -8.478  37.101  1.00  0.00    -0.064 SA
HETATM    2  N3  UNK     1      29.461  -4.070  39.640  1.00  0.00    -0.191 NA
HETATM    3  C2  UNK     1      31.027  -6.846  37.956  1.00  0.00    -0.015 A 
HETATM    4  C3  UNK     1      28.743  -7.081  37.933  1.00  0.00     0.099 A 
HETATM    5  C6  UNK     1      29.772  -6.291  38.338  1.00  0.00     0.086 A 
HETATM    6  C8  UNK     1      30.881  -8.035  37.275  1.00  0.00     0.089 A 
HETATM    7  C14 UNK     1      32.342  -6.221  38.253  1.00  0.00     0.051 C 
HETATM    8  C17 UNK     1      29.601  -5.065  39.057  1.00  0.00     0.103 C 
ENDROOT
BRANCH   4   9
HETATM    9  N1  UNK     1      27.362  -6.927  38.090  1.00  0.00    -0.316 N 
HETATM   10  C9  UNK     1      26.531  -7.730  38.858  1.00  0.00     0.262 C 
HETATM   11  O2  UNK     1      26.827  -8.710  39.539  1.00  0.00    -0.267 OA
HETATM   12  H2  UNK     1      27.011  -6.027  37.771  1.00  0.00     0.170 HD
BRANCH  10  13
HETATM   13  C4  UNK     1      25.134  -7.287  38.799  1.00  0.00     0.108 A 
HETATM   14  C12 UNK     1      24.758  -5.859  38.908  1.00  0.00     0.304 A 
HETATM   15  O1  UNK     1      23.399  -5.562  38.838  1.00  0.00    -0.274 OA
HETATM   16  O4  UNK     1      25.597  -4.977  39.054  1.00  0.00    -0.259 OA
HETATM   17  C5  UNK     1      22.427  -6.568  38.673  1.00  0.00     0.089 A 
HETATM   18  C1  UNK     1      22.802  -7.903  38.573  1.00  0.00     0.001 A 
HETATM   19  C11 UNK     1      21.092  -6.174  38.614  1.00  0.00     0.041 A 
HETATM   20  C7  UNK     1      24.214  -8.245  38.642  1.00  0.00     0.037 A 
HETATM   21  C10 UNK     1      21.809  -8.872  38.409  1.00  0.00     0.050 A 
HETATM   22  C13 UNK     1      20.464  -8.492  38.349  1.00  0.00     0.103 A 
HETATM   23  C15 UNK     1      20.108  -7.146  38.452  1.00  0.00     0.039 A 
BRANCH  22  24
HETATM   24  N2  UNK     1      19.457  -9.479  38.183  1.00  0.00    -0.116 N 
HETATM   25  O6  UNK     1      19.360 -10.397  39.033  1.00  0.00    -0.532 OA
HETATM   26  O7  UNK     1      18.692  -9.407  37.191  1.00  0.00    -0.532 OA
ENDBRANCH  22  24
ENDBRANCH  10  13
ENDBRANCH   4   9
BRANCH   6  27
HETATM   27  C16 UNK     1      31.883  -8.892  36.729  1.00  0.00     0.300 C 
HETATM   28  O5  UNK     1      32.995  -8.542  36.283  1.00  0.00    -0.259 OA
BRANCH  27  29
HETATM   29  O3  UNK     1      31.498 -10.219  36.738  1.00  0.00    -0.322 OA
HETATM   30  C18 UNK     1      31.635 -10.952  35.515  1.00  0.00     0.213 C 
ENDBRANCH  27  29
ENDBRANCH   6  27
TORSDOF 5
ENDMDL
MODEL 10
REMARK VINA RESULT:      -8.4      2.498      3.904
REMARK  5 active torsions:
REMARK  status: ('A' for Active; 'I' for Inactive)
REMARK    1  A    between atoms: C16_27  and  O3_4 
REMARK    2  A    between atoms: C3_14  and  N1_9 
REMARK       I    between atoms: C9_20  and  N1_9 
REMARK    3  A    between atoms: C13_24  and  N2_10 
REMARK    4  A    between atoms: C4_15  and  C9_20 
REMARK    5  A    between atoms: C16_27  and  C8_19 
ROOT
HETATM    1  S1  UNK     1      17.553   9.279  33.369  1.00  0.00    -0.064 SA
HETATM    2  N3  UNK     1      13.118   7.045  32.244  1.00  0.00    -0.191 NA
HETATM    3  C2  UNK     1      15.042   9.775  33.600  1.00  0.00    -0.015 A 
HETATM    4  C3  UNK     1      16.435   8.134  32.798  1.00  0.00     0.099 A 
HETATM    5  C6  UNK     1      15.138   8.500  32.971  1.00  0.00     0.086 A 
HETATM    6  C8  UNK     1      16.282  10.311  33.871  1.00  0.00     0.089 A 
HETATM    7  C14 UNK     1      13.761  10.452  33.927  1.00  0.00     0.051 C 
HETATM    8  C17 UNK     1      14.023   7.696  32.570  1.00  0.00     0.103 C 
ENDROOT
BRANCH   4   9
HETATM    9  N1  UNK     1      16.987   6.981  32.232  1.00  0.00    -0.316 N 
HETATM   10  C9  UNK     1      17.864   6.103  32.854  1.00  0.00     0.262 C 
HETATM   11  O2  UNK     1      18.322   6.156  33.994  1.00  0.00    -0.267 OA
HETATM   12  H2  UNK     1      16.526   6.683  31.376  1.00  0.00     0.170 HD
BRANCH  10  13
HETATM   13  C4  UNK     1      18.248   4.995  31.971  1.00  0.00     0.108 A 
HETATM   14  C12 UNK     1      18.623   5.214  30.556  1.00  0.00     0.304 A 
HETATM   15  O1  UNK     1      18.967   4.083  29.819  1.00  0.00    -0.274 OA
HETATM   16  O4  UNK     1      18.630   6.331  30.051  1.00  0.00    -0.259 OA
HETATM   17  C5  UNK     1      18.960   2.794  30.388  1.00  0.00     0.089 A 
HETATM   18  C1  UNK     1      18.604   2.613  31.720  1.00  0.00     0.001 A 
HETATM   19  C11 UNK     1      19.320   1.725  29.571  1.00  0.00     0.041 A 
HETATM   20  C7  UNK     1      18.239   3.774  32.516  1.00  0.00     0.037 A 
HETATM   21  C10 UNK     1      18.609   1.319  32.248  1.00  0.00     0.050 A 
HETATM   22  C13 UNK     1      18.968   0.235  31.441  1.00  0.00     0.103 A 
HETATM   23  C15 UNK     1      19.321   0.438  30.105  1.00  0.00     0.039 A 
BRANCH  22  24
HETATM   24  N2  UNK     1      18.971  -1.078  31.981  1.00  0.00    -0.116 N 
HETATM   25  O6  UNK     1      18.186  -1.350  32.921  1.00  0.00    -0.532 OA
HETATM   26  O7  UNK     1      19.759  -1.930  31.505  1.00  0.00    -0.532 OA
ENDBRANCH  22  24
ENDBRANCH  10  13
ENDBRANCH   4   9
BRANCH   6  27
HETATM   27  C16 UNK     1      16.613  11.556  34.486  1.00  0.00     0.300 C 
HETATM   28  O5  UNK     1      16.210  11.965  35.594  1.00  0.00    -0.259 OA
BRANCH  27  29
HETATM   29  O3  UNK     1      17.466  12.314  33.708  1.00  0.00    -0.322 OA
HETATM   30  C18 UNK     1      18.310  13.254  34.381  1.00  0.00     0.213 C 
ENDBRANCH  27  29
ENDBRANCH   6  27
TORSDOF 5
ENDMDL
