MODEL 1
REMARK VINA RESULT:      -8.3      0.000      0.000
REMARK  3 active torsions:
REMARK  status: ('A' for Active; 'I' for Inactive)
REMARK    1  A    between atoms: C6_10  and  O2_2 
REMARK    2  A    between atoms: C15_19  and  O4_4 
REMARK    3  A    between atoms: C3_7  and  C4_8 
ROOT
HETATM    1  O1  UNK     1      19.185   0.359  15.831  1.00  0.00    -0.309 OA
HETATM    2  O3  UNK     1      18.616  -0.618  19.745  1.00  0.00    -0.287 OA
HETATM    3  C1  UNK     1      19.067   1.067  18.151  1.00  0.00     0.081 A 
HETATM    4  C2  UNK     1      19.250   1.332  16.796  1.00  0.00     0.093 A 
HETATM    5  C3  UNK     1      18.932  -0.946  16.226  1.00  0.00     0.090 A 
HETATM    6  C5  UNK     1      18.790  -0.315  18.573  1.00  0.00     0.190 A 
HETATM    7  C6  UNK     1      19.143   2.098  19.090  1.00  0.00     0.085 A 
HETATM    8  C7  UNK     1      18.732  -1.326  17.498  1.00  0.00     0.094 A 
HETATM    9  C8  UNK     1      19.512   2.635  16.369  1.00  0.00     0.038 A 
HETATM   10  C9  UNK     1      19.405   3.400  18.661  1.00  0.00     0.038 A 
HETATM   11  C10 UNK     1      19.589   3.667  17.303  1.00  0.00     0.006 A 
ENDROOT
BRANCH   5  12
HETATM   12  C4  UNK     1      18.876  -1.911  15.109  1.00  0.00    -0.002 A 
HETATM   13  C11 UNK     1      18.390  -3.203  15.321  1.00  0.00     0.017 A 
HETATM   14  C13 UNK     1      18.337  -4.114  14.266  1.00  0.00     0.037 A 
HETATM   15  C15 UNK     1      18.770  -3.736  12.995  1.00  0.00     0.065 A 
HETATM   16  C14 UNK     1      19.257  -2.446  12.780  1.00  0.00     0.037 A 
HETATM   17  C12 UNK     1      19.310  -1.536  13.835  1.00  0.00     0.017 A 
BRANCH  15  18
HETATM   18  O4  UNK     1      18.720  -4.626  11.966  1.00  0.00    -0.361 OA
HETATM   19  H12 UNK     1      17.919  -5.170  12.060  1.00  0.00     0.217 HD
ENDBRANCH  15  18
ENDBRANCH   5  12
BRANCH   7  20
HETATM   20  O2  UNK     1      18.971   1.891  20.425  1.00  0.00    -0.355 OA
HETATM   21  C16 UNK     1      20.110   2.078  21.263  1.00  0.00     0.210 C 
ENDBRANCH   7  20
TORSDOF 3
ENDMDL
MODEL 2
REMARK VINA RESULT:      -7.9     15.701     18.514
REMARK  3 active torsions:
REMARK  status: ('A' for Active; 'I' for Inactive)
REMARK    1  A    between atoms: C6_10  and  O2_2 
REMARK    2  A    between atoms: C15_19  and  O4_4 
REMARK    3  A    between atoms: C3_7  and  C4_8 
ROOT
HETATM    1  O1  UNK     1      18.344   3.820  34.473  1.00  0.00    -0.309 OA
HETATM    2  O3  UNK     1      18.212   1.655  31.025  1.00  0.00    -0.287 OA
HETATM    3  C1  UNK     1      18.338   1.650  33.384  1.00  0.00     0.081 A 
HETATM    4  C2  UNK     1      18.378   2.450  34.524  1.00  0.00     0.093 A 
HETATM    5  C3  UNK     1      18.272   4.434  33.232  1.00  0.00     0.090 A 
HETATM    6  C5  UNK     1      18.254   2.296  32.066  1.00  0.00     0.190 A 
HETATM    7  C6  UNK     1      18.375   0.258  33.495  1.00  0.00     0.085 A 
HETATM    8  C7  UNK     1      18.221   3.773  32.064  1.00  0.00     0.094 A 
HETATM    9  C8  UNK     1      18.456   1.861  35.787  1.00  0.00     0.038 A 
HETATM   10  C9  UNK     1      18.453  -0.328  34.759  1.00  0.00     0.038 A 
HETATM   11  C10 UNK     1      18.493   0.472  35.903  1.00  0.00     0.006 A 
ENDROOT
BRANCH   5  12
HETATM   12  C4  UNK     1      18.232   5.909  33.292  1.00  0.00    -0.002 A 
HETATM   13  C11 UNK     1      17.152   6.605  32.746  1.00  0.00     0.017 A 
HETATM   14  C13 UNK     1      17.115   7.998  32.803  1.00  0.00     0.037 A 
HETATM   15  C15 UNK     1      18.159   8.700  33.407  1.00  0.00     0.065 A 
HETATM   16  C14 UNK     1      19.240   8.008  33.952  1.00  0.00     0.037 A 
HETATM   17  C12 UNK     1      19.277   6.615  33.895  1.00  0.00     0.017 A 
BRANCH  15  18
HETATM   18  O4  UNK     1      18.122  10.060  33.461  1.00  0.00    -0.361 OA
HETATM   19  H12 UNK     1      18.996  10.408  33.212  1.00  0.00     0.217 HD
ENDBRANCH  15  18
ENDBRANCH   5  12
BRANCH   7  20
HETATM   20  O2  UNK     1      18.338  -0.567  32.413  1.00  0.00    -0.355 OA
HETATM   21  C16 UNK     1      19.417  -1.487  32.261  1.00  0.00     0.210 C 
ENDBRANCH   7  20
TORSDOF 3
ENDMDL
MODEL 3
REMARK VINA RESULT:      -7.8      1.327      2.651
REMARK  3 active torsions:
REMARK  status: ('A' for Active; 'I' for Inactive)
REMARK    1  A    between atoms: C6_10  and  O2_2 
REMARK    2  A    between atoms: C15_19  and  O4_4 
REMARK    3  A    between atoms: C3_7  and  C4_8 
ROOT
HETATM    1  O1  UNK     1      18.909  -0.972  17.153  1.00  0.00    -0.309 OA
HETATM    2  O3  UNK     1      19.474   2.765  15.632  1.00  0.00    -0.287 OA
HETATM    3  C1  UNK     1      19.205   1.406  17.546  1.00  0.00     0.081 A 
HETATM    4  C2  UNK     1      19.013   0.102  18.000  1.00  0.00     0.093 A 
HETATM    5  C3  UNK     1      18.993  -0.748  15.787  1.00  0.00     0.090 A 
HETATM    6  C5  UNK     1      19.302   1.648  16.099  1.00  0.00     0.190 A 
HETATM    7  C6  UNK     1      19.305   2.463  18.454  1.00  0.00     0.085 A 
HETATM    8  C7  UNK     1      19.184   0.459  15.230  1.00  0.00     0.094 A 
HETATM    9  C8  UNK     1      18.919  -0.154  19.369  1.00  0.00     0.038 A 
HETATM   10  C9  UNK     1      19.210   2.204  19.823  1.00  0.00     0.038 A 
HETATM   11  C10 UNK     1      19.018   0.898  20.278  1.00  0.00     0.006 A 
ENDROOT
BRANCH   5  12
HETATM   12  C4  UNK     1      18.877  -1.972  14.970  1.00  0.00    -0.002 A 
HETATM   13  C11 UNK     1      19.419  -2.011  13.683  1.00  0.00     0.017 A 
HETATM   14  C13 UNK     1      19.308  -3.167  12.910  1.00  0.00     0.037 A 
HETATM   15  C15 UNK     1      18.656  -4.289  13.422  1.00  0.00     0.065 A 
HETATM   16  C14 UNK     1      18.113  -4.253  14.707  1.00  0.00     0.037 A 
HETATM   17  C12 UNK     1      18.223  -3.097  15.479  1.00  0.00     0.017 A 
BRANCH  15  18
HETATM   18  O4  UNK     1      18.548  -5.416  12.668  1.00  0.00    -0.361 OA
HETATM   19  H12 UNK     1      17.946  -6.037  13.114  1.00  0.00     0.217 HD
ENDBRANCH  15  18
ENDBRANCH   5  12
BRANCH   7  20
HETATM   20  O2  UNK     1      19.492   3.753  18.063  1.00  0.00    -0.355 OA
HETATM   21  C16 UNK     1      20.709   4.381  18.459  1.00  0.00     0.210 C 
ENDBRANCH   7  20
TORSDOF 3
ENDMDL
MODEL 4
REMARK VINA RESULT:      -7.8     13.230     16.265
REMARK  3 active torsions:
REMARK  status: ('A' for Active; 'I' for Inactive)
REMARK    1  A    between atoms: C6_10  and  O2_2 
REMARK    2  A    between atoms: C15_19  and  O4_4 
REMARK    3  A    between atoms: C3_7  and  C4_8 
ROOT
HETATM    1  O1  UNK     1      19.047   2.326  30.422  1.00  0.00    -0.309 OA
HETATM    2  O3  UNK     1      18.780  -0.034  33.732  1.00  0.00    -0.287 OA
HETATM    3  C1  UNK     1      19.340   0.143  31.444  1.00  0.00     0.081 A 
HETATM    4  C2  UNK     1      19.408   1.005  30.351  1.00  0.00     0.093 A 
HETATM    5  C3  UNK     1      18.588   2.821  31.633  1.00  0.00     0.090 A 
HETATM    6  C5  UNK     1      18.861   0.665  32.732  1.00  0.00     0.190 A 
HETATM    7  C6  UNK     1      19.723  -1.195  31.314  1.00  0.00     0.085 A 
HETATM    8  C7  UNK     1      18.484   2.093  32.756  1.00  0.00     0.094 A 
HETATM    9  C8  UNK     1      19.861   0.533  29.118  1.00  0.00     0.038 A 
HETATM   10  C9  UNK     1      20.174  -1.664  30.080  1.00  0.00     0.038 A 
HETATM   11  C10 UNK     1      20.243  -0.801  28.984  1.00  0.00     0.006 A 
ENDROOT
BRANCH   5  12
HETATM   12  C4  UNK     1      18.234   4.255  31.600  1.00  0.00    -0.002 A 
HETATM   13  C11 UNK     1      18.639   5.053  30.528  1.00  0.00     0.017 A 
HETATM   14  C13 UNK     1      18.305   6.407  30.497  1.00  0.00     0.037 A 
HETATM   15  C15 UNK     1      17.564   6.967  31.539  1.00  0.00     0.065 A 
HETATM   16  C14 UNK     1      17.159   6.173  32.611  1.00  0.00     0.037 A 
HETATM   17  C12 UNK     1      17.493   4.819  32.642  1.00  0.00     0.017 A 
BRANCH  15  18
HETATM   18  O4  UNK     1      17.239   8.289  31.508  1.00  0.00    -0.361 OA
HETATM   19  H12 UNK     1      16.403   8.418  31.988  1.00  0.00     0.217 HD
ENDBRANCH  15  18
ENDBRANCH   5  12
BRANCH   7  20
HETATM   20  O2  UNK     1      19.675  -2.077  32.351  1.00  0.00    -0.355 OA
HETATM   21  C16 UNK     1      20.904  -2.681  32.746  1.00  0.00     0.210 C 
ENDBRANCH   7  20
TORSDOF 3
ENDMDL
MODEL 5
REMARK VINA RESULT:      -7.6     13.271     15.182
REMARK  3 active torsions:
REMARK  status: ('A' for Active; 'I' for Inactive)
REMARK    1  A    between atoms: C6_10  and  O2_2 
REMARK    2  A    between atoms: C15_19  and  O4_4 
REMARK    3  A    between atoms: C3_7  and  C4_8 
ROOT
HETATM    1  O1  UNK     1      19.268   2.737  30.420  1.00  0.00    -0.309 OA
HETATM    2  O3  UNK     1      17.623   3.408  34.086  1.00  0.00    -0.287 OA
HETATM    3  C1  UNK     1      18.267   4.294  31.992  1.00  0.00     0.081 A 
HETATM    4  C2  UNK     1      18.837   3.995  30.756  1.00  0.00     0.093 A 
HETATM    5  C3  UNK     1      19.135   1.721  31.354  1.00  0.00     0.090 A 
HETATM    6  C5  UNK     1      18.117   3.218  32.984  1.00  0.00     0.190 A 
HETATM    7  C6  UNK     1      17.845   5.593  32.280  1.00  0.00     0.085 A 
HETATM    8  C7  UNK     1      18.597   1.882  32.574  1.00  0.00     0.094 A 
HETATM    9  C8  UNK     1      18.988   4.998  29.797  1.00  0.00     0.038 A 
HETATM   10  C9  UNK     1      17.998   6.594  31.320  1.00  0.00     0.038 A 
HETATM   11  C10 UNK     1      18.568   6.296  30.081  1.00  0.00     0.006 A 
ENDROOT
BRANCH   5  12
HETATM   12  C4  UNK     1      19.622   0.408  30.887  1.00  0.00    -0.002 A 
HETATM   13  C11 UNK     1      19.517  -0.714  31.712  1.00  0.00     0.017 A 
HETATM   14  C13 UNK     1      19.978  -1.955  31.271  1.00  0.00     0.037 A 
HETATM   15  C15 UNK     1      20.546  -2.077  30.003  1.00  0.00     0.065 A 
HETATM   16  C14 UNK     1      20.654  -0.958  29.177  1.00  0.00     0.037 A 
HETATM   17  C12 UNK     1      20.193   0.282  29.618  1.00  0.00     0.017 A 
BRANCH  15  18
HETATM   18  O4  UNK     1      20.997  -3.288  29.573  1.00  0.00    -0.361 OA
HETATM   19  H12 UNK     1      20.571  -3.499  28.725  1.00  0.00     0.217 HD
ENDBRANCH  15  18
ENDBRANCH   5  12
BRANCH   7  20
HETATM   20  O2  UNK     1      17.282   5.936  33.472  1.00  0.00    -0.355 OA
HETATM   21  C16 UNK     1      17.870   7.028  34.176  1.00  0.00     0.210 C 
ENDBRANCH   7  20
TORSDOF 3
ENDMDL
MODEL 6
REMARK VINA RESULT:      -7.6     13.801     17.734
REMARK  3 active torsions:
REMARK  status: ('A' for Active; 'I' for Inactive)
REMARK    1  A    between atoms: C6_10  and  O2_2 
REMARK    2  A    between atoms: C15_19  and  O4_4 
REMARK    3  A    between atoms: C3_7  and  C4_8 
ROOT
HETATM    1  O1  UNK     1      18.462   1.045  32.787  1.00  0.00    -0.309 OA
HETATM    2  O3  UNK     1      18.209   5.097  33.123  1.00  0.00    -0.287 OA
HETATM    3  C1  UNK     1      18.461   3.221  31.709  1.00  0.00     0.081 A 
HETATM    4  C2  UNK     1      18.539   1.830  31.665  1.00  0.00     0.093 A 
HETATM    5  C3  UNK     1      18.306   1.664  34.018  1.00  0.00     0.090 A 
HETATM    6  C5  UNK     1      18.288   3.882  33.012  1.00  0.00     0.190 A 
HETATM    7  C6  UNK     1      18.545   3.971  30.534  1.00  0.00     0.085 A 
HETATM    8  C7  UNK     1      18.212   2.992  34.189  1.00  0.00     0.094 A 
HETATM    9  C8  UNK     1      18.701   1.179  30.441  1.00  0.00     0.038 A 
HETATM   10  C9  UNK     1      18.708   3.318  29.312  1.00  0.00     0.038 A 
HETATM   11  C10 UNK     1      18.785   1.924  29.266  1.00  0.00     0.006 A 
ENDROOT
BRANCH   5  12
HETATM   12  C4  UNK     1      18.226   0.727  35.156  1.00  0.00    -0.002 A 
HETATM   13  C11 UNK     1      17.837   1.184  36.417  1.00  0.00     0.017 A 
HETATM   14  C13 UNK     1      17.762   0.299  37.492  1.00  0.00     0.037 A 
HETATM   15  C15 UNK     1      18.077  -1.048  37.310  1.00  0.00     0.065 A 
HETATM   16  C14 UNK     1      18.468  -1.508  36.052  1.00  0.00     0.037 A 
HETATM   17  C12 UNK     1      18.543  -0.623  34.977  1.00  0.00     0.017 A 
BRANCH  15  18
HETATM   18  O4  UNK     1      18.006  -1.912  38.360  1.00  0.00    -0.361 OA
HETATM   19  H12 UNK     1      17.182  -2.425  38.289  1.00  0.00     0.217 HD
ENDBRANCH  15  18
ENDBRANCH   5  12
BRANCH   7  20
HETATM   20  O2  UNK     1      18.475   5.331  30.523  1.00  0.00    -0.355 OA
HETATM   21  C16 UNK     1      19.613   6.036  30.033  1.00  0.00     0.210 C 
ENDBRANCH   7  20
TORSDOF 3
ENDMDL
MODEL 7
REMARK VINA RESULT:      -7.6     13.869     17.587
REMARK  3 active torsions:
REMARK  status: ('A' for Active; 'I' for Inactive)
REMARK    1  A    between atoms: C6_10  and  O2_2 
REMARK    2  A    between atoms: C15_19  and  O4_4 
REMARK    3  A    between atoms: C3_7  and  C4_8 
ROOT
HETATM    1  O1  UNK     1      18.245   4.502  31.356  1.00  0.00    -0.309 OA
HETATM    2  O3  UNK     1      18.443   1.708  34.315  1.00  0.00    -0.287 OA
HETATM    3  C1  UNK     1      18.572   2.184  32.004  1.00  0.00     0.081 A 
HETATM    4  C2  UNK     1      18.493   3.190  31.042  1.00  0.00     0.093 A 
HETATM    5  C3  UNK     1      18.060   4.839  32.689  1.00  0.00     0.090 A 
HETATM    6  C5  UNK     1      18.383   2.538  33.419  1.00  0.00     0.190 A 
HETATM    7  C6  UNK     1      18.828   0.864  31.627  1.00  0.00     0.085 A 
HETATM    8  C7  UNK     1      18.118   3.963  33.705  1.00  0.00     0.094 A 
HETATM    9  C8  UNK     1      18.670   2.880  29.693  1.00  0.00     0.038 A 
HETATM   10  C9  UNK     1      19.004   0.557  30.277  1.00  0.00     0.038 A 
HETATM   11  C10 UNK     1      18.926   1.564  29.312  1.00  0.00     0.006 A 
ENDROOT
BRANCH   5  12
HETATM   12  C4  UNK     1      17.808   6.276  32.915  1.00  0.00    -0.002 A 
HETATM   13  C11 UNK     1      18.710   7.038  33.660  1.00  0.00     0.017 A 
HETATM   14  C13 UNK     1      18.472   8.396  33.874  1.00  0.00     0.037 A 
HETATM   15  C15 UNK     1      17.330   8.996  33.344  1.00  0.00     0.065 A 
HETATM   16  C14 UNK     1      16.426   8.238  32.600  1.00  0.00     0.037 A 
HETATM   17  C12 UNK     1      16.664   6.880  32.386  1.00  0.00     0.017 A 
BRANCH  15  18
HETATM   18  O4  UNK     1      17.097  10.321  33.554  1.00  0.00    -0.361 OA
HETATM   19  H12 UNK     1      17.950  10.778  33.654  1.00  0.00     0.217 HD
ENDBRANCH  15  18
ENDBRANCH   5  12
BRANCH   7  20
HETATM   20  O2  UNK     1      18.914  -0.154  32.527  1.00  0.00    -0.355 OA
HETATM   21  C16 UNK     1      19.359  -1.417  32.038  1.00  0.00     0.210 C 
ENDBRANCH   7  20
TORSDOF 3
ENDMDL
MODEL 8
REMARK VINA RESULT:      -7.5     14.684     18.160
REMARK  3 active torsions:
REMARK  status: ('A' for Active; 'I' for Inactive)
REMARK    1  A    between atoms: C6_10  and  O2_2 
REMARK    2  A    between atoms: C15_19  and  O4_4 
REMARK    3  A    between atoms: C3_7  and  C4_8 
ROOT
HETATM    1  O1  UNK     1      18.057   2.566  34.553  1.00  0.00    -0.309 OA
HETATM    2  O3  UNK     1      18.536  -1.362  33.587  1.00  0.00    -0.287 OA
HETATM    3  C1  UNK     1      18.097   0.245  35.263  1.00  0.00     0.081 A 
HETATM    4  C2  UNK     1      17.943   1.605  35.524  1.00  0.00     0.093 A 
HETATM    5  C3  UNK     1      18.342   2.166  33.256  1.00  0.00     0.090 A 
HETATM    6  C5  UNK     1      18.392  -0.186  33.888  1.00  0.00     0.190 A 
HETATM    7  C6  UNK     1      17.970  -0.692  36.292  1.00  0.00     0.085 A 
HETATM    8  C7  UNK     1      18.505   0.888  32.879  1.00  0.00     0.094 A 
HETATM    9  C8  UNK     1      17.661   2.039  36.821  1.00  0.00     0.038 A 
HETATM   10  C9  UNK     1      17.688  -0.255  37.587  1.00  0.00     0.038 A 
HETATM   11  C10 UNK     1      17.533   1.107  37.850  1.00  0.00     0.006 A 
ENDROOT
BRANCH   5  12
HETATM   12  C4  UNK     1      18.434   3.279  32.290  1.00  0.00    -0.002 A 
HETATM   13  C11 UNK     1      18.232   4.595  32.714  1.00  0.00     0.017 A 
HETATM   14  C13 UNK     1      18.319   5.646  31.802  1.00  0.00     0.037 A 
HETATM   15  C15 UNK     1      18.608   5.385  30.462  1.00  0.00     0.065 A 
HETATM   16  C14 UNK     1      18.809   4.073  30.035  1.00  0.00     0.037 A 
HETATM   17  C12 UNK     1      18.722   3.021  30.948  1.00  0.00     0.017 A 
BRANCH  15  18
HETATM   18  O4  UNK     1      18.691   6.412  29.572  1.00  0.00    -0.361 OA
HETATM   19  H12 UNK     1      18.423   6.090  28.694  1.00  0.00     0.217 HD
ENDBRANCH  15  18
ENDBRANCH   5  12
BRANCH   7  20
HETATM   20  O2  UNK     1      18.111  -2.031  36.089  1.00  0.00    -0.355 OA
HETATM   21  C16 UNK     1      19.166  -2.686  36.788  1.00  0.00     0.210 C 
ENDBRANCH   7  20
TORSDOF 3
ENDMDL
MODEL 9
REMARK VINA RESULT:      -7.5     14.638     17.665
REMARK  3 active torsions:
REMARK  status: ('A' for Active; 'I' for Inactive)
REMARK    1  A    between atoms: C6_10  and  O2_2 
REMARK    2  A    between atoms: C15_19  and  O4_4 
REMARK    3  A    between atoms: C3_7  and  C4_8 
ROOT
HETATM    1  O1  UNK     1      19.141   6.097  33.072  1.00  0.00    -0.309 OA
HETATM    2  O3  UNK     1      15.685   8.148  32.402  1.00  0.00    -0.287 OA
HETATM    3  C1  UNK     1      17.896   8.176  33.235  1.00  0.00     0.081 A 
HETATM    4  C2  UNK     1      19.048   7.416  33.434  1.00  0.00     0.093 A 
HETATM    5  C3  UNK     1      18.037   5.492  32.488  1.00  0.00     0.090 A 
HETATM    6  C5  UNK     1      16.726   7.541  32.609  1.00  0.00     0.190 A 
HETATM    7  C6  UNK     1      17.858   9.517  33.622  1.00  0.00     0.085 A 
HETATM    8  C7  UNK     1      16.877   6.119  32.239  1.00  0.00     0.094 A 
HETATM    9  C8  UNK     1      20.172   7.996  34.024  1.00  0.00     0.038 A 
HETATM   10  C9  UNK     1      18.983  10.094  34.213  1.00  0.00     0.038 A 
HETATM   11  C10 UNK     1      20.138   9.335  34.412  1.00  0.00     0.006 A 
ENDROOT
BRANCH   5  12
HETATM   12  C4  UNK     1      18.248   4.075  32.132  1.00  0.00    -0.002 A 
HETATM   13  C11 UNK     1      18.542   3.719  30.813  1.00  0.00     0.017 A 
HETATM   14  C13 UNK     1      18.741   2.380  30.476  1.00  0.00     0.037 A 
HETATM   15  C15 UNK     1      18.646   1.392  31.457  1.00  0.00     0.065 A 
HETATM   16  C14 UNK     1      18.351   1.744  32.774  1.00  0.00     0.037 A 
HETATM   17  C12 UNK     1      18.153   3.083  33.111  1.00  0.00     0.017 A 
BRANCH  15  18
HETATM   18  O4  UNK     1      18.839   0.086  31.127  1.00  0.00    -0.361 OA
HETATM   19  H12 UNK     1      18.645  -0.032  30.181  1.00  0.00     0.217 HD
ENDBRANCH  15  18
ENDBRANCH   5  12
BRANCH   7  20
HETATM   20  O2  UNK     1      16.758  10.301  33.450  1.00  0.00    -0.355 OA
HETATM   21  C16 UNK     1      16.364  11.118  34.550  1.00  0.00     0.210 C 
ENDBRANCH   7  20
TORSDOF 3
ENDMDL
MODEL 10
REMARK VINA RESULT:      -7.4     14.425     15.251
REMARK  3 active torsions:
REMARK  status: ('A' for Active; 'I' for Inactive)
REMARK    1  A    between atoms: C6_10  and  O2_2 
REMARK    2  A    between atoms: C15_19  and  O4_4 
REMARK    3  A    between atoms: C3_7  and  C4_8 
ROOT
HETATM    1  O1  UNK     1       7.530   4.345   9.237  1.00  0.00    -0.309 OA
HETATM    2  O3  UNK     1       6.140   7.343  11.619  1.00  0.00    -0.287 OA
HETATM    3  C1  UNK     1       5.990   5.077  10.966  1.00  0.00     0.081 A 
HETATM    4  C2  UNK     1       6.514   4.098  10.124  1.00  0.00     0.093 A 
HETATM    5  C3  UNK     1       8.055   5.627   9.173  1.00  0.00     0.090 A 
HETATM    6  C5  UNK     1       6.549   6.437  10.907  1.00  0.00     0.190 A 
HETATM    7  C6  UNK     1       4.954   4.769  11.851  1.00  0.00     0.085 A 
HETATM    8  C7  UNK     1       7.641   6.651   9.936  1.00  0.00     0.094 A 
HETATM    9  C8  UNK     1       6.002   2.800  10.161  1.00  0.00     0.038 A 
HETATM   10  C9  UNK     1       4.444   3.471  11.886  1.00  0.00     0.038 A 
HETATM   11  C10 UNK     1       4.968   2.488  11.043  1.00  0.00     0.006 A 
ENDROOT
BRANCH   5  12
HETATM   12  C4  UNK     1       9.148   5.780   8.193  1.00  0.00    -0.002 A 
HETATM   13  C11 UNK     1       8.858   6.067   6.857  1.00  0.00     0.017 A 
HETATM   14  C13 UNK     1       9.891   6.212   5.931  1.00  0.00     0.037 A 
HETATM   15  C15 UNK     1      11.218   6.070   6.337  1.00  0.00     0.065 A 
HETATM   16  C14 UNK     1      11.511   5.782   7.670  1.00  0.00     0.037 A 
HETATM   17  C12 UNK     1      10.479   5.638   8.596  1.00  0.00     0.017 A 
BRANCH  15  18
HETATM   18  O4  UNK     1      12.225   6.210   5.432  1.00  0.00    -0.361 OA
HETATM   19  H12 UNK     1      12.349   5.365   4.966  1.00  0.00     0.217 HD
ENDBRANCH  15  18
ENDBRANCH   5  12
BRANCH   7  20
HETATM   20  O2  UNK     1       4.409   5.690  12.693  1.00  0.00    -0.355 OA
HETATM   21  C16 UNK     1       4.420   5.382  14.085  1.00  0.00     0.210 C 
ENDBRANCH   7  20
TORSDOF 3
ENDMDL
