MODEL 1
REMARK VINA RESULT:      -8.9      0.000      0.000
REMARK  4 active torsions:
REMARK  status: ('A' for Active; 'I' for Inactive)
REMARK    1  A    between atoms: C14_20  and  O4_4 
REMARK    2  A    between atoms: C3_9  and  N1_6 
REMARK       I    between atoms: C7_13  and  N1_6 
REMARK    3  A    between atoms: C1_7  and  C3_9 
REMARK    4  A    between atoms: C7_13  and  C8_14 
ROOT
HETATM    1  O2  UNK     1      18.727   0.927  32.593  1.00  0.00    -0.271 OA
HETATM    2  O5  UNK     1      17.970   2.921  33.413  1.00  0.00    -0.259 OA
HETATM    3  C8  UNK     1      18.701   2.908  31.159  1.00  0.00     0.108 A 
HETATM    4  C9  UNK     1      19.205   2.207  30.136  1.00  0.00     0.037 A 
HETATM    5  C10 UNK     1      19.504   0.793  30.293  1.00  0.00     0.002 A 
HETATM    6  C11 UNK     1      18.431   2.282  32.474  1.00  0.00     0.304 A 
HETATM    7  C12 UNK     1      19.258   0.184  31.520  1.00  0.00     0.123 A 
HETATM    8  C13 UNK     1      20.032   0.023  29.254  1.00  0.00     0.014 A 
HETATM    9  C14 UNK     1      19.523  -1.166  31.737  1.00  0.00     0.102 A 
HETATM   10  C15 UNK     1      20.048  -1.927  30.694  1.00  0.00     0.040 A 
HETATM   11  C16 UNK     1      20.303  -1.334  29.456  1.00  0.00     0.004 A 
ENDROOT
BRANCH   3  12
HETATM   12  C7  UNK     1      18.432   4.328  30.903  1.00  0.00     0.258 C 
HETATM   13  O3  UNK     1      18.841   4.873  29.879  1.00  0.00    -0.267 OA
HETATM   14  N1  UNK     1      17.701   4.928  31.912  1.00  0.00    -0.350 N 
HETATM   15  H12 UNK     1      17.387   4.380  32.706  1.00  0.00     0.163 HD
BRANCH  14  16
HETATM   16  C3  UNK     1      17.316   6.321  31.884  1.00  0.00     0.109 C 
HETATM   17  C6  UNK     1      15.968   6.507  32.569  1.00  0.00     0.035 C 
BRANCH  16  18
HETATM   18  C1  UNK     1      18.384   7.182  32.530  1.00  0.00     0.143 C 
HETATM   19  O1  UNK     1      17.886   8.517  32.720  1.00  0.00    -0.384 OA
HETATM   20  C5  UNK     1      18.314   8.982  34.008  1.00  0.00     0.168 C 
HETATM   21  C4  UNK     1      19.304   7.966  34.538  1.00  0.00     0.029 C 
HETATM   22  C2  UNK     1      18.811   6.691  33.902  1.00  0.00     0.036 C 
ENDBRANCH  16  18
ENDBRANCH  14  16
ENDBRANCH   3  12
BRANCH   9  23
HETATM   23  O4  UNK     1      19.277  -1.748  32.941  1.00  0.00    -0.353 OA
HETATM   24  C17 UNK     1      20.344  -2.483  33.540  1.00  0.00     0.210 C 
ENDBRANCH   9  23
TORSDOF 4
ENDMDL
MODEL 2
REMARK VINA RESULT:      -8.7     13.365     17.038
REMARK  4 active torsions:
REMARK  status: ('A' for Active; 'I' for Inactive)
REMARK    1  A    between atoms: C14_20  and  O4_4 
REMARK    2  A    between atoms: C3_9  and  N1_6 
REMARK       I    between atoms: C7_13  and  N1_6 
REMARK    3  A    between atoms: C1_7  and  C3_9 
REMARK    4  A    between atoms: C7_13  and  C8_14 
ROOT
HETATM    1  O2  UNK     1      19.355   1.838  17.219  1.00  0.00    -0.271 OA
HETATM    2  O5  UNK     1      19.170   1.115  15.060  1.00  0.00    -0.259 OA
HETATM    3  C8  UNK     1      19.001  -0.536  16.751  1.00  0.00     0.108 A 
HETATM    4  C9  UNK     1      19.011  -0.823  18.059  1.00  0.00     0.037 A 
HETATM    5  C10 UNK     1      19.198   0.234  19.039  1.00  0.00     0.002 A 
HETATM    6  C11 UNK     1      19.178   0.848  16.257  1.00  0.00     0.304 A 
HETATM    7  C12 UNK     1      19.366   1.543  18.596  1.00  0.00     0.123 A 
HETATM    8  C13 UNK     1      19.217  -0.019  20.413  1.00  0.00     0.014 A 
HETATM    9  C14 UNK     1      19.551   2.601  19.484  1.00  0.00     0.102 A 
HETATM   10  C15 UNK     1      19.566   2.340  20.852  1.00  0.00     0.040 A 
HETATM   11  C16 UNK     1      19.401   1.033  21.316  1.00  0.00     0.004 A 
ENDROOT
BRANCH   3  12
HETATM   12  C7  UNK     1      18.805  -1.670  15.840  1.00  0.00     0.258 C 
HETATM   13  O3  UNK     1      17.833  -2.414  15.958  1.00  0.00    -0.267 OA
HETATM   14  N1  UNK     1      19.806  -1.777  14.891  1.00  0.00    -0.350 N 
HETATM   15  H12 UNK     1      20.554  -1.091  14.863  1.00  0.00     0.163 HD
BRANCH  14  16
HETATM   16  C3  UNK     1      19.832  -2.815  13.887  1.00  0.00     0.109 C 
HETATM   17  C6  UNK     1      20.097  -2.212  12.514  1.00  0.00     0.035 C 
BRANCH  16  18
HETATM   18  C1  UNK     1      20.867  -3.868  14.234  1.00  0.00     0.143 C 
HETATM   19  O1  UNK     1      21.912  -3.282  15.029  1.00  0.00    -0.384 OA
HETATM   20  C5  UNK     1      22.258  -4.204  16.073  1.00  0.00     0.168 C 
HETATM   21  C4  UNK     1      21.544  -5.504  15.770  1.00  0.00     0.029 C 
HETATM   22  C2  UNK     1      20.310  -5.020  15.050  1.00  0.00     0.036 C 
ENDBRANCH  16  18
ENDBRANCH  14  16
ENDBRANCH   3  12
BRANCH   9  23
HETATM   23  O4  UNK     1      19.713   3.875  19.037  1.00  0.00    -0.353 OA
HETATM   24  C17 UNK     1      21.010   4.241  18.566  1.00  0.00     0.210 C 
ENDBRANCH   9  23
TORSDOF 4
ENDMDL
MODEL 3
REMARK VINA RESULT:      -8.5      5.252     10.955
REMARK  4 active torsions:
REMARK  status: ('A' for Active; 'I' for Inactive)
REMARK    1  A    between atoms: C14_20  and  O4_4 
REMARK    2  A    between atoms: C3_9  and  N1_6 
REMARK       I    between atoms: C7_13  and  N1_6 
REMARK    3  A    between atoms: C1_7  and  C3_9 
REMARK    4  A    between atoms: C7_13  and  C8_14 
ROOT
HETATM    1  O2  UNK     1      19.313  -1.359  34.550  1.00  0.00    -0.271 OA
HETATM    2  O5  UNK     1      20.665  -3.161  34.168  1.00  0.00    -0.259 OA
HETATM    3  C8  UNK     1      19.760  -2.955  36.348  1.00  0.00     0.108 A 
HETATM    4  C9  UNK     1      18.992  -2.257  37.195  1.00  0.00     0.037 A 
HETATM    5  C10 UNK     1      18.328  -1.042  36.750  1.00  0.00     0.002 A 
HETATM    6  C11 UNK     1      19.962  -2.524  34.946  1.00  0.00     0.304 A 
HETATM    7  C12 UNK     1      18.504  -0.620  35.436  1.00  0.00     0.123 A 
HETATM    8  C13 UNK     1      17.519  -0.283  37.598  1.00  0.00     0.014 A 
HETATM    9  C14 UNK     1      17.897   0.535  34.947  1.00  0.00     0.102 A 
HETATM   10  C15 UNK     1      17.090   1.285  35.800  1.00  0.00     0.040 A 
HETATM   11  C16 UNK     1      16.902   0.879  37.123  1.00  0.00     0.004 A 
ENDROOT
BRANCH   3  12
HETATM   12  C7  UNK     1      20.388  -4.166  36.891  1.00  0.00     0.258 C 
HETATM   13  O3  UNK     1      21.569  -4.166  37.231  1.00  0.00    -0.267 OA
HETATM   14  N1  UNK     1      19.517  -5.238  36.958  1.00  0.00    -0.350 N 
HETATM   15  H12 UNK     1      18.549  -5.125  36.675  1.00  0.00     0.163 HD
BRANCH  14  16
HETATM   16  C3  UNK     1      19.906  -6.538  37.456  1.00  0.00     0.109 C 
HETATM   17  C6  UNK     1      18.672  -7.347  37.833  1.00  0.00     0.035 C 
BRANCH  16  18
HETATM   18  C1  UNK     1      20.751  -7.271  36.431  1.00  0.00     0.143 C 
HETATM   19  O1  UNK     1      22.043  -7.571  36.987  1.00  0.00    -0.384 OA
HETATM   20  C5  UNK     1      22.409  -8.900  36.590  1.00  0.00     0.168 C 
HETATM   21  C4  UNK     1      21.392  -9.351  35.563  1.00  0.00     0.029 C 
HETATM   22  C2  UNK     1      20.159  -8.599  35.996  1.00  0.00     0.036 C 
ENDBRANCH  16  18
ENDBRANCH  14  16
ENDBRANCH   3  12
BRANCH   9  23
HETATM   23  O4  UNK     1      18.077   0.934  33.661  1.00  0.00    -0.353 OA
HETATM   24  C17 UNK     1      18.135   2.340  33.417  1.00  0.00     0.210 C 
ENDBRANCH   9  23
TORSDOF 4
ENDMDL
MODEL 4
REMARK VINA RESULT:      -8.5      4.387      9.660
REMARK  4 active torsions:
REMARK  status: ('A' for Active; 'I' for Inactive)
REMARK    1  A    between atoms: C14_20  and  O4_4 
REMARK    2  A    between atoms: C3_9  and  N1_6 
REMARK       I    between atoms: C7_13  and  N1_6 
REMARK    3  A    between atoms: C1_7  and  C3_9 
REMARK    4  A    between atoms: C7_13  and  C8_14 
ROOT
HETATM    1  O2  UNK     1      19.019  -0.432  33.541  1.00  0.00    -0.271 OA
HETATM    2  O5  UNK     1      18.743  -0.832  35.773  1.00  0.00    -0.259 OA
HETATM    3  C8  UNK     1      19.962  -2.452  34.546  1.00  0.00     0.108 A 
HETATM    4  C9  UNK     1      20.456  -2.842  33.364  1.00  0.00     0.037 A 
HETATM    5  C10 UNK     1      20.252  -2.025  32.179  1.00  0.00     0.002 A 
HETATM    6  C11 UNK     1      19.197  -1.192  34.692  1.00  0.00     0.304 A 
HETATM    7  C12 UNK     1      19.537  -0.836  32.294  1.00  0.00     0.123 A 
HETATM    8  C13 UNK     1      20.748  -2.392  30.926  1.00  0.00     0.014 A 
HETATM    9  C14 UNK     1      19.305  -0.009  31.198  1.00  0.00     0.102 A 
HETATM   10  C15 UNK     1      19.805  -0.382  29.952  1.00  0.00     0.040 A 
HETATM   11  C16 UNK     1      20.524  -1.572  29.816  1.00  0.00     0.004 A 
ENDROOT
BRANCH   3  12
HETATM   12  C7  UNK     1      20.220  -3.344  35.682  1.00  0.00     0.258 C 
HETATM   13  O3  UNK     1      21.027  -3.034  36.557  1.00  0.00    -0.267 OA
HETATM   14  N1  UNK     1      19.475  -4.508  35.633  1.00  0.00    -0.350 N 
HETATM   15  H12 UNK     1      18.814  -4.656  34.877  1.00  0.00     0.163 HD
BRANCH  14  16
HETATM   16  C3  UNK     1      19.560  -5.540  36.640  1.00  0.00     0.109 C 
HETATM   17  C6  UNK     1      18.195  -6.184  36.848  1.00  0.00     0.035 C 
BRANCH  16  18
HETATM   18  C1  UNK     1      20.602  -6.574  36.260  1.00  0.00     0.143 C 
HETATM   19  O1  UNK     1      20.526  -7.697  37.153  1.00  0.00    -0.384 OA
HETATM   20  C5  UNK     1      20.675  -8.899  36.384  1.00  0.00     0.168 C 
HETATM   21  C4  UNK     1      21.079  -8.482  34.986  1.00  0.00     0.029 C 
HETATM   22  C2  UNK     1      20.418  -7.133  34.860  1.00  0.00     0.036 C 
ENDBRANCH  16  18
ENDBRANCH  14  16
ENDBRANCH   3  12
BRANCH   9  23
HETATM   23  O4  UNK     1      18.606   1.150  31.325  1.00  0.00    -0.353 OA
HETATM   24  C17 UNK     1      18.694   2.086  30.251  1.00  0.00     0.210 C 
ENDBRANCH   9  23
TORSDOF 4
ENDMDL
MODEL 5
REMARK VINA RESULT:      -8.2      6.359      9.885
REMARK  4 active torsions:
REMARK  status: ('A' for Active; 'I' for Inactive)
REMARK    1  A    between atoms: C14_20  and  O4_4 
REMARK    2  A    between atoms: C3_9  and  N1_6 
REMARK       I    between atoms: C7_13  and  N1_6 
REMARK    3  A    between atoms: C1_7  and  C3_9 
REMARK    4  A    between atoms: C7_13  and  C8_14 
ROOT
HETATM    1  O2  UNK     1      20.353  -7.224  35.809  1.00  0.00    -0.271 OA
HETATM    2  O5  UNK     1      20.329  -5.302  34.574  1.00  0.00    -0.259 OA
HETATM    3  C8  UNK     1      20.066  -5.063  36.917  1.00  0.00     0.108 A 
HETATM    4  C9  UNK     1      19.988  -5.656  38.114  1.00  0.00     0.037 A 
HETATM    5  C10 UNK     1      20.091  -7.103  38.223  1.00  0.00     0.002 A 
HETATM    6  C11 UNK     1      20.257  -5.843  35.673  1.00  0.00     0.304 A 
HETATM    7  C12 UNK     1      20.272  -7.855  37.066  1.00  0.00     0.123 A 
HETATM    8  C13 UNK     1      20.014  -7.765  39.451  1.00  0.00     0.014 A 
HETATM    9  C14 UNK     1      20.377  -9.244  37.101  1.00  0.00     0.102 A 
HETATM   10  C15 UNK     1      20.300  -9.895  38.331  1.00  0.00     0.040 A 
HETATM   11  C16 UNK     1      20.119  -9.158  39.503  1.00  0.00     0.004 A 
ENDROOT
BRANCH   3  12
HETATM   12  C7  UNK     1      19.951  -3.599  36.910  1.00  0.00     0.258 C 
HETATM   13  O3  UNK     1      20.521  -2.918  37.759  1.00  0.00    -0.267 OA
HETATM   14  N1  UNK     1      19.160  -3.127  35.878  1.00  0.00    -0.350 N 
HETATM   15  H12 UNK     1      18.755  -3.776  35.211  1.00  0.00     0.163 HD
BRANCH  14  16
HETATM   16  C3  UNK     1      18.898  -1.722  35.667  1.00  0.00     0.109 C 
HETATM   17  C6  UNK     1      19.185  -1.345  34.219  1.00  0.00     0.035 C 
BRANCH  16  18
HETATM   18  C1  UNK     1      17.470  -1.382  36.050  1.00  0.00     0.143 C 
HETATM   19  O1  UNK     1      17.466  -0.425  37.122  1.00  0.00    -0.384 OA
HETATM   20  C5  UNK     1      16.442   0.546  36.860  1.00  0.00     0.168 C 
HETATM   21  C4  UNK     1      15.639   0.034  35.683  1.00  0.00     0.029 C 
HETATM   22  C2  UNK     1      16.673  -0.755  34.920  1.00  0.00     0.036 C 
ENDBRANCH  16  18
ENDBRANCH  14  16
ENDBRANCH   3  12
BRANCH   9  23
HETATM   23  O4  UNK     1      20.554  -9.966  35.963  1.00  0.00    -0.353 OA
HETATM   24  C17 UNK     1      21.840 -10.551  35.757  1.00  0.00     0.210 C 
ENDBRANCH   9  23
TORSDOF 4
ENDMDL
MODEL 6
REMARK VINA RESULT:      -8.1      2.169      3.382
REMARK  4 active torsions:
REMARK  status: ('A' for Active; 'I' for Inactive)
REMARK    1  A    between atoms: C14_20  and  O4_4 
REMARK    2  A    between atoms: C3_9  and  N1_6 
REMARK       I    between atoms: C7_13  and  N1_6 
REMARK    3  A    between atoms: C1_7  and  C3_9 
REMARK    4  A    between atoms: C7_13  and  C8_14 
ROOT
HETATM    1  O2  UNK     1      18.194   1.708  32.142  1.00  0.00    -0.271 OA
HETATM    2  O5  UNK     1      18.151   3.296  30.500  1.00  0.00    -0.259 OA
HETATM    3  C8  UNK     1      18.276   4.080  32.733  1.00  0.00     0.108 A 
HETATM    4  C9  UNK     1      18.332   3.780  34.037  1.00  0.00     0.037 A 
HETATM    5  C10 UNK     1      18.321   2.393  34.471  1.00  0.00     0.002 A 
HETATM    6  C11 UNK     1      18.202   3.026  31.696  1.00  0.00     0.304 A 
HETATM    7  C12 UNK     1      18.252   1.387  33.512  1.00  0.00     0.123 A 
HETATM    8  C13 UNK     1      18.376   2.034  35.820  1.00  0.00     0.014 A 
HETATM    9  C14 UNK     1      18.236   0.038  33.862  1.00  0.00     0.102 A 
HETATM   10  C15 UNK     1      18.293  -0.311  35.210  1.00  0.00     0.040 A 
HETATM   11  C16 UNK     1      18.362   0.684  36.187  1.00  0.00     0.004 A 
ENDROOT
BRANCH   3  12
HETATM   12  C7  UNK     1      18.293   5.508  32.395  1.00  0.00     0.258 C 
HETATM   13  O3  UNK     1      19.320   6.048  31.989  1.00  0.00    -0.267 OA
HETATM   14  N1  UNK     1      17.067   6.120  32.585  1.00  0.00    -0.350 N 
HETATM   15  H12 UNK     1      16.271   5.575  32.899  1.00  0.00     0.163 HD
BRANCH  14  16
HETATM   16  C3  UNK     1      16.838   7.522  32.321  1.00  0.00     0.109 C 
HETATM   17  C6  UNK     1      15.533   7.707  31.559  1.00  0.00     0.035 C 
BRANCH  16  18
HETATM   18  C1  UNK     1      16.836   8.315  33.615  1.00  0.00     0.143 C 
HETATM   19  O1  UNK     1      17.390   9.621  33.388  1.00  0.00    -0.384 OA
HETATM   20  C5  UNK     1      16.600  10.580  34.106  1.00  0.00     0.168 C 
HETATM   21  C4  UNK     1      15.650   9.798  34.988  1.00  0.00     0.029 C 
HETATM   22  C2  UNK     1      15.446   8.537  34.186  1.00  0.00     0.036 C 
ENDBRANCH  16  18
ENDBRANCH  14  16
ENDBRANCH   3  12
BRANCH   9  23
HETATM   23  O4  UNK     1      18.170  -0.934  32.914  1.00  0.00    -0.353 OA
HETATM   24  C17 UNK     1      19.388  -1.597  32.575  1.00  0.00     0.210 C 
ENDBRANCH   9  23
TORSDOF 4
ENDMDL
MODEL 7
REMARK VINA RESULT:      -8.1      1.559      8.052
REMARK  4 active torsions:
REMARK  status: ('A' for Active; 'I' for Inactive)
REMARK    1  A    between atoms: C14_20  and  O4_4 
REMARK    2  A    between atoms: C3_9  and  N1_6 
REMARK       I    between atoms: C7_13  and  N1_6 
REMARK    3  A    between atoms: C1_7  and  C3_9 
REMARK    4  A    between atoms: C7_13  and  C8_14 
ROOT
HETATM    1  O2  UNK     1      16.892   7.600  32.800  1.00  0.00    -0.271 OA
HETATM    2  O5  UNK     1      15.717   5.819  31.983  1.00  0.00    -0.259 OA
HETATM    3  C8  UNK     1      17.935   5.391  32.697  1.00  0.00     0.108 A 
HETATM    4  C9  UNK     1      19.071   5.873  33.216  1.00  0.00     0.037 A 
HETATM    5  C10 UNK     1      19.179   7.281  33.562  1.00  0.00     0.002 A 
HETATM    6  C11 UNK     1      16.759   6.258  32.458  1.00  0.00     0.304 A 
HETATM    7  C12 UNK     1      18.085   8.114  33.346  1.00  0.00     0.123 A 
HETATM    8  C13 UNK     1      20.344   7.829  34.104  1.00  0.00     0.014 A 
HETATM    9  C14 UNK     1      18.123   9.472  33.654  1.00  0.00     0.102 A 
HETATM   10  C15 UNK     1      19.289  10.009  34.196  1.00  0.00     0.040 A 
HETATM   11  C16 UNK     1      20.398   9.190  34.419  1.00  0.00     0.004 A 
ENDROOT
BRANCH   3  12
HETATM   12  C7  UNK     1      17.924   3.957  32.381  1.00  0.00     0.258 C 
HETATM   13  O3  UNK     1      17.894   3.114  33.275  1.00  0.00    -0.267 OA
HETATM   14  N1  UNK     1      17.953   3.707  31.021  1.00  0.00    -0.350 N 
HETATM   15  H12 UNK     1      17.950   4.479  30.362  1.00  0.00     0.163 HD
BRANCH  14  16
HETATM   16  C3  UNK     1      17.951   2.373  30.466  1.00  0.00     0.109 C 
HETATM   17  C6  UNK     1      17.910   2.436  28.944  1.00  0.00     0.035 C 
BRANCH  16  18
HETATM   18  C1  UNK     1      19.158   1.591  30.950  1.00  0.00     0.143 C 
HETATM   19  O1  UNK     1      18.740   0.568  31.870  1.00  0.00    -0.384 OA
HETATM   20  C5  UNK     1      19.482  -0.627  31.585  1.00  0.00     0.168 C 
HETATM   21  C4  UNK     1      20.558  -0.252  30.588  1.00  0.00     0.029 C 
HETATM   22  C2  UNK     1      19.906   0.880  29.837  1.00  0.00     0.036 C 
ENDBRANCH  16  18
ENDBRANCH  14  16
ENDBRANCH   3  12
BRANCH   9  23
HETATM   23  O4  UNK     1      17.046  10.274  33.439  1.00  0.00    -0.353 OA
HETATM   24  C17 UNK     1      16.941  11.452  34.237  1.00  0.00     0.210 C 
ENDBRANCH   9  23
TORSDOF 4
ENDMDL
MODEL 8
REMARK VINA RESULT:      -8.1      6.291      9.660
REMARK  4 active torsions:
REMARK  status: ('A' for Active; 'I' for Inactive)
REMARK    1  A    between atoms: C14_20  and  O4_4 
REMARK    2  A    between atoms: C3_9  and  N1_6 
REMARK       I    between atoms: C7_13  and  N1_6 
REMARK    3  A    between atoms: C1_7  and  C3_9 
REMARK    4  A    between atoms: C7_13  and  C8_14 
ROOT
HETATM    1  O2  UNK     1      19.142  -6.957  37.754  1.00  0.00    -0.271 OA
HETATM    2  O5  UNK     1      17.795  -5.674  36.427  1.00  0.00    -0.259 OA
HETATM    3  C8  UNK     1      19.954  -4.817  36.895  1.00  0.00     0.108 A 
HETATM    4  C9  UNK     1      21.130  -4.985  37.512  1.00  0.00     0.037 A 
HETATM    5  C10 UNK     1      21.379  -6.179  38.303  1.00  0.00     0.002 A 
HETATM    6  C11 UNK     1      18.874  -5.824  36.991  1.00  0.00     0.304 A 
HETATM    7  C12 UNK     1      20.377  -7.140  38.406  1.00  0.00     0.123 A 
HETATM    8  C13 UNK     1      22.590  -6.396  38.964  1.00  0.00     0.014 A 
HETATM    9  C14 UNK     1      20.551  -8.305  39.149  1.00  0.00     0.102 A 
HETATM   10  C15 UNK     1      21.762  -8.514  39.804  1.00  0.00     0.040 A 
HETATM   11  C16 UNK     1      22.780  -7.562  39.713  1.00  0.00     0.004 A 
ENDROOT
BRANCH   3  12
HETATM   12  C7  UNK     1      19.799  -3.579  36.121  1.00  0.00     0.258 C 
HETATM   13  O3  UNK     1      20.613  -3.272  35.251  1.00  0.00    -0.267 OA
HETATM   14  N1  UNK     1      18.680  -2.853  36.485  1.00  0.00    -0.350 N 
HETATM   15  H12 UNK     1      18.054  -3.210  37.201  1.00  0.00     0.163 HD
BRANCH  14  16
HETATM   16  C3  UNK     1      18.319  -1.599  35.866  1.00  0.00     0.109 C 
HETATM   17  C6  UNK     1      16.871  -1.643  35.394  1.00  0.00     0.035 C 
BRANCH  16  18
HETATM   18  C1  UNK     1      18.549  -0.445  36.824  1.00  0.00     0.143 C 
HETATM   19  O1  UNK     1      18.874   0.745  36.086  1.00  0.00    -0.384 OA
HETATM   20  C5  UNK     1      18.183   1.852  36.684  1.00  0.00     0.168 C 
HETATM   21  C4  UNK     1      17.582   1.350  37.979  1.00  0.00     0.029 C 
HETATM   22  C2  UNK     1      17.331  -0.103  37.664  1.00  0.00     0.036 C 
ENDBRANCH  16  18
ENDBRANCH  14  16
ENDBRANCH   3  12
BRANCH   9  23
HETATM   23  O4  UNK     1      19.564  -9.236  39.240  1.00  0.00    -0.353 OA
HETATM   24  C17 UNK     1      19.641 -10.356  38.358  1.00  0.00     0.210 C 
ENDBRANCH   9  23
TORSDOF 4
ENDMDL
MODEL 9
REMARK VINA RESULT:      -8.1      1.927      7.742
REMARK  4 active torsions:
REMARK  status: ('A' for Active; 'I' for Inactive)
REMARK    1  A    between atoms: C14_20  and  O4_4 
REMARK    2  A    between atoms: C3_9  and  N1_6 
REMARK       I    between atoms: C7_13  and  N1_6 
REMARK    3  A    between atoms: C1_7  and  C3_9 
REMARK    4  A    between atoms: C7_13  and  C8_14 
ROOT
HETATM    1  O2  UNK     1      20.144   6.803  32.412  1.00  0.00    -0.271 OA
HETATM    2  O5  UNK     1      21.125   5.667  30.689  1.00  0.00    -0.259 OA
HETATM    3  C8  UNK     1      18.904   5.051  31.240  1.00  0.00     0.108 A 
HETATM    4  C9  UNK     1      17.836   5.247  32.023  1.00  0.00     0.037 A 
HETATM    5  C10 UNK     1      17.868   6.257  33.068  1.00  0.00     0.002 A 
HETATM    6  C11 UNK     1      20.144   5.843  31.404  1.00  0.00     0.304 A 
HETATM    7  C12 UNK     1      19.024   7.013  33.239  1.00  0.00     0.123 A 
HETATM    8  C13 UNK     1      16.778   6.494  33.909  1.00  0.00     0.014 A 
HETATM    9  C14 UNK     1      19.120   7.996  34.222  1.00  0.00     0.102 A 
HETATM   10  C15 UNK     1      18.027   8.227  35.055  1.00  0.00     0.040 A 
HETATM   11  C16 UNK     1      16.859   7.478  34.900  1.00  0.00     0.004 A 
ENDROOT
BRANCH   3  12
HETATM   12  C7  UNK     1      18.774   4.009  30.214  1.00  0.00     0.258 C 
HETATM   13  O3  UNK     1      18.838   4.289  29.019  1.00  0.00    -0.267 OA
HETATM   14  N1  UNK     1      18.582   2.748  30.750  1.00  0.00    -0.350 N 
HETATM   15  H12 UNK     1      18.571   2.621  31.757  1.00  0.00     0.163 HD
BRANCH  14  16
HETATM   16  C3  UNK     1      18.425   1.564  29.938  1.00  0.00     0.109 C 
HETATM   17  C6  UNK     1      17.788   1.923  28.601  1.00  0.00     0.035 C 
BRANCH  16  18
HETATM   18  C1  UNK     1      19.760   0.871  29.741  1.00  0.00     0.143 C 
HETATM   19  O1  UNK     1      20.193   0.284  30.979  1.00  0.00    -0.384 OA
HETATM   20  C5  UNK     1      20.747  -1.010  30.698  1.00  0.00     0.168 C 
HETATM   21  C4  UNK     1      20.856  -1.126  29.192  1.00  0.00     0.029 C 
HETATM   22  C2  UNK     1      19.712  -0.261  28.729  1.00  0.00     0.036 C 
ENDBRANCH  16  18
ENDBRANCH  14  16
ENDBRANCH   3  12
BRANCH   9  23
HETATM   23  O4  UNK     1      20.255   8.728  34.377  1.00  0.00    -0.353 OA
HETATM   24  C17 UNK     1      20.107  10.145  34.478  1.00  0.00     0.210 C 
ENDBRANCH   9  23
TORSDOF 4
ENDMDL
MODEL 10
REMARK VINA RESULT:      -8.1      2.679      3.949
REMARK  4 active torsions:
REMARK  status: ('A' for Active; 'I' for Inactive)
REMARK    1  A    between atoms: C14_20  and  O4_4 
REMARK    2  A    between atoms: C3_9  and  N1_6 
REMARK       I    between atoms: C7_13  and  N1_6 
REMARK    3  A    between atoms: C1_7  and  C3_9 
REMARK    4  A    between atoms: C7_13  and  C8_14 
ROOT
HETATM    1  O2  UNK     1      18.768  -0.163  34.057  1.00  0.00    -0.271 OA
HETATM    2  O5  UNK     1      19.002   0.511  31.886  1.00  0.00    -0.259 OA
HETATM    3  C8  UNK     1      18.112   2.100  33.403  1.00  0.00     0.108 A 
HETATM    4  C9  UNK     1      17.739   2.383  34.657  1.00  0.00     0.037 A 
HETATM    5  C10 UNK     1      17.864   1.381  35.703  1.00  0.00     0.002 A 
HETATM    6  C11 UNK     1      18.659   0.774  33.034  1.00  0.00     0.304 A 
HETATM    7  C12 UNK     1      18.377   0.129  35.378  1.00  0.00     0.123 A 
HETATM    8  C13 UNK     1      17.487   1.632  37.024  1.00  0.00     0.014 A 
HETATM    9  C14 UNK     1      18.522  -0.876  36.333  1.00  0.00     0.102 A 
HETATM   10  C15 UNK     1      18.145  -0.616  37.649  1.00  0.00     0.040 A 
HETATM   11  C16 UNK     1      17.627   0.634  37.994  1.00  0.00     0.004 A 
ENDROOT
BRANCH   3  12
HETATM   12  C7  UNK     1      17.947   3.176  32.418  1.00  0.00     0.258 C 
HETATM   13  O3  UNK     1      17.742   2.921  31.233  1.00  0.00    -0.267 OA
HETATM   14  N1  UNK     1      18.049   4.437  32.978  1.00  0.00    -0.350 N 
HETATM   15  H12 UNK     1      18.194   4.539  33.977  1.00  0.00     0.163 HD
BRANCH  14  16
HETATM   16  C3  UNK     1      17.923   5.653  32.207  1.00  0.00     0.109 C 
HETATM   17  C6  UNK     1      16.483   6.149  32.240  1.00  0.00     0.035 C 
BRANCH  16  18
HETATM   18  C1  UNK     1      18.881   6.711  32.720  1.00  0.00     0.143 C 
HETATM   19  O1  UNK     1      18.235   7.996  32.719  1.00  0.00    -0.384 OA
HETATM   20  C5  UNK     1      18.593   8.684  33.927  1.00  0.00     0.168 C 
HETATM   21  C4  UNK     1      19.682   7.870  34.593  1.00  0.00     0.029 C 
HETATM   22  C2  UNK     1      19.342   6.471  34.147  1.00  0.00     0.036 C 
ENDBRANCH  16  18
ENDBRANCH  14  16
ENDBRANCH   3  12
BRANCH   9  23
HETATM   23  O4  UNK     1      19.026  -2.094  36.002  1.00  0.00    -0.353 OA
HETATM   24  C17 UNK     1      19.680  -2.831  37.035  1.00  0.00     0.210 C 
ENDBRANCH   9  23
TORSDOF 4
ENDMDL
