MODEL 1
REMARK VINA RESULT:      -8.1      0.000      0.000
REMARK  4 active torsions:
REMARK  status: ('A' for Active; 'I' for Inactive)
REMARK    1  A    between atoms: C6_10  and  O2_2 
REMARK    2  A    between atoms: C12_16  and  O3_3 
REMARK    3  A    between atoms: C16_20  and  O3_3 
REMARK    4  A    between atoms: C1_5  and  C3_7 
ROOT
HETATM    1  O1  UNK     1      19.605  -1.209  34.743  1.00  0.00    -0.271 OA
HETATM    2  O4  UNK     1      20.728  -3.102  34.144  1.00  0.00    -0.259 OA
HETATM    3  C1  UNK     1      19.732  -3.101  36.305  1.00  0.00     0.051 A 
HETATM    4  C2  UNK     1      18.512  -1.083  36.907  1.00  0.00     0.002 A 
HETATM    5  C4  UNK     1      18.830  -0.506  35.684  1.00  0.00     0.123 A 
HETATM    6  C5  UNK     1      18.997  -2.422  37.199  1.00  0.00     0.032 A 
HETATM    7  C6  UNK     1      18.400   0.775  35.342  1.00  0.00     0.102 A 
HETATM    8  C7  UNK     1      20.073  -2.498  34.987  1.00  0.00     0.299 A 
HETATM    9  C8  UNK     1      17.739  -0.355  37.816  1.00  0.00     0.014 A 
HETATM   10  C11 UNK     1      17.630   1.495  36.254  1.00  0.00     0.040 A 
HETATM   11  C13 UNK     1      17.301   0.931  37.488  1.00  0.00     0.004 A 
ENDROOT
BRANCH   3  12
HETATM   12  C3  UNK     1      20.215  -4.450  36.654  1.00  0.00    -0.020 A 
HETATM   13  C10 UNK     1      19.737  -5.562  35.961  1.00  0.00     0.015 A 
HETATM   14  C15 UNK     1      20.194  -6.837  36.289  1.00  0.00     0.037 A 
HETATM   15  C12 UNK     1      21.129  -7.001  37.311  1.00  0.00     0.068 A 
HETATM   16  C14 UNK     1      21.607  -5.890  38.004  1.00  0.00     0.037 A 
HETATM   17  C9  UNK     1      21.150  -4.613  37.675  1.00  0.00     0.015 A 
BRANCH  15  18
HETATM   18  O3  UNK     1      21.577  -8.246  37.632  1.00  0.00    -0.352 OA
BRANCH  18  19
HETATM   19  C16 UNK     1      21.481  -8.638  39.001  1.00  0.00     0.171 C 
HETATM   20  C18 UNK     1      20.066  -9.094  39.286  1.00  0.00     0.034 C 
ENDBRANCH  18  19
ENDBRANCH  15  18
ENDBRANCH   3  12
BRANCH   7  21
HETATM   21  O2  UNK     1      18.719   1.328  34.142  1.00  0.00    -0.353 OA
HETATM   22  C17 UNK     1      18.227   2.642  33.878  1.00  0.00     0.210 C 
ENDBRANCH   7  21
TORSDOF 4
ENDMDL
MODEL 2
REMARK VINA RESULT:      -8.1      4.977     10.957
REMARK  4 active torsions:
REMARK  status: ('A' for Active; 'I' for Inactive)
REMARK    1  A    between atoms: C6_10  and  O2_2 
REMARK    2  A    between atoms: C12_16  and  O3_3 
REMARK    3  A    between atoms: C16_20  and  O3_3 
REMARK    4  A    between atoms: C1_5  and  C3_7 
ROOT
HETATM    1  O1  UNK     1      18.224   1.870  32.305  1.00  0.00    -0.271 OA
HETATM    2  O4  UNK     1      18.129   3.798  31.089  1.00  0.00    -0.259 OA
HETATM    3  C1  UNK     1      18.288   4.043  33.450  1.00  0.00     0.051 A 
HETATM    4  C2  UNK     1      18.422   1.972  34.723  1.00  0.00     0.002 A 
HETATM    5  C4  UNK     1      18.336   1.228  33.553  1.00  0.00     0.123 A 
HETATM    6  C5  UNK     1      18.388   3.423  34.636  1.00  0.00     0.032 A 
HETATM    7  C6  UNK     1      18.358  -0.165  33.565  1.00  0.00     0.102 A 
HETATM    8  C7  UNK     1      18.204   3.258  32.188  1.00  0.00     0.299 A 
HETATM    9  C8  UNK     1      18.533   1.300  35.943  1.00  0.00     0.014 A 
HETATM   10  C11 UNK     1      18.469  -0.829  34.786  1.00  0.00     0.040 A 
HETATM   11  C13 UNK     1      18.556  -0.097  35.971  1.00  0.00     0.004 A 
ENDROOT
BRANCH   3  12
HETATM   12  C3  UNK     1      18.242   5.516  33.415  1.00  0.00    -0.020 A 
HETATM   13  C10 UNK     1      19.400   6.255  33.654  1.00  0.00     0.015 A 
HETATM   14  C15 UNK     1      19.357   7.648  33.619  1.00  0.00     0.037 A 
HETATM   15  C12 UNK     1      18.156   8.303  33.348  1.00  0.00     0.068 A 
HETATM   16  C14 UNK     1      16.998   7.564  33.109  1.00  0.00     0.037 A 
HETATM   17  C9  UNK     1      17.040   6.170  33.143  1.00  0.00     0.015 A 
BRANCH  15  18
HETATM   18  O3  UNK     1      18.114   9.663  33.313  1.00  0.00    -0.352 OA
BRANCH  18  19
HETATM   19  C16 UNK     1      17.132  10.303  34.129  1.00  0.00     0.171 C 
HETATM   20  C18 UNK     1      17.434  11.785  34.192  1.00  0.00     0.034 C 
ENDBRANCH  18  19
ENDBRANCH  15  18
ENDBRANCH   3  12
BRANCH   7  21
HETATM   21  O2  UNK     1      18.273  -0.881  32.412  1.00  0.00    -0.353 OA
HETATM   22  C17 UNK     1      19.456  -1.547  31.970  1.00  0.00     0.210 C 
ENDBRANCH   7  21
TORSDOF 4
ENDMDL
MODEL 3
REMARK VINA RESULT:      -7.9      5.067     10.947
REMARK  4 active torsions:
REMARK  status: ('A' for Active; 'I' for Inactive)
REMARK    1  A    between atoms: C6_10  and  O2_2 
REMARK    2  A    between atoms: C12_16  and  O3_3 
REMARK    3  A    between atoms: C16_20  and  O3_3 
REMARK    4  A    between atoms: C1_5  and  C3_7 
ROOT
HETATM    1  O1  UNK     1      18.893   0.613  32.614  1.00  0.00    -0.271 OA
HETATM    2  O4  UNK     1      18.123   2.366  33.853  1.00  0.00    -0.259 OA
HETATM    3  C1  UNK     1      18.631   2.822  31.574  1.00  0.00     0.051 A 
HETATM    4  C2  UNK     1      19.420   0.928  30.266  1.00  0.00     0.002 A 
HETATM    5  C4  UNK     1      19.332   0.101  31.379  1.00  0.00     0.123 A 
HETATM    6  C5  UNK     1      19.056   2.328  30.401  1.00  0.00     0.032 A 
HETATM    7  C6  UNK     1      19.669  -1.250  31.319  1.00  0.00     0.102 A 
HETATM    8  C7  UNK     1      18.524   1.946  32.773  1.00  0.00     0.299 A 
HETATM    9  C8  UNK     1      19.859   0.384  29.056  1.00  0.00     0.014 A 
HETATM   10  C11 UNK     1      20.107  -1.784  30.108  1.00  0.00     0.040 A 
HETATM   11  C13 UNK     1      20.201  -0.968  28.979  1.00  0.00     0.004 A 
ENDROOT
BRANCH   3  12
HETATM   12  C3  UNK     1      18.289   4.254  31.665  1.00  0.00    -0.020 A 
HETATM   13  C10 UNK     1      17.537   4.723  32.742  1.00  0.00     0.015 A 
HETATM   14  C15 UNK     1      17.214   6.076  32.830  1.00  0.00     0.037 A 
HETATM   15  C12 UNK     1      17.643   6.961  31.840  1.00  0.00     0.068 A 
HETATM   16  C14 UNK     1      18.395   6.492  30.764  1.00  0.00     0.037 A 
HETATM   17  C9  UNK     1      18.718   5.138  30.676  1.00  0.00     0.015 A 
BRANCH  15  18
HETATM   18  O3  UNK     1      17.328   8.283  31.925  1.00  0.00    -0.352 OA
BRANCH  18  19
HETATM   19  C16 UNK     1      16.999   8.789  33.219  1.00  0.00     0.171 C 
HETATM   20  C18 UNK     1      18.210   9.491  33.796  1.00  0.00     0.034 C 
ENDBRANCH  18  19
ENDBRANCH  15  18
ENDBRANCH   3  12
BRANCH   7  21
HETATM   21  O2  UNK     1      19.579  -2.047  32.417  1.00  0.00    -0.353 OA
HETATM   22  C17 UNK     1      20.797  -2.583  32.935  1.00  0.00     0.210 C 
ENDBRANCH   7  21
TORSDOF 4
ENDMDL
MODEL 4
REMARK VINA RESULT:      -7.9      7.831     10.674
REMARK  4 active torsions:
REMARK  status: ('A' for Active; 'I' for Inactive)
REMARK    1  A    between atoms: C6_10  and  O2_2 
REMARK    2  A    between atoms: C12_16  and  O3_3 
REMARK    3  A    between atoms: C16_20  and  O3_3 
REMARK    4  A    between atoms: C1_5  and  C3_7 
ROOT
HETATM    1  O1  UNK     1      17.055   8.196  32.850  1.00  0.00    -0.271 OA
HETATM    2  O4  UNK     1      16.035   6.396  31.889  1.00  0.00    -0.259 OA
HETATM    3  C1  UNK     1      18.330   6.133  32.458  1.00  0.00     0.051 A 
HETATM    4  C2  UNK     1      19.386   8.056  33.512  1.00  0.00     0.002 A 
HETATM    5  C4  UNK     1      18.201   8.777  33.423  1.00  0.00     0.123 A 
HETATM    6  C5  UNK     1      19.421   6.696  33.000  1.00  0.00     0.032 A 
HETATM    7  C6  UNK     1      18.100  10.085  33.890  1.00  0.00     0.102 A 
HETATM    8  C7  UNK     1      17.052   6.890  32.364  1.00  0.00     0.299 A 
HETATM    9  C8  UNK     1      20.503   8.666  34.088  1.00  0.00     0.014 A 
HETATM   10  C11 UNK     1      19.220  10.687  34.463  1.00  0.00     0.040 A 
HETATM   11  C13 UNK     1      20.418   9.977  34.562  1.00  0.00     0.004 A 
ENDROOT
BRANCH   3  12
HETATM   12  C3  UNK     1      18.420   4.756  31.938  1.00  0.00    -0.020 A 
HETATM   13  C10 UNK     1      18.757   4.537  30.603  1.00  0.00     0.015 A 
HETATM   14  C15 UNK     1      18.843   3.235  30.110  1.00  0.00     0.037 A 
HETATM   15  C12 UNK     1      18.591   2.153  30.953  1.00  0.00     0.068 A 
HETATM   16  C14 UNK     1      18.254   2.372  32.288  1.00  0.00     0.037 A 
HETATM   17  C9  UNK     1      18.169   3.674  32.781  1.00  0.00     0.015 A 
BRANCH  15  18
HETATM   18  O3  UNK     1      18.676   0.882  30.473  1.00  0.00    -0.352 OA
BRANCH  18  19
HETATM   19  C16 UNK     1      19.432   0.688  29.278  1.00  0.00     0.171 C 
HETATM   20  C18 UNK     1      20.563  -0.278  29.563  1.00  0.00     0.034 C 
ENDBRANCH  18  19
ENDBRANCH  15  18
ENDBRANCH   3  12
BRANCH   7  21
HETATM   21  O2  UNK     1      16.934  10.779  33.796  1.00  0.00    -0.353 OA
HETATM   22  C17 UNK     1      16.962  12.155  34.176  1.00  0.00     0.210 C 
ENDBRANCH   7  21
TORSDOF 4
ENDMDL
MODEL 5
REMARK VINA RESULT:      -7.8      7.760     10.383
REMARK  4 active torsions:
REMARK  status: ('A' for Active; 'I' for Inactive)
REMARK    1  A    between atoms: C6_10  and  O2_2 
REMARK    2  A    between atoms: C12_16  and  O3_3 
REMARK    3  A    between atoms: C16_20  and  O3_3 
REMARK    4  A    between atoms: C1_5  and  C3_7 
ROOT
HETATM    1  O1  UNK     1      18.974   7.934  33.122  1.00  0.00    -0.271 OA
HETATM    2  O4  UNK     1      20.416   6.276  32.509  1.00  0.00    -0.259 OA
HETATM    3  C1  UNK     1      18.096   5.802  32.275  1.00  0.00     0.051 A 
HETATM    4  C2  UNK     1      16.580   7.599  32.904  1.00  0.00     0.002 A 
HETATM    5  C4  UNK     1      17.655   8.407  33.253  1.00  0.00     0.123 A 
HETATM    6  C5  UNK     1      16.841   6.258  32.408  1.00  0.00     0.032 A 
HETATM    7  C6  UNK     1      17.475   9.700  33.739  1.00  0.00     0.102 A 
HETATM    8  C7  UNK     1      19.258   6.660  32.636  1.00  0.00     0.299 A 
HETATM    9  C8  UNK     1      15.284   8.103  33.047  1.00  0.00     0.014 A 
HETATM   10  C11 UNK     1      16.180  10.195  33.879  1.00  0.00     0.040 A 
HETATM   11  C13 UNK     1      15.087   9.398  33.533  1.00  0.00     0.004 A 
ENDROOT
BRANCH   3  12
HETATM   12  C3  UNK     1      18.309   4.429  31.782  1.00  0.00    -0.020 A 
HETATM   13  C10 UNK     1      18.668   4.214  30.452  1.00  0.00     0.015 A 
HETATM   14  C15 UNK     1      18.872   2.916  29.985  1.00  0.00     0.037 A 
HETATM   15  C12 UNK     1      18.715   1.832  30.850  1.00  0.00     0.068 A 
HETATM   16  C14 UNK     1      18.356   2.047  32.180  1.00  0.00     0.037 A 
HETATM   17  C9  UNK     1      18.154   3.345  32.647  1.00  0.00     0.015 A 
BRANCH  15  18
HETATM   18  O3  UNK     1      18.914   0.564  30.395  1.00  0.00    -0.352 OA
BRANCH  18  19
HETATM   19  C16 UNK     1      19.579   0.422  29.140  1.00  0.00     0.171 C 
HETATM   20  C18 UNK     1      20.659  -0.631  29.272  1.00  0.00     0.034 C 
ENDBRANCH  18  19
ENDBRANCH  15  18
ENDBRANCH   3  12
BRANCH   7  21
HETATM   21  O2  UNK     1      18.537  10.480  34.077  1.00  0.00    -0.353 OA
HETATM   22  C17 UNK     1      18.319  11.890  34.130  1.00  0.00     0.210 C 
ENDBRANCH   7  21
TORSDOF 4
ENDMDL
MODEL 6
REMARK VINA RESULT:      -7.7     29.334     31.216
REMARK  4 active torsions:
REMARK  status: ('A' for Active; 'I' for Inactive)
REMARK    1  A    between atoms: C6_10  and  O2_2 
REMARK    2  A    between atoms: C12_16  and  O3_3 
REMARK    3  A    between atoms: C16_20  and  O3_3 
REMARK    4  A    between atoms: C1_5  and  C3_7 
ROOT
HETATM    1  O1  UNK     1      10.851   7.763   9.523  1.00  0.00    -0.271 OA
HETATM    2  O4  UNK     1      12.327   8.794  10.923  1.00  0.00    -0.259 OA
HETATM    3  C1  UNK     1      13.153   8.186   8.776  1.00  0.00     0.051 A 
HETATM    4  C2  UNK     1      11.549   7.118   7.289  1.00  0.00     0.002 A 
HETATM    5  C4  UNK     1      10.566   7.192   8.268  1.00  0.00     0.123 A 
HETATM    6  C5  UNK     1      12.875   7.635   7.585  1.00  0.00     0.032 A 
HETATM    7  C6  UNK     1       9.276   6.712   8.052  1.00  0.00     0.102 A 
HETATM    8  C7  UNK     1      12.107   8.281   9.832  1.00  0.00     0.299 A 
HETATM    9  C8  UNK     1      11.230   6.545   6.056  1.00  0.00     0.014 A 
HETATM   10  C11 UNK     1       8.965   6.141   6.819  1.00  0.00     0.040 A 
HETATM   11  C13 UNK     1       9.940   6.059   5.823  1.00  0.00     0.004 A 
ENDROOT
BRANCH   3  12
HETATM   12  C3  UNK     1      14.517   8.682   9.034  1.00  0.00    -0.020 A 
HETATM   13  C10 UNK     1      15.430   7.883   9.720  1.00  0.00     0.015 A 
HETATM   14  C15 UNK     1      16.721   8.350   9.964  1.00  0.00     0.037 A 
HETATM   15  C12 UNK     1      17.098   9.618   9.521  1.00  0.00     0.068 A 
HETATM   16  C14 UNK     1      16.185  10.418   8.835  1.00  0.00     0.037 A 
HETATM   17  C9  UNK     1      14.894   9.950   8.591  1.00  0.00     0.015 A 
BRANCH  15  18
HETATM   18  O3  UNK     1      18.359  10.075   9.758  1.00  0.00    -0.352 OA
BRANCH  18  19
HETATM   19  C16 UNK     1      18.575  11.480   9.628  1.00  0.00     0.171 C 
HETATM   20  C18 UNK     1      19.911  11.833  10.246  1.00  0.00     0.034 C 
ENDBRANCH  18  19
ENDBRANCH  15  18
ENDBRANCH   3  12
BRANCH   7  21
HETATM   21  O2  UNK     1       8.324   6.791   9.020  1.00  0.00    -0.353 OA
HETATM   22  C17 UNK     1       7.849   5.562   9.568  1.00  0.00     0.210 C 
ENDBRANCH   7  21
TORSDOF 4
ENDMDL
MODEL 7
REMARK VINA RESULT:      -7.6      6.602     11.782
REMARK  4 active torsions:
REMARK  status: ('A' for Active; 'I' for Inactive)
REMARK    1  A    between atoms: C6_10  and  O2_2 
REMARK    2  A    between atoms: C12_16  and  O3_3 
REMARK    3  A    between atoms: C16_20  and  O3_3 
REMARK    4  A    between atoms: C1_5  and  C3_7 
ROOT
HETATM    1  O1  UNK     1      19.113   3.137  30.196  1.00  0.00    -0.271 OA
HETATM    2  O4  UNK     1      19.073   5.371  29.734  1.00  0.00    -0.259 OA
HETATM    3  C1  UNK     1      18.445   4.734  31.939  1.00  0.00     0.051 A 
HETATM    4  C2  UNK     1      18.528   2.348  32.416  1.00  0.00     0.002 A 
HETATM    5  C4  UNK     1      18.939   2.085  31.114  1.00  0.00     0.123 A 
HETATM    6  C5  UNK     1      18.276   3.725  32.808  1.00  0.00     0.032 A 
HETATM    7  C6  UNK     1      19.194   0.789  30.672  1.00  0.00     0.102 A 
HETATM    8  C7  UNK     1      18.894   4.468  30.545  1.00  0.00     0.299 A 
HETATM    9  C8  UNK     1      18.367   1.279  33.300  1.00  0.00     0.014 A 
HETATM   10  C11 UNK     1      19.031  -0.272  31.561  1.00  0.00     0.040 A 
HETATM   11  C13 UNK     1      18.619  -0.027  32.872  1.00  0.00     0.004 A 
ENDROOT
BRANCH   3  12
HETATM   12  C3  UNK     1      18.161   6.112  32.380  1.00  0.00    -0.020 A 
HETATM   13  C10 UNK     1      19.119   6.824  33.100  1.00  0.00     0.015 A 
HETATM   14  C15 UNK     1      18.852   8.128  33.515  1.00  0.00     0.037 A 
HETATM   15  C12 UNK     1      17.625   8.719  33.211  1.00  0.00     0.068 A 
HETATM   16  C14 UNK     1      16.667   8.007  32.491  1.00  0.00     0.037 A 
HETATM   17  C9  UNK     1      16.935   6.703  32.075  1.00  0.00     0.015 A 
BRANCH  15  18
HETATM   18  O3  UNK     1      17.364   9.992  33.616  1.00  0.00    -0.352 OA
BRANCH  18  19
HETATM   19  C16 UNK     1      18.486  10.812  33.946  1.00  0.00     0.171 C 
HETATM   20  C18 UNK     1      17.995  12.203  34.289  1.00  0.00     0.034 C 
ENDBRANCH  18  19
ENDBRANCH  15  18
ENDBRANCH   3  12
BRANCH   7  21
HETATM   21  O2  UNK     1      19.596   0.547  29.396  1.00  0.00    -0.353 OA
HETATM   22  C17 UNK     1      20.459  -0.571  29.186  1.00  0.00     0.210 C 
ENDBRANCH   7  21
TORSDOF 4
ENDMDL
MODEL 8
REMARK VINA RESULT:      -7.5      5.389     11.217
REMARK  4 active torsions:
REMARK  status: ('A' for Active; 'I' for Inactive)
REMARK    1  A    between atoms: C6_10  and  O2_2 
REMARK    2  A    between atoms: C12_16  and  O3_3 
REMARK    3  A    between atoms: C16_20  and  O3_3 
REMARK    4  A    between atoms: C1_5  and  C3_7 
ROOT
HETATM    1  O1  UNK     1      18.740   1.373  32.885  1.00  0.00    -0.271 OA
HETATM    2  O4  UNK     1      18.116   3.050  34.299  1.00  0.00    -0.259 OA
HETATM    3  C1  UNK     1      18.400   3.644  32.012  1.00  0.00     0.051 A 
HETATM    4  C2  UNK     1      19.034   1.829  30.519  1.00  0.00     0.002 A 
HETATM    5  C4  UNK     1      19.048   0.936  31.583  1.00  0.00     0.123 A 
HETATM    6  C5  UNK     1      18.701   3.221  30.775  1.00  0.00     0.032 A 
HETATM    7  C6  UNK     1      19.363  -0.410  31.408  1.00  0.00     0.102 A 
HETATM    8  C7  UNK     1      18.403   2.696  33.161  1.00  0.00     0.299 A 
HETATM    9  C8  UNK     1      19.344   1.359  29.240  1.00  0.00     0.014 A 
HETATM   10  C11 UNK     1      19.672  -0.871  30.130  1.00  0.00     0.040 A 
HETATM   11  C13 UNK     1      19.662   0.012  29.048  1.00  0.00     0.004 A 
ENDROOT
BRANCH   3  12
HETATM   12  C3  UNK     1      18.085   5.068  32.224  1.00  0.00    -0.020 A 
HETATM   13  C10 UNK     1      19.073   5.940  32.679  1.00  0.00     0.015 A 
HETATM   14  C15 UNK     1      18.776   7.288  32.878  1.00  0.00     0.037 A 
HETATM   15  C12 UNK     1      17.489   7.763  32.624  1.00  0.00     0.068 A 
HETATM   16  C14 UNK     1      16.501   6.891  32.169  1.00  0.00     0.037 A 
HETATM   17  C9  UNK     1      16.798   5.543  31.969  1.00  0.00     0.015 A 
BRANCH  15  18
HETATM   18  O3  UNK     1      17.198   9.079  32.818  1.00  0.00    -0.352 OA
BRANCH  18  19
HETATM   19  C16 UNK     1      15.896   9.390  33.312  1.00  0.00     0.171 C 
HETATM   20  C18 UNK     1      15.914   9.322  34.825  1.00  0.00     0.034 C 
ENDBRANCH  18  19
ENDBRANCH  15  18
ENDBRANCH   3  12
BRANCH   7  21
HETATM   21  O2  UNK     1      19.373  -1.273  32.459  1.00  0.00    -0.353 OA
HETATM   22  C17 UNK     1      20.456  -2.201  32.530  1.00  0.00     0.210 C 
ENDBRANCH   7  21
TORSDOF 4
ENDMDL
MODEL 9
REMARK VINA RESULT:      -7.4     18.099     20.293
REMARK  4 active torsions:
REMARK  status: ('A' for Active; 'I' for Inactive)
REMARK    1  A    between atoms: C6_10  and  O2_2 
REMARK    2  A    between atoms: C12_16  and  O3_3 
REMARK    3  A    between atoms: C16_20  and  O3_3 
REMARK    4  A    between atoms: C1_5  and  C3_7 
ROOT
HETATM    1  O1  UNK     1      19.364   1.237  16.675  1.00  0.00    -0.271 OA
HETATM    2  O4  UNK     1      19.404   0.189  14.650  1.00  0.00    -0.259 OA
HETATM    3  C1  UNK     1      19.166  -1.209  16.561  1.00  0.00     0.051 A 
HETATM    4  C2  UNK     1      19.092  -0.063  18.707  1.00  0.00     0.002 A 
HETATM    5  C4  UNK     1      19.246   1.165  18.076  1.00  0.00     0.123 A 
HETATM    6  C5  UNK     1      19.060  -1.270  17.898  1.00  0.00     0.032 A 
HETATM    7  C6  UNK     1      19.289   2.359  18.793  1.00  0.00     0.102 A 
HETATM    8  C7  UNK     1      19.322   0.101  15.870  1.00  0.00     0.299 A 
HETATM    9  C8  UNK     1      18.978  -0.096  20.099  1.00  0.00     0.014 A 
HETATM   10  C11 UNK     1      19.175   2.318  20.181  1.00  0.00     0.040 A 
HETATM   11  C13 UNK     1      19.019   1.093  20.832  1.00  0.00     0.004 A 
ENDROOT
BRANCH   3  12
HETATM   12  C3  UNK     1      19.144  -2.462  15.784  1.00  0.00    -0.020 A 
HETATM   13  C10 UNK     1      17.926  -3.047  15.441  1.00  0.00     0.015 A 
HETATM   14  C15 UNK     1      17.904  -4.231  14.705  1.00  0.00     0.037 A 
HETATM   15  C12 UNK     1      19.101  -4.830  14.313  1.00  0.00     0.068 A 
HETATM   16  C14 UNK     1      20.319  -4.245  14.656  1.00  0.00     0.037 A 
HETATM   17  C9  UNK     1      20.341  -3.060  15.391  1.00  0.00     0.015 A 
BRANCH  15  18
HETATM   18  O3  UNK     1      19.081  -5.986  13.593  1.00  0.00    -0.352 OA
BRANCH  18  19
HETATM   19  C16 UNK     1      20.195  -6.237  12.736  1.00  0.00     0.171 C 
HETATM   20  C18 UNK     1      20.898  -7.496  13.198  1.00  0.00     0.034 C 
ENDBRANCH  18  19
ENDBRANCH  15  18
ENDBRANCH   3  12
BRANCH   7  21
HETATM   21  O2  UNK     1      19.441   3.554  18.162  1.00  0.00    -0.353 OA
HETATM   22  C17 UNK     1      20.626   4.296  18.448  1.00  0.00     0.210 C 
ENDBRANCH   7  21
TORSDOF 4
ENDMDL
MODEL 10
REMARK VINA RESULT:      -7.3      1.660      8.000
REMARK  4 active torsions:
REMARK  status: ('A' for Active; 'I' for Inactive)
REMARK    1  A    between atoms: C6_10  and  O2_2 
REMARK    2  A    between atoms: C12_16  and  O3_3 
REMARK    3  A    between atoms: C16_20  and  O3_3 
REMARK    4  A    between atoms: C1_5  and  C3_7 
ROOT
HETATM    1  O1  UNK     1      19.077  -7.205  37.745  1.00  0.00    -0.271 OA
HETATM    2  O4  UNK     1      17.747  -5.855  36.475  1.00  0.00    -0.259 OA
HETATM    3  C1  UNK     1      19.843  -4.950  37.142  1.00  0.00     0.051 A 
HETATM    4  C2  UNK     1      21.257  -6.421  38.469  1.00  0.00     0.002 A 
HETATM    5  C4  UNK     1      20.289  -7.417  38.428  1.00  0.00     0.123 A 
HETATM    6  C5  UNK     1      20.994  -5.158  37.801  1.00  0.00     0.032 A 
HETATM    7  C6  UNK     1      20.475  -8.649  39.051  1.00  0.00     0.102 A 
HETATM    8  C7  UNK     1      18.800  -6.011  37.082  1.00  0.00     0.299 A 
HETATM    9  C8  UNK     1      22.449  -6.668  39.156  1.00  0.00     0.014 A 
HETATM   10  C11 UNK     1      21.666  -8.887  39.734  1.00  0.00     0.040 A 
HETATM   11  C13 UNK     1      22.651  -7.899  39.786  1.00  0.00     0.004 A 
ENDROOT
BRANCH   3  12
HETATM   12  C3  UNK     1      19.616  -3.646  36.493  1.00  0.00    -0.020 A 
HETATM   13  C10 UNK     1      20.174  -3.383  35.243  1.00  0.00     0.015 A 
HETATM   14  C15 UNK     1      19.959  -2.150  34.628  1.00  0.00     0.037 A 
HETATM   15  C12 UNK     1      19.185  -1.180  35.264  1.00  0.00     0.068 A 
HETATM   16  C14 UNK     1      18.627  -1.442  36.515  1.00  0.00     0.037 A 
HETATM   17  C9  UNK     1      18.842  -2.675  37.130  1.00  0.00     0.015 A 
BRANCH  15  18
HETATM   18  O3  UNK     1      18.973   0.024  34.664  1.00  0.00    -0.352 OA
BRANCH  18  19
HETATM   19  C16 UNK     1      18.212   0.988  35.392  1.00  0.00     0.171 C 
HETATM   20  C18 UNK     1      19.130   2.109  35.833  1.00  0.00     0.034 C 
ENDBRANCH  18  19
ENDBRANCH  15  18
ENDBRANCH   3  12
BRANCH   7  21
HETATM   21  O2  UNK     1      19.519  -9.614  39.003  1.00  0.00    -0.353 OA
HETATM   22  C17 UNK     1      19.682 -10.645  38.028  1.00  0.00     0.210 C 
ENDBRANCH   7  21
TORSDOF 4
ENDMDL
