MODEL 1
REMARK VINA RESULT:      -9.2      0.000      0.000
REMARK  3 active torsions:
REMARK  status: ('A' for Active; 'I' for Inactive)
REMARK    1  A    between atoms: C17_23  and  O3_4 
REMARK    2  A    between atoms: C21_27  and  O3_4 
REMARK       I    between atoms: C7_13  and  N1_6 
REMARK    3  A    between atoms: C10_16  and  C7_13 
ROOT
HETATM    1  O2  UNK     1      18.492   4.134  31.401  1.00  0.00    -0.271 OA
HETATM    2  O4  UNK     1      18.577   6.295  30.665  1.00  0.00    -0.259 OA
HETATM    3  C10 UNK     1      18.474   5.976  33.011  1.00  0.00     0.108 A 
HETATM    4  C13 UNK     1      18.410   5.116  34.034  1.00  0.00     0.037 A 
HETATM    5  C14 UNK     1      18.382   3.683  33.788  1.00  0.00     0.002 A 
HETATM    6  C15 UNK     1      18.519   5.511  31.606  1.00  0.00     0.304 A 
HETATM    7  C16 UNK     1      18.424   3.225  32.475  1.00  0.00     0.123 A 
HETATM    8  C17 UNK     1      18.401   1.865  32.171  1.00  0.00     0.103 A 
HETATM    9  C18 UNK     1      18.316   2.750  34.826  1.00  0.00     0.014 A 
HETATM   10  C19 UNK     1      18.334   0.941  33.212  1.00  0.00     0.040 A 
HETATM   11  C20 UNK     1      18.291   1.382  34.536  1.00  0.00     0.004 A 
ENDROOT
BRANCH   3  12
HETATM   12  C7  UNK     1      18.496   7.413  33.364  1.00  0.00     0.264 C 
HETATM   13  O1  UNK     1      19.600   7.899  33.613  1.00  0.00    -0.267 OA
HETATM   14  N1  UNK     1      17.260   8.085  33.411  1.00  0.00    -0.309 N 
HETATM   15  C1  UNK     1      15.975   7.408  33.091  1.00  0.00     0.089 C 
HETATM   16  C5  UNK     1      17.168   9.470  33.835  1.00  0.00     0.044 A 
HETATM   17  C2  UNK     1      14.913   7.737  34.140  1.00  0.00     0.030 C 
HETATM   18  C6  UNK     1      15.523   7.723  31.661  1.00  0.00     0.033 C 
HETATM   19  C3  UNK     1      14.645   9.228  34.206  1.00  0.00     0.043 C 
HETATM   20  C4  UNK     1      15.924  10.023  34.220  1.00  0.00    -0.028 A 
HETATM   21  C8  UNK     1      15.839  11.373  34.609  1.00  0.00     0.051 A 
HETATM   22  C11 UNK     1      16.968  12.184  34.627  1.00  0.00     0.117 A 
HETATM   23  F1  UNK     1      16.873  13.466  34.999  1.00  0.00    -0.206 F 
HETATM   24  C12 UNK     1      18.192  11.657  34.238  1.00  0.00     0.044 A 
HETATM   25  C9  UNK     1      18.289  10.320  33.840  1.00  0.00     0.033 A 
ENDBRANCH   3  12
BRANCH   8  26
HETATM   26  O3  UNK     1      18.441   1.432  30.883  1.00  0.00    -0.349 OA
BRANCH  26  27
HETATM   27  C21 UNK     1      19.536   0.595  30.512  1.00  0.00     0.171 C 
HETATM   28  C22 UNK     1      19.528   0.409  29.010  1.00  0.00     0.034 C 
ENDBRANCH  26  27
ENDBRANCH   8  26
TORSDOF 3
ENDMDL
MODEL 2
REMARK VINA RESULT:      -8.9      8.542     13.326
REMARK  3 active torsions:
REMARK  status: ('A' for Active; 'I' for Inactive)
REMARK    1  A    between atoms: C17_23  and  O3_4 
REMARK    2  A    between atoms: C21_27  and  O3_4 
REMARK       I    between atoms: C7_13  and  N1_6 
REMARK    3  A    between atoms: C10_16  and  C7_13 
ROOT
HETATM    1  O2  UNK     1      18.552  -1.316  35.384  1.00  0.00    -0.271 OA
HETATM    2  O4  UNK     1      18.455  -2.118  37.521  1.00  0.00    -0.259 OA
HETATM    3  C10 UNK     1      19.957  -3.205  36.046  1.00  0.00     0.108 A 
HETATM    4  C13 UNK     1      20.482  -3.280  34.817  1.00  0.00     0.037 A 
HETATM    5  C14 UNK     1      20.058  -2.352  33.780  1.00  0.00     0.002 A 
HETATM    6  C15 UNK     1      18.939  -2.190  36.396  1.00  0.00     0.304 A 
HETATM    7  C16 UNK     1      19.101  -1.390  34.089  1.00  0.00     0.123 A 
HETATM    8  C17 UNK     1      18.652  -0.472  33.142  1.00  0.00     0.103 A 
HETATM    9  C18 UNK     1      20.578  -2.394  32.485  1.00  0.00     0.014 A 
HETATM   10  C19 UNK     1      19.176  -0.521  31.851  1.00  0.00     0.040 A 
HETATM   11  C20 UNK     1      20.137  -1.479  31.524  1.00  0.00     0.004 A 
ENDROOT
BRANCH   3  12
HETATM   12  C7  UNK     1      20.453  -4.194  37.030  1.00  0.00     0.264 C 
HETATM   13  O1  UNK     1      21.291  -3.790  37.837  1.00  0.00    -0.267 OA
HETATM   14  N1  UNK     1      19.947  -5.504  36.938  1.00  0.00    -0.309 N 
HETATM   15  C1  UNK     1      18.931  -5.895  35.925  1.00  0.00     0.089 C 
HETATM   16  C5  UNK     1      20.437  -6.566  37.798  1.00  0.00     0.044 A 
HETATM   17  C2  UNK     1      19.321  -7.207  35.243  1.00  0.00     0.030 C 
HETATM   18  C6  UNK     1      17.524  -5.931  36.533  1.00  0.00     0.033 C 
HETATM   19  C3  UNK     1      19.431  -8.338  36.247  1.00  0.00     0.043 C 
HETATM   20  C4  UNK     1      20.199  -7.922  37.473  1.00  0.00    -0.028 A 
HETATM   21  C8  UNK     1      20.659  -8.945  38.324  1.00  0.00     0.051 A 
HETATM   22  C11 UNK     1      21.355  -8.646  39.490  1.00  0.00     0.117 A 
HETATM   23  F1  UNK     1      21.787  -9.629  40.288  1.00  0.00    -0.206 F 
HETATM   24  C12 UNK     1      21.583  -7.319  39.826  1.00  0.00     0.044 A 
HETATM   25  C9  UNK     1      21.123  -6.292  38.995  1.00  0.00     0.033 A 
ENDBRANCH   3  12
BRANCH   8  26
HETATM   26  O3  UNK     1      17.716   0.462  33.457  1.00  0.00    -0.349 OA
BRANCH  26  27
HETATM   27  C21 UNK     1      18.163   1.811  33.592  1.00  0.00     0.171 C 
HETATM   28  C22 UNK     1      18.286   2.145  35.063  1.00  0.00     0.034 C 
ENDBRANCH  26  27
ENDBRANCH   8  26
TORSDOF 3
ENDMDL
MODEL 3
REMARK VINA RESULT:      -8.5      8.208     12.892
REMARK  3 active torsions:
REMARK  status: ('A' for Active; 'I' for Inactive)
REMARK    1  A    between atoms: C17_23  and  O3_4 
REMARK    2  A    between atoms: C21_27  and  O3_4 
REMARK       I    between atoms: C7_13  and  N1_6 
REMARK    3  A    between atoms: C10_16  and  C7_13 
ROOT
HETATM    1  O2  UNK     1      19.436  -1.159  34.498  1.00  0.00    -0.271 OA
HETATM    2  O4  UNK     1      21.271  -2.520  34.520  1.00  0.00    -0.259 OA
HETATM    3  C10 UNK     1      19.891  -2.566  36.446  1.00  0.00     0.108 A 
HETATM    4  C13 UNK     1      18.799  -2.105  37.068  1.00  0.00     0.037 A 
HETATM    5  C14 UNK     1      17.947  -1.121  36.420  1.00  0.00     0.002 A 
HETATM    6  C15 UNK     1      20.270  -2.101  35.093  1.00  0.00     0.304 A 
HETATM    7  C16 UNK     1      18.286  -0.671  35.148  1.00  0.00     0.123 A 
HETATM    8  C17 UNK     1      17.512   0.271  34.473  1.00  0.00     0.103 A 
HETATM    9  C18 UNK     1      16.798  -0.612  37.032  1.00  0.00     0.014 A 
HETATM   10  C19 UNK     1      16.367   0.773  35.090  1.00  0.00     0.040 A 
HETATM   11  C20 UNK     1      16.012   0.333  36.366  1.00  0.00     0.004 A 
ENDROOT
BRANCH   3  12
HETATM   12  C7  UNK     1      20.694  -3.564  37.188  1.00  0.00     0.264 C 
HETATM   13  O1  UNK     1      21.508  -3.119  37.998  1.00  0.00    -0.267 OA
HETATM   14  N1  UNK     1      20.477  -4.921  36.884  1.00  0.00    -0.309 N 
HETATM   15  C1  UNK     1      19.466  -5.360  35.886  1.00  0.00     0.089 C 
HETATM   16  C5  UNK     1      21.277  -5.969  37.491  1.00  0.00     0.044 A 
HETATM   17  C2  UNK     1      20.055  -6.410  34.943  1.00  0.00     0.030 C 
HETATM   18  C6  UNK     1      18.176  -5.826  36.571  1.00  0.00     0.033 C 
HETATM   19  C3  UNK     1      20.517  -7.638  35.703  1.00  0.00     0.043 C 
HETATM   20  C4  UNK     1      21.306  -7.268  36.931  1.00  0.00    -0.028 A 
HETATM   21  C8  UNK     1      22.067  -8.284  37.538  1.00  0.00     0.051 A 
HETATM   22  C11 UNK     1      22.805  -8.034  38.690  1.00  0.00     0.117 A 
HETATM   23  F1  UNK     1      23.524  -9.010  39.256  1.00  0.00    -0.206 F 
HETATM   24  C12 UNK     1      22.775  -6.767  39.256  1.00  0.00     0.044 A 
HETATM   25  C9  UNK     1      22.015  -5.750  38.669  1.00  0.00     0.033 A 
ENDBRANCH   3  12
BRANCH   8  26
HETATM   26  O3  UNK     1      17.856   0.703  33.230  1.00  0.00    -0.349 OA
BRANCH  26  27
HETATM   27  C21 UNK     1      18.256   2.068  33.104  1.00  0.00     0.171 C 
HETATM   28  C22 UNK     1      18.287   2.439  31.637  1.00  0.00     0.034 C 
ENDBRANCH  26  27
ENDBRANCH   8  26
TORSDOF 3
ENDMDL
MODEL 4
REMARK VINA RESULT:      -8.5      8.965     13.917
REMARK  3 active torsions:
REMARK  status: ('A' for Active; 'I' for Inactive)
REMARK    1  A    between atoms: C17_23  and  O3_4 
REMARK    2  A    between atoms: C21_27  and  O3_4 
REMARK       I    between atoms: C7_13  and  N1_6 
REMARK    3  A    between atoms: C10_16  and  C7_13 
ROOT
HETATM    1  O2  UNK     1      19.892  -1.655  34.693  1.00  0.00    -0.271 OA
HETATM    2  O4  UNK     1      20.932  -3.306  33.506  1.00  0.00    -0.259 OA
HETATM    3  C10 UNK     1      19.864  -3.956  35.518  1.00  0.00     0.108 A 
HETATM    4  C13 UNK     1      19.151  -3.592  36.591  1.00  0.00     0.037 A 
HETATM    5  C14 UNK     1      18.763  -2.202  36.776  1.00  0.00     0.002 A 
HETATM    6  C15 UNK     1      20.279  -2.977  34.490  1.00  0.00     0.304 A 
HETATM    7  C16 UNK     1      19.143  -1.265  35.820  1.00  0.00     0.123 A 
HETATM    8  C17 UNK     1      18.803   0.081  35.937  1.00  0.00     0.103 A 
HETATM    9  C18 UNK     1      18.020  -1.777  37.879  1.00  0.00     0.014 A 
HETATM   10  C19 UNK     1      18.061   0.497  37.042  1.00  0.00     0.040 A 
HETATM   11  C20 UNK     1      17.671  -0.429  38.010  1.00  0.00     0.004 A 
ENDROOT
BRANCH   3  12
HETATM   12  C7  UNK     1      20.211  -5.392  35.422  1.00  0.00     0.264 C 
HETATM   13  O1  UNK     1      20.110  -5.906  34.307  1.00  0.00    -0.267 OA
HETATM   14  N1  UNK     1      20.595  -6.044  36.608  1.00  0.00    -0.309 N 
HETATM   15  C1  UNK     1      20.688  -5.333  37.911  1.00  0.00     0.089 C 
HETATM   16  C5  UNK     1      20.868  -7.470  36.634  1.00  0.00     0.044 A 
HETATM   17  C2  UNK     1      20.014  -6.143  39.020  1.00  0.00     0.030 C 
HETATM   18  C6  UNK     1      22.138  -4.961  38.239  1.00  0.00     0.033 C 
HETATM   19  C3  UNK     1      20.667  -7.501  39.187  1.00  0.00     0.043 C 
HETATM   20  C4  UNK     1      20.899  -8.174  37.861  1.00  0.00    -0.028 A 
HETATM   21  C8  UNK     1      21.185  -9.552  37.879  1.00  0.00     0.051 A 
HETATM   22  C11 UNK     1      21.436 -10.245  36.700  1.00  0.00     0.117 A 
HETATM   23  F1  UNK     1      21.706 -11.556  36.732  1.00  0.00    -0.206 F 
HETATM   24  C12 UNK     1      21.421  -9.563  35.492  1.00  0.00     0.044 A 
HETATM   25  C9  UNK     1      21.148  -8.192  35.460  1.00  0.00     0.033 A 
ENDBRANCH   3  12
BRANCH   8  26
HETATM   26  O3  UNK     1      19.182   0.987  34.997  1.00  0.00    -0.349 OA
BRANCH  26  27
HETATM   27  C21 UNK     1      18.146   1.602  34.230  1.00  0.00     0.171 C 
HETATM   28  C22 UNK     1      18.308   3.105  34.299  1.00  0.00     0.034 C 
ENDBRANCH  26  27
ENDBRANCH   8  26
TORSDOF 3
ENDMDL
MODEL 5
REMARK VINA RESULT:      -8.5      1.275      2.276
REMARK  3 active torsions:
REMARK  status: ('A' for Active; 'I' for Inactive)
REMARK    1  A    between atoms: C17_23  and  O3_4 
REMARK    2  A    between atoms: C21_27  and  O3_4 
REMARK       I    between atoms: C7_13  and  N1_6 
REMARK    3  A    between atoms: C10_16  and  C7_13 
ROOT
HETATM    1  O2  UNK     1      18.374   3.515  33.047  1.00  0.00    -0.271 OA
HETATM    2  O4  UNK     1      18.286   4.983  34.795  1.00  0.00    -0.259 OA
HETATM    3  C10 UNK     1      18.456   5.923  32.627  1.00  0.00     0.108 A 
HETATM    4  C13 UNK     1      18.543   5.717  31.308  1.00  0.00     0.037 A 
HETATM    5  C14 UNK     1      18.551   4.364  30.775  1.00  0.00     0.002 A 
HETATM    6  C15 UNK     1      18.365   4.799  33.585  1.00  0.00     0.304 A 
HETATM    7  C16 UNK     1      18.465   3.293  31.659  1.00  0.00     0.123 A 
HETATM    8  C17 UNK     1      18.468   1.973  31.214  1.00  0.00     0.103 A 
HETATM    9  C18 UNK     1      18.640   4.103  29.406  1.00  0.00     0.014 A 
HETATM   10  C19 UNK     1      18.557   1.720  29.846  1.00  0.00     0.040 A 
HETATM   11  C20 UNK     1      18.643   2.783  28.945  1.00  0.00     0.004 A 
ENDROOT
BRANCH   3  12
HETATM   12  C7  UNK     1      18.457   7.336  33.070  1.00  0.00     0.264 C 
HETATM   13  O1  UNK     1      19.560   7.844  33.275  1.00  0.00    -0.267 OA
HETATM   14  N1  UNK     1      17.207   7.958  33.244  1.00  0.00    -0.309 N 
HETATM   15  C1  UNK     1      15.925   7.256  32.969  1.00  0.00     0.089 C 
HETATM   16  C5  UNK     1      17.100   9.310  33.762  1.00  0.00     0.044 A 
HETATM   17  C2  UNK     1      14.928   7.481  34.107  1.00  0.00     0.030 C 
HETATM   18  C6  UNK     1      15.364   7.643  31.596  1.00  0.00     0.033 C 
HETATM   19  C3  UNK     1      14.619   8.954  34.286  1.00  0.00     0.043 C 
HETATM   20  C4  UNK     1      15.870   9.792  34.266  1.00  0.00    -0.028 A 
HETATM   21  C8  UNK     1      15.770  11.112  34.746  1.00  0.00     0.051 A 
HETATM   22  C11 UNK     1      16.871  11.960  34.739  1.00  0.00     0.117 A 
HETATM   23  F1  UNK     1      16.761  13.212  35.199  1.00  0.00    -0.206 F 
HETATM   24  C12 UNK     1      18.080  11.503  34.235  1.00  0.00     0.044 A 
HETATM   25  C9  UNK     1      18.192  10.197  33.746  1.00  0.00     0.033 A 
ENDBRANCH   3  12
BRANCH   8  26
HETATM   26  O3  UNK     1      18.386   0.935  32.090  1.00  0.00    -0.349 OA
BRANCH  26  27
HETATM   27  C21 UNK     1      19.225  -0.193  31.842  1.00  0.00     0.171 C 
HETATM   28  C22 UNK     1      18.835  -1.313  32.782  1.00  0.00     0.034 C 
ENDBRANCH  26  27
ENDBRANCH   8  26
TORSDOF 3
ENDMDL
MODEL 6
REMARK VINA RESULT:      -8.4     17.424     19.201
REMARK  3 active torsions:
REMARK  status: ('A' for Active; 'I' for Inactive)
REMARK    1  A    between atoms: C17_23  and  O3_4 
REMARK    2  A    between atoms: C21_27  and  O3_4 
REMARK       I    between atoms: C7_13  and  N1_6 
REMARK    3  A    between atoms: C10_16  and  C7_13 
ROOT
HETATM    1  O2  UNK     1      24.575  -8.441  37.422  1.00  0.00    -0.271 OA
HETATM    2  O4  UNK     1      26.119  -7.000  38.292  1.00  0.00    -0.259 OA
HETATM    3  C10 UNK     1      26.943  -9.052  37.440  1.00  0.00     0.108 A 
HETATM    4  C13 UNK     1      26.672 -10.226  36.858  1.00  0.00     0.037 A 
HETATM    5  C14 UNK     1      25.302 -10.579  36.519  1.00  0.00     0.002 A 
HETATM    6  C15 UNK     1      25.876  -8.077  37.758  1.00  0.00     0.304 A 
HETATM    7  C16 UNK     1      24.284  -9.676  36.810  1.00  0.00     0.123 A 
HETATM    8  C17 UNK     1      22.952  -9.953  36.511  1.00  0.00     0.103 A 
HETATM    9  C18 UNK     1      24.974 -11.793  35.912  1.00  0.00     0.014 A 
HETATM   10  C19 UNK     1      22.633 -11.167  35.905  1.00  0.00     0.040 A 
HETATM   11  C20 UNK     1      23.641 -12.084  35.606  1.00  0.00     0.004 A 
ENDROOT
BRANCH   3  12
HETATM   12  C7  UNK     1      28.367  -8.787  37.747  1.00  0.00     0.264 C 
HETATM   13  O1  UNK     1      28.745  -9.076  38.882  1.00  0.00    -0.267 OA
HETATM   14  N1  UNK     1      29.148  -8.206  36.730  1.00  0.00    -0.309 N 
HETATM   15  C1  UNK     1      28.596  -7.894  35.385  1.00  0.00     0.089 C 
HETATM   16  C5  UNK     1      30.529  -7.825  36.962  1.00  0.00     0.044 A 
HETATM   17  C2  UNK     1      29.005  -6.487  34.944  1.00  0.00     0.030 C 
HETATM   18  C6  UNK     1      28.973  -8.974  34.365  1.00  0.00     0.033 C 
HETATM   19  C3  UNK     1      30.513  -6.350  34.868  1.00  0.00     0.043 C 
HETATM   20  C4  UNK     1      31.188  -6.935  36.081  1.00  0.00    -0.028 A 
HETATM   21  C8  UNK     1      32.534  -6.588  36.300  1.00  0.00     0.051 A 
HETATM   22  C11 UNK     1      33.237  -7.104  37.382  1.00  0.00     0.117 A 
HETATM   23  F1  UNK     1      34.517  -6.764  37.579  1.00  0.00    -0.206 F 
HETATM   24  C12 UNK     1      32.607  -7.988  38.247  1.00  0.00     0.044 A 
HETATM   25  C9  UNK     1      31.272  -8.349  38.035  1.00  0.00     0.033 A 
ENDBRANCH   3  12
BRANCH   8  26
HETATM   26  O3  UNK     1      21.967  -9.062  36.802  1.00  0.00    -0.349 OA
BRANCH  26  27
HETATM   27  C21 UNK     1      20.999  -9.456  37.775  1.00  0.00     0.171 C 
HETATM   28  C22 UNK     1      21.398  -8.893  39.122  1.00  0.00     0.034 C 
ENDBRANCH  26  27
ENDBRANCH   8  26
TORSDOF 3
ENDMDL
MODEL 7
REMARK VINA RESULT:      -8.2     17.238     18.907
REMARK  3 active torsions:
REMARK  status: ('A' for Active; 'I' for Inactive)
REMARK    1  A    between atoms: C17_23  and  O3_4 
REMARK    2  A    between atoms: C21_27  and  O3_4 
REMARK       I    between atoms: C7_13  and  N1_6 
REMARK    3  A    between atoms: C10_16  and  C7_13 
ROOT
HETATM    1  O2  UNK     1      29.096  -8.236  31.206  1.00  0.00    -0.271 OA
HETATM    2  O4  UNK     1      28.500  -6.292  32.247  1.00  0.00    -0.259 OA
HETATM    3  C10 UNK     1      29.115  -8.101  33.648  1.00  0.00     0.108 A 
HETATM    4  C13 UNK     1      29.525  -9.371  33.742  1.00  0.00     0.037 A 
HETATM    5  C14 UNK     1      29.746 -10.162  32.541  1.00  0.00     0.002 A 
HETATM    6  C15 UNK     1      28.876  -7.456  32.338  1.00  0.00     0.304 A 
HETATM    7  C16 UNK     1      29.527  -9.574  31.300  1.00  0.00     0.123 A 
HETATM    8  C17 UNK     1      29.720 -10.276  30.112  1.00  0.00     0.103 A 
HETATM    9  C18 UNK     1      30.172 -11.491  32.593  1.00  0.00     0.014 A 
HETATM   10  C19 UNK     1      30.145 -11.602  30.171  1.00  0.00     0.040 A 
HETATM   11  C20 UNK     1      30.371 -12.208  31.408  1.00  0.00     0.004 A 
ENDROOT
BRANCH   3  12
HETATM   12  C7  UNK     1      28.917  -7.381  34.927  1.00  0.00     0.264 C 
HETATM   13  O1  UNK     1      27.811  -7.498  35.455  1.00  0.00    -0.267 OA
HETATM   14  N1  UNK     1      29.993  -6.611  35.406  1.00  0.00    -0.309 N 
HETATM   15  C1  UNK     1      31.295  -6.534  34.693  1.00  0.00     0.089 C 
HETATM   16  C5  UNK     1      29.867  -5.797  36.602  1.00  0.00     0.044 A 
HETATM   17  C2  UNK     1      31.775  -5.085  34.594  1.00  0.00     0.030 C 
HETATM   18  C6  UNK     1      32.333  -7.465  35.330  1.00  0.00     0.033 C 
HETATM   19  C3  UNK     1      31.963  -4.470  35.967  1.00  0.00     0.043 C 
HETATM   20  C4  UNK     1      30.800  -4.770  36.875  1.00  0.00    -0.028 A 
HETATM   21  C8  UNK     1      30.683  -4.000  38.048  1.00  0.00     0.051 A 
HETATM   22  C11 UNK     1      29.653  -4.229  38.953  1.00  0.00     0.117 A 
HETATM   23  F1  UNK     1      29.553  -3.489  40.063  1.00  0.00    -0.206 F 
HETATM   24  C12 UNK     1      28.738  -5.242  38.702  1.00  0.00     0.044 A 
HETATM   25  C9  UNK     1      28.848  -6.021  37.546  1.00  0.00     0.033 A 
ENDBRANCH   3  12
BRANCH   8  26
HETATM   26  O3  UNK     1      29.500  -9.689  28.905  1.00  0.00    -0.349 OA
BRANCH  26  27
HETATM   27  C21 UNK     1      30.571  -9.723  27.960  1.00  0.00     0.171 C 
HETATM   28  C22 UNK     1      31.535  -8.598  28.267  1.00  0.00     0.034 C 
ENDBRANCH  26  27
ENDBRANCH   8  26
TORSDOF 3
ENDMDL
MODEL 8
REMARK VINA RESULT:      -8.2     16.631     20.004
REMARK  3 active torsions:
REMARK  status: ('A' for Active; 'I' for Inactive)
REMARK    1  A    between atoms: C17_23  and  O3_4 
REMARK    2  A    between atoms: C21_27  and  O3_4 
REMARK       I    between atoms: C7_13  and  N1_6 
REMARK    3  A    between atoms: C10_16  and  C7_13 
ROOT
HETATM    1  O2  UNK     1      27.350  -7.327  36.477  1.00  0.00    -0.271 OA
HETATM    2  O4  UNK     1      28.401  -6.428  34.658  1.00  0.00    -0.259 OA
HETATM    3  C10 UNK     1      29.663  -7.941  35.974  1.00  0.00     0.108 A 
HETATM    4  C13 UNK     1      29.708  -8.750  37.040  1.00  0.00     0.037 A 
HETATM    5  C14 UNK     1      28.546  -8.892  37.903  1.00  0.00     0.002 A 
HETATM    6  C15 UNK     1      28.447  -7.171  35.633  1.00  0.00     0.304 A 
HETATM    7  C16 UNK     1      27.392  -8.175  37.600  1.00  0.00     0.123 A 
HETATM    8  C17 UNK     1      26.246  -8.267  38.386  1.00  0.00     0.103 A 
HETATM    9  C18 UNK     1      28.549  -9.723  39.025  1.00  0.00     0.014 A 
HETATM   10  C19 UNK     1      26.256  -9.098  39.504  1.00  0.00     0.040 A 
HETATM   11  C20 UNK     1      27.405  -9.825  39.823  1.00  0.00     0.004 A 
ENDROOT
BRANCH   3  12
HETATM   12  C7  UNK     1      30.897  -7.864  35.159  1.00  0.00     0.264 C 
HETATM   13  O1  UNK     1      30.927  -8.560  34.144  1.00  0.00    -0.267 OA
HETATM   14  N1  UNK     1      31.929  -7.030  35.629  1.00  0.00    -0.309 N 
HETATM   15  C1  UNK     1      31.796  -6.225  36.872  1.00  0.00     0.089 C 
HETATM   16  C5  UNK     1      33.210  -6.956  34.951  1.00  0.00     0.044 A 
HETATM   17  C2  UNK     1      33.045  -6.362  37.744  1.00  0.00     0.030 C 
HETATM   18  C6  UNK     1      31.444  -4.767  36.555  1.00  0.00     0.033 C 
HETATM   19  C3  UNK     1      34.283  -5.882  37.013  1.00  0.00     0.043 C 
HETATM   20  C4  UNK     1      34.341  -6.414  35.605  1.00  0.00    -0.028 A 
HETATM   21  C8  UNK     1      35.574  -6.326  34.933  1.00  0.00     0.051 A 
HETATM   22  C11 UNK     1      35.706  -6.771  33.622  1.00  0.00     0.117 A 
HETATM   23  F1  UNK     1      36.885  -6.682  32.995  1.00  0.00    -0.206 F 
HETATM   24  C12 UNK     1      34.602  -7.294  32.965  1.00  0.00     0.044 A 
HETATM   25  C9  UNK     1      33.368  -7.378  33.618  1.00  0.00     0.033 A 
ENDBRANCH   3  12
BRANCH   8  26
HETATM   26  O3  UNK     1      25.125  -7.560  38.079  1.00  0.00    -0.349 OA
BRANCH  26  27
HETATM   27  C21 UNK     1      23.938  -7.873  38.808  1.00  0.00     0.171 C 
HETATM   28  C22 UNK     1      23.313  -6.589  39.309  1.00  0.00     0.034 C 
ENDBRANCH  26  27
ENDBRANCH   8  26
TORSDOF 3
ENDMDL
MODEL 9
REMARK VINA RESULT:      -8.2      1.617      2.810
REMARK  3 active torsions:
REMARK  status: ('A' for Active; 'I' for Inactive)
REMARK    1  A    between atoms: C17_23  and  O3_4 
REMARK    2  A    between atoms: C21_27  and  O3_4 
REMARK       I    between atoms: C7_13  and  N1_6 
REMARK    3  A    between atoms: C10_16  and  C7_13 
ROOT
HETATM    1  O2  UNK     1      17.537   5.089  33.627  1.00  0.00    -0.271 OA
HETATM    2  O4  UNK     1      17.037   6.635  35.232  1.00  0.00    -0.259 OA
HETATM    3  C10 UNK     1      18.053   7.450  33.253  1.00  0.00     0.108 A 
HETATM    4  C13 UNK     1      18.560   7.176  32.045  1.00  0.00     0.037 A 
HETATM    5  C14 UNK     1      18.584   5.808  31.553  1.00  0.00     0.002 A 
HETATM    6  C15 UNK     1      17.502   6.389  34.124  1.00  0.00     0.304 A 
HETATM    7  C16 UNK     1      18.070   4.795  32.357  1.00  0.00     0.123 A 
HETATM    8  C17 UNK     1      18.062   3.464  31.944  1.00  0.00     0.103 A 
HETATM    9  C18 UNK     1      19.103   5.476  30.299  1.00  0.00     0.014 A 
HETATM   10  C19 UNK     1      18.583   3.141  30.692  1.00  0.00     0.040 A 
HETATM   11  C20 UNK     1      19.102   4.145  29.872  1.00  0.00     0.004 A 
ENDROOT
BRANCH   3  12
HETATM   12  C7  UNK     1      18.076   8.872  33.665  1.00  0.00     0.264 C 
HETATM   13  O1  UNK     1      19.184   9.355  33.904  1.00  0.00    -0.267 OA
HETATM   14  N1  UNK     1      16.838   9.532  33.772  1.00  0.00    -0.309 N 
HETATM   15  C1  UNK     1      15.549   8.860  33.459  1.00  0.00     0.089 C 
HETATM   16  C5  UNK     1      16.748  10.898  34.255  1.00  0.00     0.044 A 
HETATM   17  C2  UNK     1      14.513   9.138  34.549  1.00  0.00     0.030 C 
HETATM   18  C6  UNK     1      15.056   9.230  32.055  1.00  0.00     0.033 C 
HETATM   19  C3  UNK     1      14.238  10.623  34.683  1.00  0.00     0.043 C 
HETATM   20  C4  UNK     1      15.512  11.426  34.696  1.00  0.00    -0.028 A 
HETATM   21  C8  UNK     1      15.429  12.758  35.142  1.00  0.00     0.051 A 
HETATM   22  C11 UNK     1      16.553  13.576  35.163  1.00  0.00     0.117 A 
HETATM   23  F1  UNK     1      16.460  14.840  35.590  1.00  0.00    -0.206 F 
HETATM   24  C12 UNK     1      17.769  13.074  34.721  1.00  0.00     0.044 A 
HETATM   25  C9  UNK     1      17.864  11.755  34.265  1.00  0.00     0.033 A 
ENDBRANCH   3  12
BRANCH   8  26
HETATM   26  O3  UNK     1      17.559   2.484  32.741  1.00  0.00    -0.349 OA
BRANCH  26  27
HETATM   27  C21 UNK     1      18.498   1.635  33.400  1.00  0.00     0.171 C 
HETATM   28  C22 UNK     1      18.438   1.894  34.889  1.00  0.00     0.034 C 
ENDBRANCH  26  27
ENDBRANCH   8  26
TORSDOF 3
ENDMDL
MODEL 10
REMARK VINA RESULT:      -8.2     17.562     19.419
REMARK  3 active torsions:
REMARK  status: ('A' for Active; 'I' for Inactive)
REMARK    1  A    between atoms: C17_23  and  O3_4 
REMARK    2  A    between atoms: C21_27  and  O3_4 
REMARK       I    between atoms: C7_13  and  N1_6 
REMARK    3  A    between atoms: C10_16  and  C7_13 
ROOT
HETATM    1  O2  UNK     1      30.517 -10.577  32.761  1.00  0.00    -0.271 OA
HETATM    2  O4  UNK     1      30.917 -10.288  34.992  1.00  0.00    -0.259 OA
HETATM    3  C10 UNK     1      29.473  -8.718  33.960  1.00  0.00     0.108 A 
HETATM    4  C13 UNK     1      28.862  -8.306  32.844  1.00  0.00     0.037 A 
HETATM    5  C14 UNK     1      29.051  -9.026  31.594  1.00  0.00     0.002 A 
HETATM    6  C15 UNK     1      30.354  -9.907  33.971  1.00  0.00     0.304 A 
HETATM    7  C16 UNK     1      29.876 -10.147  31.583  1.00  0.00     0.123 A 
HETATM    8  C17 UNK     1      30.099 -10.880  30.420  1.00  0.00     0.103 A 
HETATM    9  C18 UNK     1      28.433  -8.631  30.406  1.00  0.00     0.014 A 
HETATM   10  C19 UNK     1      29.479 -10.480  29.238  1.00  0.00     0.040 A 
HETATM   11  C20 UNK     1      28.648  -9.358  29.231  1.00  0.00     0.004 A 
ENDROOT
BRANCH   3  12
HETATM   12  C7  UNK     1      29.218  -7.918  35.180  1.00  0.00     0.264 C 
HETATM   13  O1  UNK     1      28.161  -8.144  35.771  1.00  0.00    -0.267 OA
HETATM   14  N1  UNK     1      30.183  -6.958  35.535  1.00  0.00    -0.309 N 
HETATM   15  C1  UNK     1      31.433  -6.760  34.753  1.00  0.00     0.089 C 
HETATM   16  C5  UNK     1      29.983  -6.063  36.660  1.00  0.00     0.044 A 
HETATM   17  C2  UNK     1      31.687  -5.273  34.503  1.00  0.00     0.030 C 
HETATM   18  C6  UNK     1      32.621  -7.468  35.415  1.00  0.00     0.033 C 
HETATM   19  C3  UNK     1      31.833  -4.512  35.806  1.00  0.00     0.043 C 
HETATM   20  C4  UNK     1      30.762  -4.890  36.795  1.00  0.00    -0.028 A 
HETATM   21  C8  UNK     1      30.576  -4.039  37.900  1.00  0.00     0.051 A 
HETATM   22  C11 UNK     1      29.625  -4.329  38.873  1.00  0.00     0.117 A 
HETATM   23  F1  UNK     1      29.458  -3.510  39.918  1.00  0.00    -0.206 F 
HETATM   24  C12 UNK     1      28.863  -5.483  38.759  1.00  0.00     0.044 A 
HETATM   25  C9  UNK     1      29.045  -6.343  37.671  1.00  0.00     0.033 A 
ENDBRANCH   3  12
BRANCH   8  26
HETATM   26  O3  UNK     1      30.909 -11.973  30.423  1.00  0.00    -0.349 OA
BRANCH  26  27
HETATM   27  C21 UNK     1      30.279 -13.249  30.534  1.00  0.00     0.171 C 
HETATM   28  C22 UNK     1      30.762 -13.930  31.796  1.00  0.00     0.034 C 
ENDBRANCH  26  27
ENDBRANCH   8  26
TORSDOF 3
ENDMDL
