MODEL 1
REMARK VINA RESULT:      -8.8      0.000      0.000
REMARK  4 active torsions:
REMARK  status: ('A' for Active; 'I' for Inactive)
REMARK    1  A    between atoms: C7_16  and  N1_7 
REMARK    2  A    between atoms: C23_32  and  N3_9 
REMARK    3  A    between atoms: C1_10  and  C3_12 
REMARK    4  A    between atoms: C11_20  and  C14_23 
ROOT
HETATM    1  O1  UNK     1      25.546  -9.310  38.599  1.00  0.00    -0.291 OA
HETATM    2  O3  UNK     1      24.923  -5.187  38.940  1.00  0.00    -0.274 OA
HETATM    3  O4  UNK     1      27.176  -4.852  39.050  1.00  0.00    -0.259 OA
HETATM    4  N2  UNK     1      30.236 -10.268  39.138  1.00  0.00    -0.191 NA
HETATM    5  C1  UNK     1      27.869  -7.625  38.701  1.00  0.00     0.133 C 
HETATM    6  C2  UNK     1      26.447  -7.098  38.764  1.00  0.00     0.068 A 
HETATM    7  C4  UNK     1      25.404  -7.938  38.701  1.00  0.00     0.104 A 
HETATM    8  C5  UNK     1      27.924  -9.147  38.804  1.00  0.00     0.088 C 
HETATM    9  C6  UNK     1      24.031  -7.441  38.729  1.00  0.00     0.033 A 
HETATM   10  C7  UNK     1      26.802  -9.899  38.742  1.00  0.00     0.160 C 
HETATM   11  C8  UNK     1      26.240  -5.635  38.929  1.00  0.00     0.298 A 
HETATM   12  C10 UNK     1      23.830  -6.068  38.844  1.00  0.00     0.092 A 
HETATM   13  C13 UNK     1      22.904  -8.267  38.644  1.00  0.00     0.017 A 
HETATM   14  C15 UNK     1      22.554  -5.505  38.874  1.00  0.00     0.038 A 
HETATM   15  C16 UNK     1      29.201  -9.766  38.989  1.00  0.00     0.100 C 
HETATM   16  C17 UNK     1      21.618  -7.719  38.673  1.00  0.00     0.001 A 
HETATM   17  C18 UNK     1      21.444  -6.339  38.788  1.00  0.00     0.003 A 
ENDROOT
BRANCH   5  18
HETATM   18  C3  UNK     1      28.599  -7.129  37.496  1.00  0.00     0.068 A 
HETATM   19  O2  UNK     1      28.062  -7.481  36.311  1.00  0.00    -0.313 OA
HETATM   20  C11 UNK     1      28.871  -6.934  35.365  1.00  0.00     0.086 A 
HETATM   21  C12 UNK     1      29.905  -6.245  35.953  1.00  0.00     0.040 A 
HETATM   22  C9  UNK     1      29.722  -6.378  37.350  1.00  0.00     0.036 A 
BRANCH  20  23
HETATM   23  C14 UNK     1      28.483  -7.184  34.005  1.00  0.00    -0.002 A 
HETATM   24  C19 UNK     1      28.702  -8.440  33.431  1.00  0.00     0.017 A 
HETATM   25  C21 UNK     1      28.325  -8.683  32.109  1.00  0.00     0.037 A 
HETATM   26  C23 UNK     1      27.727  -7.673  31.357  1.00  0.00     0.102 A 
HETATM   27  C22 UNK     1      27.506  -6.418  31.926  1.00  0.00     0.037 A 
HETATM   28  C20 UNK     1      27.883  -6.174  33.247  1.00  0.00     0.017 A 
BRANCH  26  29
HETATM   29  N3  UNK     1      27.344  -7.921  30.013  1.00  0.00    -0.116 N 
HETATM   30  O5  UNK     1      27.860  -8.887  29.402  1.00  0.00    -0.532 OA
HETATM   31  O6  UNK     1      26.499  -7.166  29.473  1.00  0.00    -0.532 OA
ENDBRANCH  26  29
ENDBRANCH  20  23
ENDBRANCH   5  18
BRANCH  10  32
HETATM   32  N1  UNK     1      26.763 -11.264  38.810  1.00  0.00    -0.379 N 
HETATM   33  H7  UNK     1      26.145 -11.703  39.481  1.00  0.00     0.158 HD
HETATM   34  H8  UNK     1      27.337 -11.833  38.200  1.00  0.00     0.158 HD
ENDBRANCH  10  32
TORSDOF 4
ENDMDL
MODEL 2
REMARK VINA RESULT:      -8.7      2.551      3.691
REMARK  4 active torsions:
REMARK  status: ('A' for Active; 'I' for Inactive)
REMARK    1  A    between atoms: C7_16  and  N1_7 
REMARK    2  A    between atoms: C23_32  and  N3_9 
REMARK    3  A    between atoms: C1_10  and  C3_12 
REMARK    4  A    between atoms: C11_20  and  C14_23 
ROOT
HETATM    1  O1  UNK     1      29.644  -8.420  38.170  1.00  0.00    -0.291 OA
HETATM    2  O3  UNK     1      27.643  -4.779  38.655  1.00  0.00    -0.274 OA
HETATM    3  O4  UNK     1      29.616  -3.659  38.430  1.00  0.00    -0.259 OA
HETATM    4  N2  UNK     1      34.391  -7.622  37.986  1.00  0.00    -0.191 NA
HETATM    5  C1  UNK     1      31.198  -6.015  37.944  1.00  0.00     0.133 C 
HETATM    6  C2  UNK     1      29.707  -6.027  38.227  1.00  0.00     0.068 A 
HETATM    7  C4  UNK     1      29.037  -7.185  38.310  1.00  0.00     0.104 A 
HETATM    8  C5  UNK     1      31.809  -7.412  38.018  1.00  0.00     0.088 C 
HETATM    9  C6  UNK     1      27.596  -7.209  38.551  1.00  0.00     0.033 A 
HETATM   10  C7  UNK     1      31.035  -8.516  38.114  1.00  0.00     0.160 C 
HETATM   11  C8  UNK     1      29.016  -4.728  38.440  1.00  0.00     0.298 A 
HETATM   12  C10 UNK     1      26.936  -5.994  38.713  1.00  0.00     0.092 A 
HETATM   13  C13 UNK     1      26.840  -8.385  38.625  1.00  0.00     0.017 A 
HETATM   14  C15 UNK     1      25.562  -5.922  38.942  1.00  0.00     0.038 A 
HETATM   15  C16 UNK     1      33.236  -7.528  38.000  1.00  0.00     0.100 C 
HETATM   16  C17 UNK     1      25.462  -8.330  38.854  1.00  0.00     0.001 A 
HETATM   17  C18 UNK     1      24.824  -7.099  39.012  1.00  0.00     0.003 A 
ENDROOT
BRANCH   5  18
HETATM   18  C3  UNK     1      31.519  -5.342  36.649  1.00  0.00     0.068 A 
HETATM   19  O2  UNK     1      31.120  -6.000  35.543  1.00  0.00    -0.313 OA
HETATM   20  C11 UNK     1      31.506  -5.225  34.496  1.00  0.00     0.086 A 
HETATM   21  C12 UNK     1      32.142  -4.091  34.943  1.00  0.00     0.040 A 
HETATM   22  C9  UNK     1      32.148  -4.174  36.356  1.00  0.00     0.036 A 
BRANCH  20  23
HETATM   23  C14 UNK     1      31.178  -5.739  33.196  1.00  0.00    -0.002 A 
HETATM   24  C19 UNK     1      30.136  -5.170  32.457  1.00  0.00     0.017 A 
HETATM   25  C21 UNK     1      29.817  -5.669  31.193  1.00  0.00     0.037 A 
HETATM   26  C23 UNK     1      30.539  -6.738  30.663  1.00  0.00     0.102 A 
HETATM   27  C22 UNK     1      31.579  -7.309  31.396  1.00  0.00     0.037 A 
HETATM   28  C20 UNK     1      31.898  -6.810  32.660  1.00  0.00     0.017 A 
BRANCH  26  29
HETATM   29  N3  UNK     1      30.214  -7.246  29.377  1.00  0.00    -0.116 N 
HETATM   30  O5  UNK     1      31.059  -7.151  28.455  1.00  0.00    -0.532 OA
HETATM   31  O6  UNK     1      29.090  -7.776  29.200  1.00  0.00    -0.532 OA
ENDBRANCH  26  29
ENDBRANCH  20  23
ENDBRANCH   5  18
BRANCH  10  32
HETATM   32  N1  UNK     1      31.497  -9.802  38.169  1.00  0.00    -0.379 N 
HETATM   33  H7  UNK     1      32.321 -10.049  37.636  1.00  0.00     0.158 HD
HETATM   34  H8  UNK     1      31.030 -10.500  38.734  1.00  0.00     0.158 HD
ENDBRANCH  10  32
TORSDOF 4
ENDMDL
MODEL 3
REMARK VINA RESULT:      -8.5      4.433      6.031
REMARK  4 active torsions:
REMARK  status: ('A' for Active; 'I' for Inactive)
REMARK    1  A    between atoms: C7_16  and  N1_7 
REMARK    2  A    between atoms: C23_32  and  N3_9 
REMARK    3  A    between atoms: C1_10  and  C3_12 
REMARK    4  A    between atoms: C11_20  and  C14_23 
ROOT
HETATM    1  O1  UNK     1      29.186  -6.013  39.040  1.00  0.00    -0.291 OA
HETATM    2  O3  UNK     1      28.603  -9.160  36.345  1.00  0.00    -0.274 OA
HETATM    3  O4  UNK     1      29.775  -8.020  34.756  1.00  0.00    -0.259 OA
HETATM    4  N2  UNK     1      31.350  -2.352  36.778  1.00  0.00    -0.191 NA
HETATM    5  C1  UNK     1      30.419  -5.789  36.457  1.00  0.00     0.133 C 
HETATM    6  C2  UNK     1      29.579  -6.977  36.884  1.00  0.00     0.068 A 
HETATM    7  C4  UNK     1      29.039  -7.026  38.110  1.00  0.00     0.104 A 
HETATM    8  C5  UNK     1      30.347  -4.642  37.461  1.00  0.00     0.088 C 
HETATM    9  C6  UNK     1      28.253  -8.179  38.544  1.00  0.00     0.033 A 
HETATM   10  C7  UNK     1      29.764  -4.799  38.670  1.00  0.00     0.160 C 
HETATM   11  C8  UNK     1      29.343  -8.069  35.902  1.00  0.00     0.298 A 
HETATM   12  C10 UNK     1      28.061  -9.222  37.643  1.00  0.00     0.092 A 
HETATM   13  C13 UNK     1      27.684  -8.295  39.818  1.00  0.00     0.017 A 
HETATM   14  C15 UNK     1      27.329 -10.363  37.973  1.00  0.00     0.038 A 
HETATM   15  C16 UNK     1      30.901  -3.376  37.084  1.00  0.00     0.100 C 
HETATM   16  C17 UNK     1      26.947  -9.432  40.165  1.00  0.00     0.001 A 
HETATM   17  C18 UNK     1      26.771 -10.464  39.243  1.00  0.00     0.003 A 
ENDROOT
BRANCH   5  18
HETATM   18  C3  UNK     1      31.833  -6.176  36.165  1.00  0.00     0.068 A 
HETATM   19  O2  UNK     1      32.128  -6.342  34.861  1.00  0.00    -0.313 OA
HETATM   20  C11 UNK     1      33.443  -6.686  34.823  1.00  0.00     0.086 A 
HETATM   21  C12 UNK     1      33.966  -6.734  36.094  1.00  0.00     0.040 A 
HETATM   22  C9  UNK     1      32.905  -6.400  36.969  1.00  0.00     0.036 A 
BRANCH  20  23
HETATM   23  C14 UNK     1      33.982  -6.915  33.512  1.00  0.00    -0.002 A 
HETATM   24  C19 UNK     1      33.220  -7.578  32.544  1.00  0.00     0.017 A 
HETATM   25  C21 UNK     1      33.743  -7.800  31.270  1.00  0.00     0.037 A 
HETATM   26  C23 UNK     1      35.029  -7.360  30.958  1.00  0.00     0.102 A 
HETATM   27  C22 UNK     1      35.793  -6.699  31.920  1.00  0.00     0.037 A 
HETATM   28  C20 UNK     1      35.270  -6.476  33.194  1.00  0.00     0.017 A 
BRANCH  26  29
HETATM   29  N3  UNK     1      35.562  -7.587  29.661  1.00  0.00    -0.116 N 
HETATM   30  O5  UNK     1      36.091  -8.696  29.406  1.00  0.00    -0.532 OA
HETATM   31  O6  UNK     1      35.487  -6.673  28.805  1.00  0.00    -0.532 OA
ENDBRANCH  26  29
ENDBRANCH  20  23
ENDBRANCH   5  18
BRANCH  10  32
HETATM   32  N1  UNK     1      29.670  -3.832  39.633  1.00  0.00    -0.379 N 
HETATM   33  H7  UNK     1      30.308  -3.047  39.602  1.00  0.00     0.158 HD
HETATM   34  H8  UNK     1      28.974  -3.892  40.366  1.00  0.00     0.158 HD
ENDBRANCH  10  32
TORSDOF 4
ENDMDL
MODEL 4
REMARK VINA RESULT:      -8.5     12.727     15.566
REMARK  4 active torsions:
REMARK  status: ('A' for Active; 'I' for Inactive)
REMARK    1  A    between atoms: C7_16  and  N1_7 
REMARK    2  A    between atoms: C23_32  and  N3_9 
REMARK    3  A    between atoms: C1_10  and  C3_12 
REMARK    4  A    between atoms: C11_20  and  C14_23 
ROOT
HETATM    1  O1  UNK     1      18.950  -0.640  33.629  1.00  0.00    -0.291 OA
HETATM    2  O3  UNK     1      18.890   1.826  30.251  1.00  0.00    -0.274 OA
HETATM    3  O4  UNK     1      17.835   3.452  31.451  1.00  0.00    -0.259 OA
HETATM    4  N2  UNK     1      16.479   1.464  37.189  1.00  0.00    -0.191 NA
HETATM    5  C1  UNK     1      17.868   2.002  33.938  1.00  0.00     0.133 C 
HETATM    6  C2  UNK     1      18.411   1.466  32.627  1.00  0.00     0.068 A 
HETATM    7  C4  UNK     1      18.913   0.225  32.551  1.00  0.00     0.104 A 
HETATM    8  C5  UNK     1      17.757   0.913  35.003  1.00  0.00     0.088 C 
HETATM    9  C6  UNK     1      19.467  -0.291  31.301  1.00  0.00     0.033 A 
HETATM   10  C7  UNK     1      18.291  -0.315  34.814  1.00  0.00     0.160 C 
HETATM   11  C8  UNK     1      18.344   2.337  31.423  1.00  0.00     0.298 A 
HETATM   12  C10 UNK     1      19.443   0.534  30.181  1.00  0.00     0.092 A 
HETATM   13  C13 UNK     1      20.024  -1.568  31.168  1.00  0.00     0.017 A 
HETATM   14  C15 UNK     1      19.954   0.126  28.948  1.00  0.00     0.038 A 
HETATM   15  C16 UNK     1      17.051   1.218  36.210  1.00  0.00     0.100 C 
HETATM   16  C17 UNK     1      20.540  -1.992  29.940  1.00  0.00     0.001 A 
HETATM   17  C18 UNK     1      20.505  -1.146  28.832  1.00  0.00     0.003 A 
ENDROOT
BRANCH   5  18
HETATM   18  C3  UNK     1      18.649   3.176  34.433  1.00  0.00     0.068 A 
HETATM   19  O2  UNK     1      18.157   4.382  34.089  1.00  0.00    -0.313 OA
HETATM   20  C11 UNK     1      19.006   5.293  34.633  1.00  0.00     0.086 A 
HETATM   21  C12 UNK     1      20.021   4.662  35.311  1.00  0.00     0.040 A 
HETATM   22  C9  UNK     1      19.782   3.274  35.175  1.00  0.00     0.036 A 
BRANCH  20  23
HETATM   23  C14 UNK     1      18.670   6.668  34.390  1.00  0.00    -0.002 A 
HETATM   24  C19 UNK     1      17.343   7.036  34.147  1.00  0.00     0.017 A 
HETATM   25  C21 UNK     1      17.017   8.373  33.911  1.00  0.00     0.037 A 
HETATM   26  C23 UNK     1      18.015   9.346  33.919  1.00  0.00     0.102 A 
HETATM   27  C22 UNK     1      19.341   8.984  34.161  1.00  0.00     0.037 A 
HETATM   28  C20 UNK     1      19.667   7.648  34.397  1.00  0.00     0.017 A 
BRANCH  26  29
HETATM   29  N3  UNK     1      17.683  10.706  33.679  1.00  0.00    -0.116 N 
HETATM   30  O5  UNK     1      18.600  11.515  33.399  1.00  0.00    -0.532 OA
HETATM   31  O6  UNK     1      16.481  11.060  33.753  1.00  0.00    -0.532 OA
ENDBRANCH  26  29
ENDBRANCH  20  23
ENDBRANCH   5  18
BRANCH  10  32
HETATM   32  N1  UNK     1      18.251  -1.340  35.719  1.00  0.00    -0.379 N 
HETATM   33  H7  UNK     1      18.957  -1.380  36.443  1.00  0.00     0.158 HD
HETATM   34  H8  UNK     1      17.529  -2.048  35.672  1.00  0.00     0.158 HD
ENDBRANCH  10  32
TORSDOF 4
ENDMDL
MODEL 5
REMARK VINA RESULT:      -8.4      2.811      7.218
REMARK  4 active torsions:
REMARK  status: ('A' for Active; 'I' for Inactive)
REMARK    1  A    between atoms: C7_16  and  N1_7 
REMARK    2  A    between atoms: C23_32  and  N3_9 
REMARK    3  A    between atoms: C1_10  and  C3_12 
REMARK    4  A    between atoms: C11_20  and  C14_23 
ROOT
HETATM    1  O1  UNK     1      29.943  -5.913  34.274  1.00  0.00    -0.291 OA
HETATM    2  O3  UNK     1      28.792  -9.624  32.723  1.00  0.00    -0.274 OA
HETATM    3  O4  UNK     1      29.678 -10.665  34.547  1.00  0.00    -0.259 OA
HETATM    4  N2  UNK     1      32.541  -6.589  38.274  1.00  0.00    -0.191 NA
HETATM    5  C1  UNK     1      30.456  -8.236  35.882  1.00  0.00     0.133 C 
HETATM    6  C2  UNK     1      29.797  -8.290  34.517  1.00  0.00     0.068 A 
HETATM    7  C4  UNK     1      29.575  -7.166  33.820  1.00  0.00     0.104 A 
HETATM    8  C5  UNK     1      31.011  -6.850  36.199  1.00  0.00     0.088 C 
HETATM    9  C6  UNK     1      28.913  -7.202  32.518  1.00  0.00     0.033 A 
HETATM   10  C7  UNK     1      30.734  -5.783  35.416  1.00  0.00     0.160 C 
HETATM   11  C8  UNK     1      29.432  -9.619  33.958  1.00  0.00     0.298 A 
HETATM   12  C10 UNK     1      28.534  -8.440  32.007  1.00  0.00     0.092 A 
HETATM   13  C13 UNK     1      28.636  -6.061  31.756  1.00  0.00     0.017 A 
HETATM   14  C15 UNK     1      27.893  -8.568  30.774  1.00  0.00     0.038 A 
HETATM   15  C16 UNK     1      31.857  -6.706  37.345  1.00  0.00     0.100 C 
HETATM   16  C17 UNK     1      27.994  -6.172  30.519  1.00  0.00     0.001 A 
HETATM   17  C18 UNK     1      27.624  -7.425  30.029  1.00  0.00     0.003 A 
ENDROOT
BRANCH   5  18
HETATM   18  C3  UNK     1      29.549  -8.725  36.964  1.00  0.00     0.068 A 
HETATM   19  O2  UNK     1      28.242  -8.442  36.793  1.00  0.00    -0.313 OA
HETATM   20  C11 UNK     1      27.608  -8.969  37.873  1.00  0.00     0.086 A 
HETATM   21  C12 UNK     1      28.511  -9.576  38.714  1.00  0.00     0.040 A 
HETATM   22  C9  UNK     1      29.781  -9.412  38.113  1.00  0.00     0.036 A 
BRANCH  20  23
HETATM   23  C14 UNK     1      26.184  -8.784  37.902  1.00  0.00    -0.002 A 
HETATM   24  C19 UNK     1      25.375  -9.401  36.942  1.00  0.00     0.017 A 
HETATM   25  C21 UNK     1      23.992  -9.222  36.970  1.00  0.00     0.037 A 
HETATM   26  C23 UNK     1      23.411  -8.426  37.957  1.00  0.00     0.102 A 
HETATM   27  C22 UNK     1      24.214  -7.808  38.916  1.00  0.00     0.037 A 
HETATM   28  C20 UNK     1      25.598  -7.987  38.889  1.00  0.00     0.017 A 
BRANCH  26  29
HETATM   29  N3  UNK     1      22.003  -8.244  37.985  1.00  0.00    -0.116 N 
HETATM   30  O5  UNK     1      21.507  -7.254  37.395  1.00  0.00    -0.532 OA
HETATM   31  O6  UNK     1      21.294  -9.078  38.598  1.00  0.00    -0.532 OA
ENDBRANCH  26  29
ENDBRANCH  20  23
ENDBRANCH   5  18
BRANCH  10  32
HETATM   32  N1  UNK     1      31.176  -4.507  35.634  1.00  0.00    -0.379 N 
HETATM   33  H7  UNK     1      31.678  -4.304  36.488  1.00  0.00     0.158 HD
HETATM   34  H8  UNK     1      31.009  -3.775  34.956  1.00  0.00     0.158 HD
ENDBRANCH  10  32
TORSDOF 4
ENDMDL
MODEL 6
REMARK VINA RESULT:      -8.4      3.982      7.182
REMARK  4 active torsions:
REMARK  status: ('A' for Active; 'I' for Inactive)
REMARK    1  A    between atoms: C7_16  and  N1_7 
REMARK    2  A    between atoms: C23_32  and  N3_9 
REMARK    3  A    between atoms: C1_10  and  C3_12 
REMARK    4  A    between atoms: C11_20  and  C14_23 
ROOT
HETATM    1  O1  UNK     1      31.133  -5.977  35.932  1.00  0.00    -0.291 OA
HETATM    2  O3  UNK     1      31.210 -10.084  36.723  1.00  0.00    -0.274 OA
HETATM    3  O4  UNK     1      30.304  -9.709  38.781  1.00  0.00    -0.259 OA
HETATM    4  N2  UNK     1      29.723  -3.614  39.886  1.00  0.00    -0.191 NA
HETATM    5  C1  UNK     1      30.028  -6.865  38.429  1.00  0.00     0.133 C 
HETATM    6  C2  UNK     1      30.629  -7.801  37.399  1.00  0.00     0.068 A 
HETATM    7  C4  UNK     1      31.120  -7.324  36.245  1.00  0.00     0.104 A 
HETATM    8  C5  UNK     1      30.279  -5.398  38.090  1.00  0.00     0.088 C 
HETATM    9  C6  UNK     1      31.673  -8.219  35.232  1.00  0.00     0.033 A 
HETATM   10  C7  UNK     1      30.794  -5.028  36.896  1.00  0.00     0.160 C 
HETATM   11  C8  UNK     1      30.690  -9.254  37.710  1.00  0.00     0.298 A 
HETATM   12  C10 UNK     1      31.698  -9.584  35.502  1.00  0.00     0.092 A 
HETATM   13  C13 UNK     1      32.179  -7.780  34.002  1.00  0.00     0.017 A 
HETATM   14  C15 UNK     1      32.203 -10.511  34.590  1.00  0.00     0.038 A 
HETATM   15  C16 UNK     1      29.972  -4.412  39.082  1.00  0.00     0.100 C 
HETATM   16  C17 UNK     1      32.690  -8.697  33.078  1.00  0.00     0.001 A 
HETATM   17  C18 UNK     1      32.701 -10.061  33.372  1.00  0.00     0.003 A 
ENDROOT
BRANCH   5  18
HETATM   18  C3  UNK     1      28.575  -7.136  38.655  1.00  0.00     0.068 A 
HETATM   19  O2  UNK     1      28.033  -8.076  37.856  1.00  0.00    -0.313 OA
HETATM   20  C11 UNK     1      26.728  -8.162  38.225  1.00  0.00     0.086 A 
HETATM   21  C12 UNK     1      26.455  -7.282  39.247  1.00  0.00     0.040 A 
HETATM   22  C9  UNK     1      27.671  -6.612  39.523  1.00  0.00     0.036 A 
BRANCH  20  23
HETATM   23  C14 UNK     1      25.944  -9.118  37.495  1.00  0.00    -0.002 A 
HETATM   24  C19 UNK     1      24.579  -8.896  37.287  1.00  0.00     0.017 A 
HETATM   25  C21 UNK     1      23.817  -9.826  36.578  1.00  0.00     0.037 A 
HETATM   26  C23 UNK     1      24.416 -10.979  36.073  1.00  0.00     0.102 A 
HETATM   27  C22 UNK     1      25.778 -11.205  36.278  1.00  0.00     0.037 A 
HETATM   28  C20 UNK     1      26.540 -10.276  36.988  1.00  0.00     0.017 A 
BRANCH  26  29
HETATM   29  N3  UNK     1      23.641 -11.925  35.351  1.00  0.00    -0.116 N 
HETATM   30  O5  UNK     1      24.175 -13.001  34.990  1.00  0.00    -0.532 OA
HETATM   31  O6  UNK     1      22.441 -11.658  35.095  1.00  0.00    -0.532 OA
ENDBRANCH  26  29
ENDBRANCH  20  23
ENDBRANCH   5  18
BRANCH  10  32
HETATM   32  N1  UNK     1      31.035  -3.740  36.505  1.00  0.00    -0.379 N 
HETATM   33  H7  UNK     1      30.836  -2.988  37.152  1.00  0.00     0.158 HD
HETATM   34  H8  UNK     1      31.409  -3.535  35.587  1.00  0.00     0.158 HD
ENDBRANCH  10  32
TORSDOF 4
ENDMDL
MODEL 7
REMARK VINA RESULT:      -8.4      5.377     10.438
REMARK  4 active torsions:
REMARK  status: ('A' for Active; 'I' for Inactive)
REMARK    1  A    between atoms: C7_16  and  N1_7 
REMARK    2  A    between atoms: C23_32  and  N3_9 
REMARK    3  A    between atoms: C1_10  and  C3_12 
REMARK    4  A    between atoms: C11_20  and  C14_23 
ROOT
HETATM    1  O1  UNK     1      33.144 -11.054  30.763  1.00  0.00    -0.291 OA
HETATM    2  O3  UNK     1      35.947  -7.970  31.131  1.00  0.00    -0.274 OA
HETATM    3  O4  UNK     1      34.715  -6.676  29.714  1.00  0.00    -0.259 OA
HETATM    4  N2  UNK     1      29.854  -9.839  27.460  1.00  0.00    -0.191 NA
HETATM    5  C1  UNK     1      32.587  -8.589  29.398  1.00  0.00     0.133 C 
HETATM    6  C2  UNK     1      33.831  -8.822  30.234  1.00  0.00     0.068 A 
HETATM    7  C4  UNK     1      34.027  -9.994  30.856  1.00  0.00     0.104 A 
HETATM    8  C5  UNK     1      31.788  -9.873  29.185  1.00  0.00     0.088 C 
HETATM    9  C6  UNK     1      35.206 -10.219  31.689  1.00  0.00     0.033 A 
HETATM   10  C7  UNK     1      32.083 -11.007  29.859  1.00  0.00     0.160 C 
HETATM   11  C8  UNK     1      34.840  -7.734  30.322  1.00  0.00     0.298 A 
HETATM   12  C10 UNK     1      36.136  -9.190  31.805  1.00  0.00     0.092 A 
HETATM   13  C13 UNK     1      35.453 -11.413  32.378  1.00  0.00     0.017 A 
HETATM   14  C15 UNK     1      37.288  -9.316  32.583  1.00  0.00     0.038 A 
HETATM   15  C16 UNK     1      30.720  -9.854  28.232  1.00  0.00     0.100 C 
HETATM   16  C17 UNK     1      36.603 -11.555  33.161  1.00  0.00     0.001 A 
HETATM   17  C18 UNK     1      37.518 -10.507  33.263  1.00  0.00     0.003 A 
ENDROOT
BRANCH   5  18
HETATM   18  C3  UNK     1      31.732  -7.497  29.954  1.00  0.00     0.068 A 
HETATM   19  O2  UNK     1      31.351  -7.659  31.236  1.00  0.00    -0.313 OA
HETATM   20  C11 UNK     1      30.595  -6.569  31.535  1.00  0.00     0.086 A 
HETATM   21  C12 UNK     1      30.504  -5.732  30.448  1.00  0.00     0.040 A 
HETATM   22  C9  UNK     1      31.251  -6.347  29.414  1.00  0.00     0.036 A 
BRANCH  20  23
HETATM   23  C14 UNK     1      30.074  -6.530  32.873  1.00  0.00    -0.002 A 
HETATM   24  C19 UNK     1      28.732  -6.842  33.115  1.00  0.00     0.017 A 
HETATM   25  C21 UNK     1      28.226  -6.804  34.414  1.00  0.00     0.037 A 
HETATM   26  C23 UNK     1      29.059  -6.454  35.477  1.00  0.00     0.102 A 
HETATM   27  C22 UNK     1      30.398  -6.141  35.241  1.00  0.00     0.037 A 
HETATM   28  C20 UNK     1      30.904  -6.179  33.941  1.00  0.00     0.017 A 
BRANCH  26  29
HETATM   29  N3  UNK     1      28.543  -6.415  36.800  1.00  0.00    -0.116 N 
HETATM   30  O5  UNK     1      27.348  -6.741  36.996  1.00  0.00    -0.532 OA
HETATM   31  O6  UNK     1      29.298  -6.055  37.736  1.00  0.00    -0.532 OA
ENDBRANCH  26  29
ENDBRANCH  20  23
ENDBRANCH   5  18
BRANCH  10  32
HETATM   32  N1  UNK     1      31.412 -12.193  29.740  1.00  0.00    -0.379 N 
HETATM   33  H7  UNK     1      31.848 -12.953  29.235  1.00  0.00     0.158 HD
HETATM   34  H8  UNK     1      30.494 -12.315  30.150  1.00  0.00     0.158 HD
ENDBRANCH  10  32
TORSDOF 4
ENDMDL
MODEL 8
REMARK VINA RESULT:      -8.3      3.414      6.755
REMARK  4 active torsions:
REMARK  status: ('A' for Active; 'I' for Inactive)
REMARK    1  A    between atoms: C7_16  and  N1_7 
REMARK    2  A    between atoms: C23_32  and  N3_9 
REMARK    3  A    between atoms: C1_10  and  C3_12 
REMARK    4  A    between atoms: C11_20  and  C14_23 
ROOT
HETATM    1  O1  UNK     1      30.777  -5.270  37.043  1.00  0.00    -0.291 OA
HETATM    2  O3  UNK     1      33.341  -8.506  36.368  1.00  0.00    -0.274 OA
HETATM    3  O4  UNK     1      31.713  -9.945  37.059  1.00  0.00    -0.259 OA
HETATM    4  N2  UNK     1      26.717  -6.848  39.098  1.00  0.00    -0.191 NA
HETATM    5  C1  UNK     1      29.725  -7.905  37.480  1.00  0.00     0.133 C 
HETATM    6  C2  UNK     1      31.145  -7.635  37.022  1.00  0.00     0.068 A 
HETATM    7  C4  UNK     1      31.573  -6.380  36.826  1.00  0.00     0.104 A 
HETATM    8  C5  UNK     1      29.000  -6.627  37.893  1.00  0.00     0.088 C 
HETATM    9  C6  UNK     1      32.929  -6.108  36.356  1.00  0.00     0.033 A 
HETATM   10  C7  UNK     1      29.533  -5.407  37.657  1.00  0.00     0.160 C 
HETATM   11  C8  UNK     1      32.060  -8.792  36.828  1.00  0.00     0.298 A 
HETATM   12  C10 UNK     1      33.778  -7.189  36.135  1.00  0.00     0.092 A 
HETATM   13  C13 UNK     1      33.424  -4.821  36.112  1.00  0.00     0.017 A 
HETATM   14  C15 UNK     1      35.087  -7.023  35.681  1.00  0.00     0.038 A 
HETATM   15  C16 UNK     1      27.738  -6.749  38.559  1.00  0.00     0.100 C 
HETATM   16  C17 UNK     1      34.733  -4.638  35.658  1.00  0.00     0.001 A 
HETATM   17  C18 UNK     1      35.563  -5.738  35.443  1.00  0.00     0.003 A 
ENDROOT
BRANCH   5  18
HETATM   18  C3  UNK     1      28.944  -8.676  36.465  1.00  0.00     0.068 A 
HETATM   19  O2  UNK     1      29.336  -8.508  35.187  1.00  0.00    -0.313 OA
HETATM   20  C11 UNK     1      28.506  -9.287  34.444  1.00  0.00     0.086 A 
HETATM   21  C12 UNK     1      27.603  -9.937  35.251  1.00  0.00     0.040 A 
HETATM   22  C9  UNK     1      27.894  -9.532  36.575  1.00  0.00     0.036 A 
BRANCH  20  23
HETATM   23  C14 UNK     1      28.745  -9.263  33.028  1.00  0.00    -0.002 A 
HETATM   24  C19 UNK     1      28.213  -8.236  32.242  1.00  0.00     0.017 A 
HETATM   25  C21 UNK     1      28.445  -8.213  30.866  1.00  0.00     0.037 A 
HETATM   26  C23 UNK     1      29.210  -9.215  30.271  1.00  0.00     0.102 A 
HETATM   27  C22 UNK     1      29.743 -10.241  31.050  1.00  0.00     0.037 A 
HETATM   28  C20 UNK     1      29.511 -10.265  32.426  1.00  0.00     0.017 A 
BRANCH  26  29
HETATM   29  N3  UNK     1      29.445  -9.191  28.871  1.00  0.00    -0.116 N 
HETATM   30  O5  UNK     1      28.785  -9.959  28.130  1.00  0.00    -0.532 OA
HETATM   31  O6  UNK     1      30.307  -8.401  28.413  1.00  0.00    -0.532 OA
ENDBRANCH  26  29
ENDBRANCH  20  23
ENDBRANCH   5  18
BRANCH  10  32
HETATM   32  N1  UNK     1      28.946  -4.214  37.979  1.00  0.00    -0.379 N 
HETATM   33  H7  UNK     1      29.532  -3.400  38.108  1.00  0.00     0.158 HD
HETATM   34  H8  UNK     1      27.942  -4.139  38.085  1.00  0.00     0.158 HD
ENDBRANCH  10  32
TORSDOF 4
ENDMDL
MODEL 9
REMARK VINA RESULT:      -8.3      6.175     11.009
REMARK  4 active torsions:
REMARK  status: ('A' for Active; 'I' for Inactive)
REMARK    1  A    between atoms: C7_16  and  N1_7 
REMARK    2  A    between atoms: C23_32  and  N3_9 
REMARK    3  A    between atoms: C1_10  and  C3_12 
REMARK    4  A    between atoms: C11_20  and  C14_23 
ROOT
HETATM    1  O1  UNK     1      34.621  -9.530  30.637  1.00  0.00    -0.291 OA
HETATM    2  O3  UNK     1      37.455  -8.887  33.647  1.00  0.00    -0.274 OA
HETATM    3  O4  UNK     1      36.047  -7.408  34.661  1.00  0.00    -0.259 OA
HETATM    4  N2  UNK     1      30.922  -6.506  31.251  1.00  0.00    -0.191 NA
HETATM    5  C1  UNK     1      33.892  -7.772  32.787  1.00  0.00     0.133 C 
HETATM    6  C2  UNK     1      35.236  -8.469  32.693  1.00  0.00     0.068 A 
HETATM    7  C4  UNK     1      35.512  -9.287  31.667  1.00  0.00     0.104 A 
HETATM    8  C5  UNK     1      33.069  -7.934  31.511  1.00  0.00     0.088 C 
HETATM    9  C6  UNK     1      36.791  -9.987  31.581  1.00  0.00     0.033 A 
HETATM   10  C7  UNK     1      33.449  -8.782  30.530  1.00  0.00     0.160 C 
HETATM   11  C8  UNK     1      36.251  -8.198  33.746  1.00  0.00     0.298 A 
HETATM   12  C10 UNK     1      37.730  -9.768  32.584  1.00  0.00     0.092 A 
HETATM   13  C13 UNK     1      37.125 -10.869  30.546  1.00  0.00     0.017 A 
HETATM   14  C15 UNK     1      38.975 -10.397  32.585  1.00  0.00     0.038 A 
HETATM   15  C16 UNK     1      31.883  -7.145  31.368  1.00  0.00     0.100 C 
HETATM   16  C17 UNK     1      38.369 -11.508  30.532  1.00  0.00     0.001 A 
HETATM   17  C18 UNK     1      39.292 -11.271  31.551  1.00  0.00     0.003 A 
ENDROOT
BRANCH   5  18
HETATM   18  C3  UNK     1      33.122  -8.199  33.995  1.00  0.00     0.068 A 
HETATM   19  O2  UNK     1      32.505  -7.206  34.665  1.00  0.00    -0.313 OA
HETATM   20  C11 UNK     1      31.874  -7.805  35.710  1.00  0.00     0.086 A 
HETATM   21  C12 UNK     1      32.095  -9.162  35.693  1.00  0.00     0.040 A 
HETATM   22  C9  UNK     1      32.915  -9.414  34.567  1.00  0.00     0.036 A 
BRANCH  20  23
HETATM   23  C14 UNK     1      31.139  -6.924  36.573  1.00  0.00    -0.002 A 
HETATM   24  C19 UNK     1      30.338  -7.445  37.594  1.00  0.00     0.017 A 
HETATM   25  C21 UNK     1      29.625  -6.589  38.433  1.00  0.00     0.037 A 
HETATM   26  C23 UNK     1      29.710  -5.208  38.256  1.00  0.00     0.102 A 
HETATM   27  C22 UNK     1      30.507  -4.683  37.239  1.00  0.00     0.037 A 
HETATM   28  C20 UNK     1      31.221  -5.539  36.399  1.00  0.00     0.017 A 
BRANCH  26  29
HETATM   29  N3  UNK     1      28.983  -4.337  39.110  1.00  0.00    -0.116 N 
HETATM   30  O5  UNK     1      27.740  -4.243  38.968  1.00  0.00    -0.532 OA
HETATM   31  O6  UNK     1      29.605  -3.686  39.985  1.00  0.00    -0.532 OA
ENDBRANCH  26  29
ENDBRANCH  20  23
ENDBRANCH   5  18
BRANCH  10  32
HETATM   32  N1  UNK     1      32.765  -8.998  29.365  1.00  0.00    -0.379 N 
HETATM   33  H7  UNK     1      31.966  -8.416  29.153  1.00  0.00     0.158 HD
HETATM   34  H8  UNK     1      33.051  -9.725  28.721  1.00  0.00     0.158 HD
ENDBRANCH  10  32
TORSDOF 4
ENDMDL
MODEL 10
REMARK VINA RESULT:      -8.3     32.838     35.763
REMARK  4 active torsions:
REMARK  status: ('A' for Active; 'I' for Inactive)
REMARK    1  A    between atoms: C7_16  and  N1_7 
REMARK    2  A    between atoms: C23_32  and  N3_9 
REMARK    3  A    between atoms: C1_10  and  C3_12 
REMARK    4  A    between atoms: C11_20  and  C14_23 
ROOT
HETATM    1  O1  UNK     1      14.424  13.037   9.482  1.00  0.00    -0.291 OA
HETATM    2  O3  UNK     1      18.007  11.907   7.644  1.00  0.00    -0.274 OA
HETATM    3  O4  UNK     1      18.252  10.216   9.153  1.00  0.00    -0.259 OA
HETATM    4  N2  UNK     1      13.762  10.395  13.455  1.00  0.00    -0.191 NA
HETATM    5  C1  UNK     1      15.762  10.714  10.509  1.00  0.00     0.133 C 
HETATM    6  C2  UNK     1      16.286  11.538   9.348  1.00  0.00     0.068 A 
HETATM    7  C4  UNK     1      15.607  12.608   8.909  1.00  0.00     0.104 A 
HETATM    8  C5  UNK     1      14.578  11.383  11.202  1.00  0.00     0.088 C 
HETATM    9  C6  UNK     1      16.084  13.392   7.773  1.00  0.00     0.033 A 
HETATM   10  C7  UNK     1      13.974  12.471  10.675  1.00  0.00     0.160 C 
HETATM   11  C8  UNK     1      17.582  11.152   8.731  1.00  0.00     0.298 A 
HETATM   12  C10 UNK     1      17.278  13.012   7.166  1.00  0.00     0.092 A 
HETATM   13  C13 UNK     1      15.407  14.504   7.257  1.00  0.00     0.017 A 
HETATM   14  C15 UNK     1      17.806  13.700   6.073  1.00  0.00     0.038 A 
HETATM   15  C16 UNK     1      14.128  10.837  12.447  1.00  0.00     0.100 C 
HETATM   16  C17 UNK     1      15.924  15.204   6.162  1.00  0.00     0.001 A 
HETATM   17  C18 UNK     1      17.122  14.801   5.571  1.00  0.00     0.003 A 
ENDROOT
BRANCH   5  18
HETATM   18  C3  UNK     1      15.440   9.312  10.102  1.00  0.00     0.068 A 
HETATM   19  O2  UNK     1      14.268   9.153   9.457  1.00  0.00    -0.313 OA
HETATM   20  C11 UNK     1      14.176   7.825   9.184  1.00  0.00     0.086 A 
HETATM   21  C12 UNK     1      15.283   7.158   9.655  1.00  0.00     0.040 A 
HETATM   22  C9  UNK     1      16.107   8.138  10.257  1.00  0.00     0.036 A 
BRANCH  20  23
HETATM   23  C14 UNK     1      12.988   7.420   8.488  1.00  0.00    -0.002 A 
HETATM   24  C19 UNK     1      11.727   7.711   9.020  1.00  0.00     0.017 A 
HETATM   25  C21 UNK     1      10.572   7.318   8.344  1.00  0.00     0.037 A 
HETATM   26  C23 UNK     1      10.671   6.635   7.132  1.00  0.00     0.102 A 
HETATM   27  C22 UNK     1      11.926   6.343   6.597  1.00  0.00     0.037 A 
HETATM   28  C20 UNK     1      13.082   6.735   7.273  1.00  0.00     0.017 A 
BRANCH  26  29
HETATM   29  N3  UNK     1       9.495   6.235   6.444  1.00  0.00    -0.116 N 
HETATM   30  O5  UNK     1       9.288   6.675   5.288  1.00  0.00    -0.532 OA
HETATM   31  O6  UNK     1       8.696   5.451   7.012  1.00  0.00    -0.532 OA
ENDBRANCH  26  29
ENDBRANCH  20  23
ENDBRANCH   5  18
BRANCH  10  32
HETATM   32  N1  UNK     1      12.902  13.121  11.220  1.00  0.00    -0.379 N 
HETATM   33  H7  UNK     1      12.137  13.393  10.617  1.00  0.00     0.158 HD
HETATM   34  H8  UNK     1      12.866  13.327  12.211  1.00  0.00     0.158 HD
ENDBRANCH  10  32
TORSDOF 4
ENDMDL
