MODEL 1
REMARK VINA RESULT:      -9.6      0.000      0.000
REMARK  4 active torsions:
REMARK  status: ('A' for Active; 'I' for Inactive)
REMARK    1  A    between atoms: C12_18  and  O3_3 
REMARK       I    between atoms: C14_20  and  N1_5 
REMARK    2  A    between atoms: N1_5  and  N2_6 
REMARK    3  A    between atoms: C11_17  and  C4_10 
REMARK    4  A    between atoms: C10_16  and  C14_20 
ROOT
HETATM    1  N2  UNK     1      18.686   4.373  30.965  1.00  0.00    -0.183 NA
HETATM    2  C11 UNK     1      18.530   4.757  32.190  1.00  0.00     0.156 C 
ENDROOT
BRANCH   1   3
HETATM    3  N1  UNK     1      19.257   3.151  30.838  1.00  0.00    -0.243 N 
HETATM    4  C14 UNK     1      18.521   2.134  30.261  1.00  0.00     0.274 C 
HETATM    5  O4  UNK     1      17.369   2.249  29.848  1.00  0.00    -0.266 OA
HETATM    6  H11 UNK     1      20.188   3.028  31.225  1.00  0.00     0.192 HD
BRANCH   4   7
HETATM    7  C10 UNK     1      19.198   0.815  30.172  1.00  0.00     0.066 A 
HETATM    8  C12 UNK     1      19.356   0.046  31.307  1.00  0.00     0.081 A 
HETATM    9  C15 UNK     1      19.993  -1.190  31.202  1.00  0.00     0.037 A 
HETATM   10  C17 UNK     1      20.460  -1.631  29.963  1.00  0.00     0.003 A 
HETATM   11  C16 UNK     1      20.288  -0.836  28.830  1.00  0.00     0.001 A 
HETATM   12  C13 UNK     1      19.651   0.400  28.936  1.00  0.00     0.020 A 
BRANCH   8  13
HETATM   13  O3  UNK     1      18.906   0.459  32.525  1.00  0.00    -0.360 OA
HETATM   14  H12 UNK     1      19.250   1.351  32.706  1.00  0.00     0.217 HD
ENDBRANCH   8  13
ENDBRANCH   4   7
ENDBRANCH   1   3
BRANCH   2  15
HETATM   15  C4  UNK     1      17.931   6.046  32.539  1.00  0.00     0.056 A 
HETATM   16  C3  UNK     1      18.706   7.192  33.063  1.00  0.00     0.198 A 
HETATM   17  C1  UNK     1      17.931   8.412  33.359  1.00  0.00     0.049 A 
HETATM   18  O2  UNK     1      19.915   7.136  33.242  1.00  0.00    -0.286 OA
HETATM   19  C2  UNK     1      16.553   8.413  33.134  1.00  0.00     0.089 A 
HETATM   20  C5  UNK     1      18.564   9.554  33.857  1.00  0.00     0.018 A 
HETATM   21  O1  UNK     1      15.880   7.321  32.645  1.00  0.00    -0.321 OA
HETATM   22  C6  UNK     1      15.801   9.555  33.408  1.00  0.00     0.038 A 
HETATM   23  C7  UNK     1      16.613   6.190  32.373  1.00  0.00     0.159 A 
HETATM   24  C9  UNK     1      16.431  10.697  33.906  1.00  0.00     0.003 A 
HETATM   25  C8  UNK     1      17.808  10.696  34.129  1.00  0.00     0.001 A 
ENDBRANCH   2  15
TORSDOF 4
ENDMDL
MODEL 2
REMARK VINA RESULT:      -9.4      1.494      8.903
REMARK  4 active torsions:
REMARK  status: ('A' for Active; 'I' for Inactive)
REMARK    1  A    between atoms: C12_18  and  O3_3 
REMARK       I    between atoms: C14_20  and  N1_5 
REMARK    2  A    between atoms: N1_5  and  N2_6 
REMARK    3  A    between atoms: C11_17  and  C4_10 
REMARK    4  A    between atoms: C10_16  and  C14_20 
ROOT
HETATM    1  N2  UNK     1      18.585   4.570  32.146  1.00  0.00    -0.183 NA
HETATM    2  C11 UNK     1      17.905   3.510  31.848  1.00  0.00     0.156 C 
ENDROOT
BRANCH   1   3
HETATM    3  N1  UNK     1      17.864   5.528  32.775  1.00  0.00    -0.243 N 
HETATM    4  C14 UNK     1      17.606   6.709  32.105  1.00  0.00     0.274 C 
HETATM    5  O4  UNK     1      17.985   6.965  30.964  1.00  0.00    -0.266 OA
HETATM    6  H11 UNK     1      17.591   5.352  33.737  1.00  0.00     0.192 HD
BRANCH   4   7
HETATM    7  C10 UNK     1      16.829   7.726  32.860  1.00  0.00     0.066 A 
HETATM    8  C12 UNK     1      15.957   8.560  32.191  1.00  0.00     0.081 A 
HETATM    9  C15 UNK     1      15.237   9.507  32.919  1.00  0.00     0.037 A 
HETATM   10  C17 UNK     1      15.405   9.600  34.301  1.00  0.00     0.003 A 
HETATM   11  C16 UNK     1      16.293   8.746  34.954  1.00  0.00     0.001 A 
HETATM   12  C13 UNK     1      17.012   7.799  34.226  1.00  0.00     0.020 A 
BRANCH   8  13
HETATM   13  O3  UNK     1      15.778   8.484  30.842  1.00  0.00    -0.360 OA
HETATM   14  H12 UNK     1      14.953   8.943  30.604  1.00  0.00     0.217 HD
ENDBRANCH   8  13
ENDBRANCH   4   7
ENDBRANCH   1   3
BRANCH   2  15
HETATM   15  C4  UNK     1      18.501   2.361  31.165  1.00  0.00     0.056 A 
HETATM   16  C3  UNK     1      18.846   1.094  31.846  1.00  0.00     0.198 A 
HETATM   17  C1  UNK     1      19.439   0.045  30.995  1.00  0.00     0.049 A 
HETATM   18  O2  UNK     1      18.653   0.923  33.042  1.00  0.00    -0.286 OA
HETATM   19  C2  UNK     1      19.634   0.303  29.636  1.00  0.00     0.089 A 
HETATM   20  C5  UNK     1      19.801  -1.190  31.536  1.00  0.00     0.018 A 
HETATM   21  O1  UNK     1      19.297   1.498  29.051  1.00  0.00    -0.321 OA
HETATM   22  C6  UNK     1      20.195  -0.674  28.814  1.00  0.00     0.038 A 
HETATM   23  C7  UNK     1      18.745   2.467  29.855  1.00  0.00     0.159 A 
HETATM   24  C9  UNK     1      20.557  -1.910  29.352  1.00  0.00     0.003 A 
HETATM   25  C8  UNK     1      20.360  -2.167  30.710  1.00  0.00     0.001 A 
ENDBRANCH   2  15
TORSDOF 4
ENDMDL
MODEL 3
REMARK VINA RESULT:      -9.2      1.145      1.549
REMARK  4 active torsions:
REMARK  status: ('A' for Active; 'I' for Inactive)
REMARK    1  A    between atoms: C12_18  and  O3_3 
REMARK       I    between atoms: C14_20  and  N1_5 
REMARK    2  A    between atoms: N1_5  and  N2_6 
REMARK    3  A    between atoms: C11_17  and  C4_10 
REMARK    4  A    between atoms: C10_16  and  C14_20 
ROOT
HETATM    1  N2  UNK     1      17.539   3.818  31.861  1.00  0.00    -0.183 NA
HETATM    2  C11 UNK     1      18.358   4.719  32.296  1.00  0.00     0.156 C 
ENDROOT
BRANCH   1   3
HETATM    3  N1  UNK     1      18.129   2.638  31.554  1.00  0.00    -0.243 N 
HETATM    4  C14 UNK     1      18.630   2.461  30.278  1.00  0.00     0.274 C 
HETATM    5  O4  UNK     1      18.580   3.301  29.383  1.00  0.00    -0.266 OA
HETATM    6  H11 UNK     1      18.128   1.915  32.268  1.00  0.00     0.192 HD
BRANCH   4   7
HETATM    7  C10 UNK     1      19.245   1.137  30.002  1.00  0.00     0.066 A 
HETATM    8  C12 UNK     1      19.051   0.532  28.777  1.00  0.00     0.081 A 
HETATM    9  C15 UNK     1      19.638  -0.710  28.538  1.00  0.00     0.037 A 
HETATM   10  C17 UNK     1      20.406  -1.322  29.529  1.00  0.00     0.003 A 
HETATM   11  C16 UNK     1      20.588  -0.690  30.759  1.00  0.00     0.001 A 
HETATM   12  C13 UNK     1      20.001   0.552  30.998  1.00  0.00     0.020 A 
BRANCH   8  13
HETATM   13  O3  UNK     1      18.304   1.113  27.796  1.00  0.00    -0.360 OA
HETATM   14  H12 UNK     1      18.838   1.174  26.985  1.00  0.00     0.217 HD
ENDBRANCH   8  13
ENDBRANCH   4   7
ENDBRANCH   1   3
BRANCH   2  15
HETATM   15  C4  UNK     1      17.917   6.061  32.681  1.00  0.00     0.056 A 
HETATM   16  C3  UNK     1      18.840   7.129  33.123  1.00  0.00     0.198 A 
HETATM   17  C1  UNK     1      18.214   8.419  33.471  1.00  0.00     0.049 A 
HETATM   18  O2  UNK     1      20.049   6.957  33.197  1.00  0.00    -0.286 OA
HETATM   19  C2  UNK     1      16.827   8.551  33.366  1.00  0.00     0.089 A 
HETATM   20  C5  UNK     1      18.993   9.495  33.899  1.00  0.00     0.018 A 
HETATM   21  O1  UNK     1      16.014   7.527  32.950  1.00  0.00    -0.321 OA
HETATM   22  C6  UNK     1      16.215   9.761  33.691  1.00  0.00     0.038 A 
HETATM   23  C7  UNK     1      16.609   6.330  32.628  1.00  0.00     0.159 A 
HETATM   24  C9  UNK     1      16.991  10.838  34.120  1.00  0.00     0.003 A 
HETATM   25  C8  UNK     1      18.376  10.706  34.223  1.00  0.00     0.001 A 
ENDBRANCH   2  15
TORSDOF 4
ENDMDL
MODEL 4
REMARK VINA RESULT:      -9.0      7.896     13.674
REMARK  4 active torsions:
REMARK  status: ('A' for Active; 'I' for Inactive)
REMARK    1  A    between atoms: C12_18  and  O3_3 
REMARK       I    between atoms: C14_20  and  N1_5 
REMARK    2  A    between atoms: N1_5  and  N2_6 
REMARK    3  A    between atoms: C11_17  and  C4_10 
REMARK    4  A    between atoms: C10_16  and  C14_20 
ROOT
HETATM    1  N2  UNK     1      19.414  -4.191  36.529  1.00  0.00    -0.183 NA
HETATM    2  C11 UNK     1      18.820  -5.316  36.290  1.00  0.00     0.156 C 
ENDROOT
BRANCH   1   3
HETATM    3  N1  UNK     1      18.567  -3.154  36.734  1.00  0.00    -0.243 N 
HETATM    4  C14 UNK     1      18.686  -2.036  35.931  1.00  0.00     0.274 C 
HETATM    5  O4  UNK     1      19.513  -1.903  35.031  1.00  0.00    -0.266 OA
HETATM    6  H11 UNK     1      17.916  -3.228  37.510  1.00  0.00     0.192 HD
BRANCH   4   7
HETATM    7  C10 UNK     1      17.742  -0.926  36.223  1.00  0.00     0.066 A 
HETATM    8  C12 UNK     1      16.743  -0.619  35.322  1.00  0.00     0.081 A 
HETATM    9  C15 UNK     1      15.868   0.426  35.615  1.00  0.00     0.037 A 
HETATM   10  C17 UNK     1      16.009   1.142  36.804  1.00  0.00     0.003 A 
HETATM   11  C16 UNK     1      17.028   0.814  37.699  1.00  0.00     0.001 A 
HETATM   12  C13 UNK     1      17.903  -0.231  37.405  1.00  0.00     0.020 A 
BRANCH   8  13
HETATM   13  O3  UNK     1      16.587  -1.308  34.157  1.00  0.00    -0.360 OA
HETATM   14  H12 UNK     1      16.766  -0.711  33.408  1.00  0.00     0.217 HD
ENDBRANCH   8  13
ENDBRANCH   4   7
ENDBRANCH   1   3
BRANCH   2  15
HETATM   15  C4  UNK     1      19.557  -6.556  36.042  1.00  0.00     0.056 A 
HETATM   16  C3  UNK     1      19.600  -7.686  36.995  1.00  0.00     0.198 A 
HETATM   17  C1  UNK     1      20.394  -8.855  36.573  1.00  0.00     0.049 A 
HETATM   18  O2  UNK     1      19.015  -7.656  38.069  1.00  0.00    -0.286 OA
HETATM   19  C2  UNK     1      21.040  -8.827  35.335  1.00  0.00     0.089 A 
HETATM   20  C5  UNK     1      20.501  -9.978  37.398  1.00  0.00     0.018 A 
HETATM   21  O1  UNK     1      20.969  -7.751  34.485  1.00  0.00    -0.321 OA
HETATM   22  C6  UNK     1      21.797  -9.921  34.918  1.00  0.00     0.038 A 
HETATM   23  C7  UNK     1      20.225  -6.668  34.890  1.00  0.00     0.159 A 
HETATM   24  C9  UNK     1      21.906 -11.044  35.740  1.00  0.00     0.003 A 
HETATM   25  C8  UNK     1      21.259 -11.072  36.976  1.00  0.00     0.001 A 
ENDBRANCH   2  15
TORSDOF 4
ENDMDL
MODEL 5
REMARK VINA RESULT:      -9.0      1.347      8.887
REMARK  4 active torsions:
REMARK  status: ('A' for Active; 'I' for Inactive)
REMARK    1  A    between atoms: C12_18  and  O3_3 
REMARK       I    between atoms: C14_20  and  N1_5 
REMARK    2  A    between atoms: N1_5  and  N2_6 
REMARK    3  A    between atoms: C11_17  and  C4_10 
REMARK    4  A    between atoms: C10_16  and  C14_20 
ROOT
HETATM    1  N2  UNK     1      18.181   4.716  33.202  1.00  0.00    -0.183 NA
HETATM    2  C11 UNK     1      17.866   4.095  32.112  1.00  0.00     0.156 C 
ENDROOT
BRANCH   1   3
HETATM    3  N1  UNK     1      17.614   5.941  33.322  1.00  0.00    -0.243 N 
HETATM    4  C14 UNK     1      18.282   6.910  34.046  1.00  0.00     0.274 C 
HETATM    5  O4  UNK     1      19.367   6.748  34.600  1.00  0.00    -0.266 OA
HETATM    6  H11 UNK     1      16.693   6.071  32.916  1.00  0.00     0.192 HD
BRANCH   4   7
HETATM    7  C10 UNK     1      17.596   8.223  34.158  1.00  0.00     0.066 A 
HETATM    8  C12 UNK     1      16.282   8.278  34.578  1.00  0.00     0.081 A 
HETATM    9  C15 UNK     1      15.657   9.520  34.677  1.00  0.00     0.037 A 
HETATM   10  C17 UNK     1      16.358  10.682  34.353  1.00  0.00     0.003 A 
HETATM   11  C16 UNK     1      17.685  10.601  33.931  1.00  0.00     0.001 A 
HETATM   12  C13 UNK     1      18.310   9.358  33.832  1.00  0.00     0.020 A 
BRANCH   8  13
HETATM   13  O3  UNK     1      15.581   7.154  34.899  1.00  0.00    -0.360 OA
HETATM   14  H12 UNK     1      15.319   7.200  35.835  1.00  0.00     0.217 HD
ENDBRANCH   8  13
ENDBRANCH   4   7
ENDBRANCH   1   3
BRANCH   2  15
HETATM   15  C4  UNK     1      18.375   2.760  31.793  1.00  0.00     0.056 A 
HETATM   16  C3  UNK     1      18.824   2.357  30.443  1.00  0.00     0.198 A 
HETATM   17  C1  UNK     1      19.306   0.969  30.312  1.00  0.00     0.049 A 
HETATM   18  O2  UNK     1      18.797   3.124  29.491  1.00  0.00    -0.286 OA
HETATM   19  C2  UNK     1      19.311   0.142  31.437  1.00  0.00     0.089 A 
HETATM   20  C5  UNK     1      19.754   0.485  29.081  1.00  0.00     0.018 A 
HETATM   21  O1  UNK     1      18.883   0.565  32.671  1.00  0.00    -0.321 OA
HETATM   22  C6  UNK     1      19.761  -1.174  31.335  1.00  0.00     0.038 A 
HETATM   23  C7  UNK     1      18.436   1.861  32.780  1.00  0.00     0.159 A 
HETATM   24  C9  UNK     1      20.209  -1.660  30.106  1.00  0.00     0.003 A 
HETATM   25  C8  UNK     1      20.206  -0.833  28.983  1.00  0.00     0.001 A 
ENDBRANCH   2  15
TORSDOF 4
ENDMDL
MODEL 6
REMARK VINA RESULT:      -8.9     16.053     20.709
REMARK  4 active torsions:
REMARK  status: ('A' for Active; 'I' for Inactive)
REMARK    1  A    between atoms: C12_18  and  O3_3 
REMARK       I    between atoms: C14_20  and  N1_5 
REMARK    2  A    between atoms: N1_5  and  N2_6 
REMARK    3  A    between atoms: C11_17  and  C4_10 
REMARK    4  A    between atoms: C10_16  and  C14_20 
ROOT
HETATM    1  N2  UNK     1      19.452  -0.435  14.160  1.00  0.00    -0.183 NA
HETATM    2  C11 UNK     1      19.659  -1.680  13.874  1.00  0.00     0.156 C 
ENDROOT
BRANCH   1   3
HETATM    3  N1  UNK     1      19.183  -0.207  15.468  1.00  0.00    -0.243 N 
HETATM    4  C14 UNK     1      19.448   1.045  15.988  1.00  0.00     0.274 C 
HETATM    5  O4  UNK     1      19.917   1.985  15.350  1.00  0.00    -0.266 OA
HETATM    6  H11 UNK     1      18.846  -0.991  16.019  1.00  0.00     0.192 HD
BRANCH   4   7
HETATM    7  C10 UNK     1      19.150   1.222  17.433  1.00  0.00     0.066 A 
HETATM    8  C12 UNK     1      18.923   2.485  17.938  1.00  0.00     0.081 A 
HETATM    9  C15 UNK     1      18.645   2.629  19.297  1.00  0.00     0.037 A 
HETATM   10  C17 UNK     1      18.600   1.505  20.123  1.00  0.00     0.003 A 
HETATM   11  C16 UNK     1      18.834   0.238  19.589  1.00  0.00     0.001 A 
HETATM   12  C13 UNK     1      19.112   0.095  18.230  1.00  0.00     0.020 A 
BRANCH   8  13
HETATM   13  O3  UNK     1      18.961   3.595  17.148  1.00  0.00    -0.360 OA
HETATM   14  H12 UNK     1      19.700   3.512  16.519  1.00  0.00     0.217 HD
ENDBRANCH   8  13
ENDBRANCH   4   7
ENDBRANCH   1   3
BRANCH   2  15
HETATM   15  C4  UNK     1      19.966  -2.134  12.517  1.00  0.00     0.056 A 
HETATM   16  C3  UNK     1      19.392  -3.357  11.914  1.00  0.00     0.198 A 
HETATM   17  C1  UNK     1      19.816  -3.655  10.533  1.00  0.00     0.049 A 
HETATM   18  O2  UNK     1      18.613  -4.079  12.521  1.00  0.00    -0.286 OA
HETATM   19  C2  UNK     1      20.708  -2.791   9.895  1.00  0.00     0.089 A 
HETATM   20  C5  UNK     1      19.334  -4.785   9.869  1.00  0.00     0.018 A 
HETATM   21  O1  UNK     1      21.213  -1.666  10.499  1.00  0.00    -0.321 OA
HETATM   22  C6  UNK     1      21.124  -3.055   8.590  1.00  0.00     0.038 A 
HETATM   23  C7  UNK     1      20.810  -1.399  11.786  1.00  0.00     0.159 A 
HETATM   24  C9  UNK     1      20.643  -4.184   7.924  1.00  0.00     0.003 A 
HETATM   25  C8  UNK     1      19.751  -5.046   8.562  1.00  0.00     0.001 A 
ENDBRANCH   2  15
TORSDOF 4
ENDMDL
MODEL 7
REMARK VINA RESULT:      -8.8      7.803     13.599
REMARK  4 active torsions:
REMARK  status: ('A' for Active; 'I' for Inactive)
REMARK    1  A    between atoms: C12_18  and  O3_3 
REMARK       I    between atoms: C14_20  and  N1_5 
REMARK    2  A    between atoms: N1_5  and  N2_6 
REMARK    3  A    between atoms: C11_17  and  C4_10 
REMARK    4  A    between atoms: C10_16  and  C14_20 
ROOT
HETATM    1  N2  UNK     1      19.884  -4.016  36.403  1.00  0.00    -0.183 NA
HETATM    2  C11 UNK     1      19.586  -5.179  36.886  1.00  0.00     0.156 C 
ENDROOT
BRANCH   1   3
HETATM    3  N1  UNK     1      18.907  -3.089  36.555  1.00  0.00    -0.243 N 
HETATM    4  C14 UNK     1      18.970  -1.934  35.799  1.00  0.00     0.274 C 
HETATM    5  O4  UNK     1      19.855  -1.674  34.988  1.00  0.00    -0.266 OA
HETATM    6  H11 UNK     1      18.201  -3.267  37.262  1.00  0.00     0.192 HD
BRANCH   4   7
HETATM    7  C10 UNK     1      17.881  -0.950  36.031  1.00  0.00     0.066 A 
HETATM    8  C12 UNK     1      16.977  -0.677  35.025  1.00  0.00     0.081 A 
HETATM    9  C15 UNK     1      15.962   0.250  35.263  1.00  0.00     0.037 A 
HETATM   10  C17 UNK     1      15.872   0.884  36.502  1.00  0.00     0.003 A 
HETATM   11  C16 UNK     1      16.799   0.591  37.503  1.00  0.00     0.001 A 
HETATM   12  C13 UNK     1      17.813  -0.336  37.265  1.00  0.00     0.020 A 
BRANCH   8  13
HETATM   13  O3  UNK     1      17.047  -1.286  33.808  1.00  0.00    -0.360 OA
HETATM   14  H12 UNK     1      16.681  -0.689  33.132  1.00  0.00     0.217 HD
ENDBRANCH   8  13
ENDBRANCH   4   7
ENDBRANCH   1   3
BRANCH   2  15
HETATM   15  C4  UNK     1      20.506  -6.315  36.822  1.00  0.00     0.056 A 
HETATM   16  C3  UNK     1      20.350  -7.442  35.876  1.00  0.00     0.198 A 
HETATM   17  C1  UNK     1      21.377  -8.498  35.957  1.00  0.00     0.049 A 
HETATM   18  O2  UNK     1      19.428  -7.498  35.075  1.00  0.00    -0.286 OA
HETATM   19  C2  UNK     1      22.405  -8.376  36.894  1.00  0.00     0.089 A 
HETATM   20  C5  UNK     1      21.325  -9.607  35.109  1.00  0.00     0.018 A 
HETATM   21  O1  UNK     1      22.506  -7.308  37.751  1.00  0.00    -0.321 OA
HETATM   22  C6  UNK     1      23.385  -9.364  36.988  1.00  0.00     0.038 A 
HETATM   23  C7  UNK     1      21.543  -6.330  37.665  1.00  0.00     0.159 A 
HETATM   24  C9  UNK     1      23.336 -10.472  36.142  1.00  0.00     0.003 A 
HETATM   25  C8  UNK     1      22.309 -10.593  35.205  1.00  0.00     0.001 A 
ENDBRANCH   2  15
TORSDOF 4
ENDMDL
MODEL 8
REMARK VINA RESULT:      -8.8     14.459     19.702
REMARK  4 active torsions:
REMARK  status: ('A' for Active; 'I' for Inactive)
REMARK    1  A    between atoms: C12_18  and  O3_3 
REMARK       I    between atoms: C14_20  and  N1_5 
REMARK    2  A    between atoms: N1_5  and  N2_6 
REMARK    3  A    between atoms: C11_17  and  C4_10 
REMARK    4  A    between atoms: C10_16  and  C14_20 
ROOT
HETATM    1  N2  UNK     1      18.994  -1.726  15.443  1.00  0.00    -0.183 NA
HETATM    2  C11 UNK     1      19.694  -2.803  15.601  1.00  0.00     0.156 C 
ENDROOT
BRANCH   1   3
HETATM    3  N1  UNK     1      19.372  -0.700  16.243  1.00  0.00    -0.243 N 
HETATM    4  C14 UNK     1      18.565  -0.365  17.313  1.00  0.00     0.274 C 
HETATM    5  O4  UNK     1      17.513  -0.931  17.603  1.00  0.00    -0.266 OA
HETATM    6  H11 UNK     1      20.210  -0.189  15.983  1.00  0.00     0.192 HD
BRANCH   4   7
HETATM    7  C10 UNK     1      19.026   0.782  18.137  1.00  0.00     0.066 A 
HETATM    8  C12 UNK     1      19.040   2.053  17.599  1.00  0.00     0.081 A 
HETATM    9  C15 UNK     1      19.475   3.116  18.389  1.00  0.00     0.037 A 
HETATM   10  C17 UNK     1      19.888   2.887  19.702  1.00  0.00     0.003 A 
HETATM   11  C16 UNK     1      19.865   1.593  20.223  1.00  0.00     0.001 A 
HETATM   12  C13 UNK     1      19.429   0.530  19.433  1.00  0.00     0.020 A 
BRANCH   8  13
HETATM   13  O3  UNK     1      18.640   2.297  16.319  1.00  0.00    -0.360 OA
HETATM   14  H12 UNK     1      18.949   1.574  15.745  1.00  0.00     0.217 HD
ENDBRANCH   8  13
ENDBRANCH   4   7
ENDBRANCH   1   3
BRANCH   2  15
HETATM   15  C4  UNK     1      19.444  -4.022  14.832  1.00  0.00     0.056 A 
HETATM   16  C3  UNK     1      20.483  -5.034  14.542  1.00  0.00     0.198 A 
HETATM   17  C1  UNK     1      20.045  -6.200  13.751  1.00  0.00     0.049 A 
HETATM   18  O2  UNK     1      21.636  -4.914  14.931  1.00  0.00    -0.286 OA
HETATM   19  C2  UNK     1      18.714  -6.278  13.335  1.00  0.00     0.089 A 
HETATM   20  C5  UNK     1      20.946  -7.215  13.422  1.00  0.00     0.018 A 
HETATM   21  O1  UNK     1      17.786  -5.310  13.631  1.00  0.00    -0.321 OA
HETATM   22  C6  UNK     1      18.280  -7.371  12.586  1.00  0.00     0.038 A 
HETATM   23  C7  UNK     1      18.207  -4.229  14.369  1.00  0.00     0.159 A 
HETATM   24  C9  UNK     1      19.178  -8.386  12.255  1.00  0.00     0.003 A 
HETATM   25  C8  UNK     1      20.507  -8.308  12.672  1.00  0.00     0.001 A 
ENDBRANCH   2  15
TORSDOF 4
ENDMDL
MODEL 9
REMARK VINA RESULT:      -8.7      1.264      2.560
REMARK  4 active torsions:
REMARK  status: ('A' for Active; 'I' for Inactive)
REMARK    1  A    between atoms: C12_18  and  O3_3 
REMARK       I    between atoms: C14_20  and  N1_5 
REMARK    2  A    between atoms: N1_5  and  N2_6 
REMARK    3  A    between atoms: C11_17  and  C4_10 
REMARK    4  A    between atoms: C10_16  and  C14_20 
ROOT
HETATM    1  N2  UNK     1      17.698   4.580  31.928  1.00  0.00    -0.183 NA
HETATM    2  C11 UNK     1      17.957   5.797  31.573  1.00  0.00     0.156 C 
ENDROOT
BRANCH   1   3
HETATM    3  N1  UNK     1      18.239   3.642  31.115  1.00  0.00    -0.243 N 
HETATM    4  C14 UNK     1      18.284   2.333  31.555  1.00  0.00     0.274 C 
HETATM    5  O4  UNK     1      17.867   1.944  32.644  1.00  0.00    -0.266 OA
HETATM    6  H11 UNK     1      18.637   3.958  30.236  1.00  0.00     0.192 HD
BRANCH   4   7
HETATM    7  C10 UNK     1      18.910   1.358  30.625  1.00  0.00     0.066 A 
HETATM    8  C12 UNK     1      18.485   1.288  29.315  1.00  0.00     0.081 A 
HETATM    9  C15 UNK     1      19.087   0.367  28.458  1.00  0.00     0.037 A 
HETATM   10  C17 UNK     1      20.102  -0.466  28.930  1.00  0.00     0.003 A 
HETATM   11  C16 UNK     1      20.514  -0.377  30.260  1.00  0.00     0.001 A 
HETATM   12  C13 UNK     1      19.912   0.545  31.116  1.00  0.00     0.020 A 
BRANCH   8  13
HETATM   13  O3  UNK     1      17.496   2.093  28.834  1.00  0.00    -0.360 OA
HETATM   14  H12 UNK     1      17.569   2.141  27.864  1.00  0.00     0.217 HD
ENDBRANCH   8  13
ENDBRANCH   4   7
ENDBRANCH   1   3
BRANCH   2  15
HETATM   15  C4  UNK     1      17.464   6.955  32.320  1.00  0.00     0.056 A 
HETATM   16  C3  UNK     1      16.029   7.290  32.457  1.00  0.00     0.198 A 
HETATM   17  C1  UNK     1      15.721   8.496  33.248  1.00  0.00     0.049 A 
HETATM   18  O2  UNK     1      15.150   6.611  31.945  1.00  0.00    -0.286 OA
HETATM   19  C2  UNK     1      16.771   9.229  33.806  1.00  0.00     0.089 A 
HETATM   20  C5  UNK     1      14.399   8.902  33.440  1.00  0.00     0.018 A 
HETATM   21  O1  UNK     1      18.089   8.875  33.650  1.00  0.00    -0.321 OA
HETATM   22  C6  UNK     1      16.502  10.373  34.556  1.00  0.00     0.038 A 
HETATM   23  C7  UNK     1      18.363   7.749  32.910  1.00  0.00     0.159 A 
HETATM   24  C9  UNK     1      15.182  10.781  34.750  1.00  0.00     0.003 A 
HETATM   25  C8  UNK     1      14.133  10.048  34.194  1.00  0.00     0.001 A 
ENDBRANCH   2  15
TORSDOF 4
ENDMDL
MODEL 10
REMARK VINA RESULT:      -8.7     15.339     16.615
REMARK  4 active torsions:
REMARK  status: ('A' for Active; 'I' for Inactive)
REMARK    1  A    between atoms: C12_18  and  O3_3 
REMARK       I    between atoms: C14_20  and  N1_5 
REMARK    2  A    between atoms: N1_5  and  N2_6 
REMARK    3  A    between atoms: C11_17  and  C4_10 
REMARK    4  A    between atoms: C10_16  and  C14_20 
ROOT
HETATM    1  N2  UNK     1      25.059  -8.400  37.433  1.00  0.00    -0.183 NA
HETATM    2  C11 UNK     1      25.854  -8.405  38.454  1.00  0.00     0.156 C 
ENDROOT
BRANCH   1   3
HETATM    3  N1  UNK     1      23.905  -9.082  37.630  1.00  0.00    -0.243 N 
HETATM    4  C14 UNK     1      22.734  -8.366  37.786  1.00  0.00     0.274 C 
HETATM    5  O4  UNK     1      22.652  -7.140  37.763  1.00  0.00    -0.266 OA
HETATM    6  H11 UNK     1      23.967 -10.092  37.706  1.00  0.00     0.192 HD
BRANCH   4   7
HETATM    7  C10 UNK     1      21.508  -9.173  38.020  1.00  0.00     0.066 A 
HETATM    8  C12 UNK     1      21.092 -10.081  37.069  1.00  0.00     0.081 A 
HETATM    9  C15 UNK     1      19.940 -10.830  37.308  1.00  0.00     0.037 A 
HETATM   10  C17 UNK     1      19.227 -10.653  38.494  1.00  0.00     0.003 A 
HETATM   11  C16 UNK     1      19.668  -9.728  39.441  1.00  0.00     0.001 A 
HETATM   12  C13 UNK     1      20.820  -8.980  39.201  1.00  0.00     0.020 A 
BRANCH   8  13
HETATM   13  O3  UNK     1      21.775 -10.269  35.904  1.00  0.00    -0.360 OA
HETATM   14  H12 UNK     1      21.845 -11.224  35.727  1.00  0.00     0.217 HD
ENDBRANCH   8  13
ENDBRANCH   4   7
ENDBRANCH   1   3
BRANCH   2  15
HETATM   15  C4  UNK     1      27.151  -7.726  38.443  1.00  0.00     0.056 A 
HETATM   16  C3  UNK     1      27.308  -6.263  38.598  1.00  0.00     0.198 A 
HETATM   17  C1  UNK     1      28.693  -5.757  38.563  1.00  0.00     0.049 A 
HETATM   18  O2  UNK     1      26.351  -5.516  38.745  1.00  0.00    -0.286 OA
HETATM   19  C2  UNK     1      29.743  -6.662  38.390  1.00  0.00     0.089 A 
HETATM   20  C5  UNK     1      28.956  -4.392  38.700  1.00  0.00     0.018 A 
HETATM   21  O1  UNK     1      29.543  -8.013  38.251  1.00  0.00    -0.321 OA
HETATM   22  C6  UNK     1      31.060  -6.204  38.353  1.00  0.00     0.038 A 
HETATM   23  C7  UNK     1      28.248  -8.472  38.286  1.00  0.00     0.159 A 
HETATM   24  C9  UNK     1      31.325  -4.841  38.490  1.00  0.00     0.003 A 
HETATM   25  C8  UNK     1      30.276  -3.938  38.663  1.00  0.00     0.001 A 
ENDBRANCH   2  15
TORSDOF 4
ENDMDL
