MODEL 1
REMARK VINA RESULT:      -7.0      0.000      0.000
REMARK  1 active torsions:
REMARK  status: ('A' for Active; 'I' for Inactive)
REMARK    1  A    between atoms: C4_10  and  N1_6 
ROOT
HETATM    1 Cl1  UNK     1      18.852  -1.323  34.004  1.00  0.00    -0.080 Cl
HETATM    2  O1  UNK     1      18.913   1.844  30.711  1.00  0.00    -0.273 OA
HETATM    3  O2  UNK     1      17.875   3.297  32.138  1.00  0.00    -0.257 OA
HETATM    4  C1  UNK     1      19.455  -0.428  31.458  1.00  0.00     0.022 A 
HETATM    5  C2  UNK     1      19.458   0.563  30.469  1.00  0.00     0.091 A 
HETATM    6  C3  UNK     1      18.866  -0.107  32.767  1.00  0.00     0.086 A 
HETATM    7  C4  UNK     1      18.363   1.120  32.946  1.00  0.00     0.200 A 
HETATM    8  C5  UNK     1      20.019  -1.668  31.124  1.00  0.00     0.016 A 
HETATM    9  C6  UNK     1      19.994   0.351  29.198  1.00  0.00     0.038 A 
HETATM   10  C7  UNK     1      18.349   2.185  31.933  1.00  0.00     0.323 A 
HETATM   11  C8  UNK     1      20.559  -1.895  29.853  1.00  0.00     0.001 A 
HETATM   12  C9  UNK     1      20.548  -0.887  28.891  1.00  0.00     0.003 A 
ENDROOT
BRANCH   7  13
HETATM   13  N1  UNK     1      17.793   1.425  34.217  1.00  0.00    -0.107 N 
HETATM   14  O3  UNK     1      16.606   1.118  34.391  1.00  0.00    -0.531 OA
HETATM   15  O4  UNK     1      18.527   1.973  35.048  1.00  0.00    -0.531 OA
ENDBRANCH   7  13
TORSDOF 1
ENDMDL
MODEL 2
REMARK VINA RESULT:      -6.7      1.897      2.782
REMARK  1 active torsions:
REMARK  status: ('A' for Active; 'I' for Inactive)
REMARK    1  A    between atoms: C4_10  and  N1_6 
ROOT
HETATM    1 Cl1  UNK     1      18.279   2.574  31.663  1.00  0.00    -0.080 Cl
HETATM    2  O1  UNK     1      19.479  -1.683  32.811  1.00  0.00    -0.273 OA
HETATM    3  O2  UNK     1      18.601  -1.331  34.892  1.00  0.00    -0.257 OA
HETATM    4  C1  UNK     1      19.404   0.103  31.134  1.00  0.00     0.022 A 
HETATM    5  C2  UNK     1      19.759  -1.195  31.515  1.00  0.00     0.091 A 
HETATM    6  C3  UNK     1      18.726   0.961  32.119  1.00  0.00     0.086 A 
HETATM    7  C4  UNK     1      18.483   0.452  33.332  1.00  0.00     0.200 A 
HETATM    8  C5  UNK     1      19.723   0.497  29.826  1.00  0.00     0.016 A 
HETATM    9  C6  UNK     1      20.405  -2.080  30.650  1.00  0.00     0.038 A 
HETATM   10  C7  UNK     1      18.841  -0.905  33.769  1.00  0.00     0.323 A 
HETATM   11  C8  UNK     1      20.371  -0.380  28.948  1.00  0.00     0.001 A 
HETATM   12  C9  UNK     1      20.711  -1.667  29.358  1.00  0.00     0.003 A 
ENDROOT
BRANCH   7  13
HETATM   13  N1  UNK     1      17.827   1.289  34.282  1.00  0.00    -0.107 N 
HETATM   14  O3  UNK     1      18.542   2.013  34.985  1.00  0.00    -0.531 OA
HETATM   15  O4  UNK     1      16.592   1.225  34.332  1.00  0.00    -0.531 OA
ENDBRANCH   7  13
TORSDOF 1
ENDMDL
MODEL 3
REMARK VINA RESULT:      -6.7      6.566      7.549
REMARK  1 active torsions:
REMARK  status: ('A' for Active; 'I' for Inactive)
REMARK    1  A    between atoms: C4_10  and  N1_6 
ROOT
HETATM    1 Cl1  UNK     1      19.371   8.072  34.868  1.00  0.00    -0.080 Cl
HETATM    2  O1  UNK     1      16.859   7.748  31.065  1.00  0.00    -0.273 OA
HETATM    3  O2  UNK     1      15.327   9.165  31.999  1.00  0.00    -0.257 OA
HETATM    4  C1  UNK     1      18.869   7.119  32.321  1.00  0.00     0.022 A 
HETATM    5  C2  UNK     1      18.077   7.040  31.169  1.00  0.00     0.091 A 
HETATM    6  C3  UNK     1      18.403   7.963  33.433  1.00  0.00     0.086 A 
HETATM    7  C4  UNK     1      17.243   8.612  33.285  1.00  0.00     0.200 A 
HETATM    8  C5  UNK     1      20.061   6.381  32.331  1.00  0.00     0.016 A 
HETATM    9  C6  UNK     1      18.437   6.266  30.065  1.00  0.00     0.038 A 
HETATM   10  C7  UNK     1      16.385   8.554  32.092  1.00  0.00     0.323 A 
HETATM   11  C8  UNK     1      20.434   5.600  31.230  1.00  0.00     0.001 A 
HETATM   12  C9  UNK     1      19.624   5.543  30.099  1.00  0.00     0.003 A 
ENDROOT
BRANCH   7  13
HETATM   13  N1  UNK     1      16.796   9.427  34.367  1.00  0.00    -0.107 N 
HETATM   14  O3  UNK     1      17.101  10.626  34.332  1.00  0.00    -0.531 OA
HETATM   15  O4  UNK     1      16.140   8.873  35.257  1.00  0.00    -0.531 OA
ENDBRANCH   7  13
TORSDOF 1
ENDMDL
MODEL 4
REMARK VINA RESULT:      -6.5      2.545      4.515
REMARK  1 active torsions:
REMARK  status: ('A' for Active; 'I' for Inactive)
REMARK    1  A    between atoms: C4_10  and  N1_6 
ROOT
HETATM    1 Cl1  UNK     1      20.295  -2.428  30.749  1.00  0.00    -0.080 Cl
HETATM    2  O1  UNK     1      18.554   1.732  31.486  1.00  0.00    -0.273 OA
HETATM    3  O2  UNK     1      18.970   2.254  29.300  1.00  0.00    -0.257 OA
HETATM    4  C1  UNK     1      19.136  -0.489  32.345  1.00  0.00     0.022 A 
HETATM    5  C2  UNK     1      18.609   0.792  32.540  1.00  0.00     0.091 A 
HETATM    6  C3  UNK     1      19.637  -0.843  31.008  1.00  0.00     0.086 A 
HETATM    7  C4  UNK     1      19.563   0.082  30.044  1.00  0.00     0.200 A 
HETATM    8  C5  UNK     1      19.147  -1.352  33.451  1.00  0.00     0.016 A 
HETATM    9  C6  UNK     1      18.110   1.219  33.772  1.00  0.00     0.038 A 
HETATM   10  C7  UNK     1      19.017   1.436  30.210  1.00  0.00     0.323 A 
HETATM   11  C8  UNK     1      18.651  -0.938  34.692  1.00  0.00     0.001 A 
HETATM   12  C9  UNK     1      18.132   0.345  34.853  1.00  0.00     0.003 A 
ENDROOT
BRANCH   7  13
HETATM   13  N1  UNK     1      20.052  -0.268  28.751  1.00  0.00    -0.107 N 
HETATM   14  O3  UNK     1      21.280  -0.284  28.598  1.00  0.00    -0.531 OA
HETATM   15  O4  UNK     1      19.212  -0.526  27.881  1.00  0.00    -0.531 OA
ENDBRANCH   7  13
TORSDOF 1
ENDMDL
MODEL 5
REMARK VINA RESULT:      -6.5      3.869      5.584
REMARK  1 active torsions:
REMARK  status: ('A' for Active; 'I' for Inactive)
REMARK    1  A    between atoms: C4_10  and  N1_6 
ROOT
HETATM    1 Cl1  UNK     1      20.543  -2.491  36.441  1.00  0.00    -0.080 Cl
HETATM    2  O1  UNK     1      17.847  -0.570  33.293  1.00  0.00    -0.273 OA
HETATM    3  O2  UNK     1      19.198  -1.430  31.662  1.00  0.00    -0.257 OA
HETATM    4  C1  UNK     1      18.358  -0.989  35.653  1.00  0.00     0.022 A 
HETATM    5  C2  UNK     1      17.552  -0.413  34.666  1.00  0.00     0.091 A 
HETATM    6  C3  UNK     1      19.532  -1.770  35.230  1.00  0.00     0.086 A 
HETATM    7  C4  UNK     1      19.768  -1.888  33.919  1.00  0.00     0.200 A 
HETATM    8  C5  UNK     1      17.985  -0.780  36.989  1.00  0.00     0.016 A 
HETATM    9  C6  UNK     1      16.419   0.343  34.970  1.00  0.00     0.038 A 
HETATM   10  C7  UNK     1      18.945  -1.298  32.854  1.00  0.00     0.323 A 
HETATM   11  C8  UNK     1      16.852  -0.023  37.309  1.00  0.00     0.001 A 
HETATM   12  C9  UNK     1      16.069   0.538  36.302  1.00  0.00     0.003 A 
ENDROOT
BRANCH   7  13
HETATM   13  N1  UNK     1      20.907  -2.645  33.516  1.00  0.00    -0.107 N 
HETATM   14  O3  UNK     1      21.979  -2.035  33.407  1.00  0.00    -0.531 OA
HETATM   15  O4  UNK     1      20.737  -3.852  33.305  1.00  0.00    -0.531 OA
ENDBRANCH   7  13
TORSDOF 1
ENDMDL
MODEL 6
REMARK VINA RESULT:      -6.4      2.490      3.275
REMARK  1 active torsions:
REMARK  status: ('A' for Active; 'I' for Inactive)
REMARK    1  A    between atoms: C4_10  and  N1_6 
ROOT
HETATM    1 Cl1  UNK     1      18.114   1.309  33.362  1.00  0.00    -0.080 Cl
HETATM    2  O1  UNK     1      20.451  -2.380  32.022  1.00  0.00    -0.273 OA
HETATM    3  O2  UNK     1      20.368  -3.168  34.166  1.00  0.00    -0.257 OA
HETATM    4  C1  UNK     1      19.411  -0.231  31.467  1.00  0.00     0.022 A 
HETATM    5  C2  UNK     1      20.126  -1.372  31.087  1.00  0.00     0.091 A 
HETATM    6  C3  UNK     1      19.000  -0.099  32.873  1.00  0.00     0.086 A 
HETATM    7  C4  UNK     1      19.333  -1.081  33.719  1.00  0.00     0.200 A 
HETATM    8  C5  UNK     1      19.134   0.714  30.468  1.00  0.00     0.016 A 
HETATM    9  C6  UNK     1      20.558  -1.585  29.776  1.00  0.00     0.038 A 
HETATM   10  C7  UNK     1      20.082  -2.293  33.358  1.00  0.00     0.323 A 
HETATM   11  C8  UNK     1      19.562   0.514  29.150  1.00  0.00     0.001 A 
HETATM   12  C9  UNK     1      20.271  -0.633  28.804  1.00  0.00     0.003 A 
ENDROOT
BRANCH   7  13
HETATM   13  N1  UNK     1      18.932  -0.947  35.081  1.00  0.00    -0.107 N 
HETATM   14  O3  UNK     1      17.794  -1.332  35.375  1.00  0.00    -0.531 OA
HETATM   15  O4  UNK     1      19.754  -0.454  35.865  1.00  0.00    -0.531 OA
ENDBRANCH   7  13
TORSDOF 1
ENDMDL
MODEL 7
REMARK VINA RESULT:      -6.4      8.866      9.985
REMARK  1 active torsions:
REMARK  status: ('A' for Active; 'I' for Inactive)
REMARK    1  A    between atoms: C4_10  and  N1_6 
ROOT
HETATM    1 Cl1  UNK     1      18.480  -8.954  37.933  1.00  0.00    -0.080 Cl
HETATM    2  O1  UNK     1      21.321  -5.450  37.207  1.00  0.00    -0.273 OA
HETATM    3  O2  UNK     1      19.853  -4.626  35.660  1.00  0.00    -0.257 OA
HETATM    4  C1  UNK     1      20.807  -7.532  38.394  1.00  0.00     0.022 A 
HETATM    5  C2  UNK     1      21.657  -6.447  38.150  1.00  0.00     0.091 A 
HETATM    6  C3  UNK     1      19.545  -7.615  37.643  1.00  0.00     0.086 A 
HETATM    7  C4  UNK     1      19.274  -6.646  36.762  1.00  0.00     0.200 A 
HETATM    8  C5  UNK     1      21.226  -8.471  39.348  1.00  0.00     0.016 A 
HETATM    9  C6  UNK     1      22.874  -6.284  38.813  1.00  0.00     0.038 A 
HETATM   10  C7  UNK     1      20.140  -5.492  36.478  1.00  0.00     0.323 A 
HETATM   11  C8  UNK     1      22.444  -8.320  40.021  1.00  0.00     0.001 A 
HETATM   12  C9  UNK     1      23.267  -7.228  39.755  1.00  0.00     0.003 A 
ENDROOT
BRANCH   7  13
HETATM   13  N1  UNK     1      18.049  -6.732  36.036  1.00  0.00    -0.107 N 
HETATM   14  O3  UNK     1      17.045  -6.238  36.564  1.00  0.00    -0.531 OA
HETATM   15  O4  UNK     1      18.084  -7.296  34.936  1.00  0.00    -0.531 OA
ENDBRANCH   7  13
TORSDOF 1
ENDMDL
MODEL 8
REMARK VINA RESULT:      -6.3     24.454     25.761
REMARK  1 active torsions:
REMARK  status: ('A' for Active; 'I' for Inactive)
REMARK    1  A    between atoms: C4_10  and  N1_6 
ROOT
HETATM    1 Cl1  UNK     1       9.319   6.565   6.080  1.00  0.00    -0.080 Cl
HETATM    2  O1  UNK     1      11.108   5.128  10.031  1.00  0.00    -0.273 OA
HETATM    3  O2  UNK     1       9.003   4.603  10.752  1.00  0.00    -0.257 OA
HETATM    4  C1  UNK     1      11.433   6.086   7.798  1.00  0.00     0.022 A 
HETATM    5  C2  UNK     1      11.951   5.638   9.018  1.00  0.00     0.091 A 
HETATM    6  C3  UNK     1       9.979   6.014   7.587  1.00  0.00     0.086 A 
HETATM    7  C4  UNK     1       9.224   5.523   8.577  1.00  0.00     0.200 A 
HETATM    8  C5  UNK     1      12.348   6.574   6.854  1.00  0.00     0.016 A 
HETATM    9  C6  UNK     1      13.316   5.667   9.309  1.00  0.00     0.038 A 
HETATM   10  C7  UNK     1       9.731   5.044   9.871  1.00  0.00     0.323 A 
HETATM   11  C8  UNK     1      13.720   6.610   7.132  1.00  0.00     0.001 A 
HETATM   12  C9  UNK     1      14.203   6.157   8.357  1.00  0.00     0.003 A 
ENDROOT
BRANCH   7  13
HETATM   13  N1  UNK     1       7.815   5.457   8.366  1.00  0.00    -0.107 N 
HETATM   14  O3  UNK     1       7.354   4.380   7.969  1.00  0.00    -0.531 OA
HETATM   15  O4  UNK     1       7.162   6.483   8.596  1.00  0.00    -0.531 OA
ENDBRANCH   7  13
TORSDOF 1
ENDMDL
MODEL 9
REMARK VINA RESULT:      -6.3     12.895     13.877
REMARK  1 active torsions:
REMARK  status: ('A' for Active; 'I' for Inactive)
REMARK    1  A    between atoms: C4_10  and  N1_6 
ROOT
HETATM    1 Cl1  UNK     1      28.703  -9.399  38.116  1.00  0.00    -0.080 Cl
HETATM    2  O1  UNK     1      28.004  -4.919  38.680  1.00  0.00    -0.273 OA
HETATM    3  O2  UNK     1      25.753  -5.314  38.738  1.00  0.00    -0.257 OA
HETATM    4  C1  UNK     1      29.567  -6.786  38.385  1.00  0.00     0.022 A 
HETATM    5  C2  UNK     1      29.320  -5.419  38.558  1.00  0.00     0.091 A 
HETATM    6  C3  UNK     1      28.416  -7.702  38.331  1.00  0.00     0.086 A 
HETATM    7  C4  UNK     1      27.191  -7.179  38.451  1.00  0.00     0.200 A 
HETATM    8  C5  UNK     1      30.906  -7.187  38.275  1.00  0.00     0.016 A 
HETATM    9  C6  UNK     1      30.347  -4.475  38.622  1.00  0.00     0.038 A 
HETATM   10  C7  UNK     1      26.893  -5.751  38.634  1.00  0.00     0.323 A 
HETATM   11  C8  UNK     1      31.945  -6.251  38.335  1.00  0.00     0.001 A 
HETATM   12  C9  UNK     1      31.667  -4.897  38.509  1.00  0.00     0.003 A 
ENDROOT
BRANCH   7  13
HETATM   13  N1  UNK     1      26.080  -8.072  38.397  1.00  0.00    -0.107 N 
HETATM   14  O3  UNK     1      25.727  -8.598  39.460  1.00  0.00    -0.531 OA
HETATM   15  O4  UNK     1      25.556  -8.254  37.291  1.00  0.00    -0.531 OA
ENDBRANCH   7  13
TORSDOF 1
ENDMDL
MODEL 10
REMARK VINA RESULT:      -6.3      9.257     10.419
REMARK  1 active torsions:
REMARK  status: ('A' for Active; 'I' for Inactive)
REMARK    1  A    between atoms: C4_10  and  N1_6 
ROOT
HETATM    1 Cl1  UNK     1      19.938  -6.230  39.478  1.00  0.00    -0.080 Cl
HETATM    2  O1  UNK     1      20.356  -8.573  35.579  1.00  0.00    -0.273 OA
HETATM    3  O2  UNK     1      20.743  -6.607  34.480  1.00  0.00    -0.257 OA
HETATM    4  C1  UNK     1      19.947  -8.565  37.996  1.00  0.00     0.022 A 
HETATM    5  C2  UNK     1      20.081  -9.254  36.786  1.00  0.00     0.091 A 
HETATM    6  C3  UNK     1      20.101  -7.101  37.987  1.00  0.00     0.086 A 
HETATM    7  C4  UNK     1      20.360  -6.504  36.818  1.00  0.00     0.200 A 
HETATM    8  C5  UNK     1      19.675  -9.326  39.142  1.00  0.00     0.016 A 
HETATM    9  C6  UNK     1      19.952 -10.641  36.696  1.00  0.00     0.038 A 
HETATM   10  C7  UNK     1      20.507  -7.194  35.529  1.00  0.00     0.323 A 
HETATM   11  C8  UNK     1      19.543 -10.718  39.066  1.00  0.00     0.001 A 
HETATM   12  C9  UNK     1      19.682 -11.375  37.846  1.00  0.00     0.003 A 
ENDROOT
BRANCH   7  13
HETATM   13  N1  UNK     1      20.506  -5.085  36.816  1.00  0.00    -0.107 N 
HETATM   14  O3  UNK     1      21.632  -4.634  37.061  1.00  0.00    -0.531 OA
HETATM   15  O4  UNK     1      19.497  -4.414  36.571  1.00  0.00    -0.531 OA
ENDBRANCH   7  13
TORSDOF 1
ENDMDL
