MODEL 1
REMARK VINA RESULT:     -10.2      0.000      0.000
REMARK  4 active torsions:
REMARK  status: ('A' for Active; 'I' for Inactive)
REMARK    1  A    between atoms: C15_20  and  O2_2 
REMARK    2  A    between atoms: C20_25  and  O2_2 
REMARK       I    between atoms: C10_15  and  N1_5 
REMARK    3  A    between atoms: C8_13  and  N1_5 
REMARK    4  A    between atoms: C10_15  and  C11_16 
ROOT
HETATM    1  O1  UNK     1      18.892  -0.277  33.176  1.00  0.00    -0.271 OA
HETATM    2  O4  UNK     1      18.475  -0.459  35.415  1.00  0.00    -0.259 OA
HETATM    3  C11 UNK     1      19.802  -2.162  34.439  1.00  0.00     0.108 A 
HETATM    4  C12 UNK     1      20.240  -1.967  32.065  1.00  0.00     0.002 A 
HETATM    5  C13 UNK     1      19.497  -0.791  32.014  1.00  0.00     0.123 A 
HETATM    6  C14 UNK     1      20.380  -2.655  33.338  1.00  0.00     0.037 A 
HETATM    7  C15 UNK     1      19.325  -0.083  30.826  1.00  0.00     0.103 A 
HETATM    8  C16 UNK     1      19.007  -0.914  34.409  1.00  0.00     0.304 A 
HETATM    9  C17 UNK     1      20.825  -2.446  30.890  1.00  0.00     0.014 A 
HETATM   10  C18 UNK     1      19.912  -0.568  29.660  1.00  0.00     0.040 A 
HETATM   11  C19 UNK     1      20.661  -1.746  29.691  1.00  0.00     0.004 A 
ENDROOT
BRANCH   3  12
HETATM   12  C10 UNK     1      20.002  -2.934  35.684  1.00  0.00     0.262 C 
HETATM   13  O3  UNK     1      20.451  -2.369  36.674  1.00  0.00    -0.267 OA
HETATM   14  N1  UNK     1      19.633  -4.274  35.546  1.00  0.00    -0.323 N 
HETATM   15  H10 UNK     1      19.259  -4.574  34.649  1.00  0.00     0.169 HD
BRANCH  14  16
HETATM   16  C8  UNK     1      19.690  -5.282  36.510  1.00  0.00     0.035 A 
HETATM   17  C6  UNK     1      20.848  -5.447  37.272  1.00  0.00     0.037 A 
HETATM   18  C4  UNK     1      20.874  -6.457  38.218  1.00  0.00    -0.050 A 
HETATM   19  C2  UNK     1      21.975  -6.802  39.170  1.00  0.00     0.039 C 
HETATM   20  C5  UNK     1      19.765  -7.288  38.417  1.00  0.00    -0.052 A 
HETATM   21  C1  UNK     1      21.553  -8.210  39.616  1.00  0.00     0.009 C 
HETATM   22  C3  UNK     1      20.021  -8.263  39.521  1.00  0.00     0.039 C 
HETATM   23  C7  UNK     1      18.607  -7.123  37.674  1.00  0.00     0.010 A 
HETATM   24  C9  UNK     1      18.577  -6.114  36.710  1.00  0.00     0.030 A 
ENDBRANCH  14  16
ENDBRANCH   3  12
BRANCH   7  25
HETATM   25  O2  UNK     1      18.597   1.065  30.791  1.00  0.00    -0.349 OA
BRANCH  25  26
HETATM   26  C20 UNK     1      18.932   2.017  29.781  1.00  0.00     0.171 C 
HETATM   27  C21 UNK     1      17.818   2.061  28.756  1.00  0.00     0.034 C 
ENDBRANCH  25  26
ENDBRANCH   7  25
TORSDOF 4
ENDMDL
MODEL 2
REMARK VINA RESULT:     -10.1      2.630      4.024
REMARK  4 active torsions:
REMARK  status: ('A' for Active; 'I' for Inactive)
REMARK    1  A    between atoms: C15_20  and  O2_2 
REMARK    2  A    between atoms: C20_25  and  O2_2 
REMARK       I    between atoms: C10_15  and  N1_5 
REMARK    3  A    between atoms: C8_13  and  N1_5 
REMARK    4  A    between atoms: C10_15  and  C11_16 
ROOT
HETATM    1  O1  UNK     1      19.470  -1.229  34.574  1.00  0.00    -0.271 OA
HETATM    2  O4  UNK     1      20.584  -3.174  34.133  1.00  0.00    -0.259 OA
HETATM    3  C11 UNK     1      19.660  -2.948  36.302  1.00  0.00     0.108 A 
HETATM    4  C12 UNK     1      18.482  -0.884  36.768  1.00  0.00     0.002 A 
HETATM    5  C13 UNK     1      18.744  -0.431  35.478  1.00  0.00     0.123 A 
HETATM    6  C14 UNK     1      18.970  -2.194  37.165  1.00  0.00     0.037 A 
HETATM    7  C15 UNK     1      18.304   0.815  35.035  1.00  0.00     0.103 A 
HETATM    8  C16 UNK     1      19.951  -2.487  34.926  1.00  0.00     0.304 A 
HETATM    9  C17 UNK     1      17.757  -0.063  37.636  1.00  0.00     0.014 A 
HETATM   10  C18 UNK     1      17.583   1.627  35.907  1.00  0.00     0.040 A 
HETATM   11  C19 UNK     1      17.310   1.189  37.204  1.00  0.00     0.004 A 
ENDROOT
BRANCH   3  12
HETATM   12  C10 UNK     1      20.113  -4.264  36.801  1.00  0.00     0.262 C 
HETATM   13  O3  UNK     1      20.952  -4.312  37.691  1.00  0.00    -0.267 OA
HETATM   14  N1  UNK     1      19.485  -5.327  36.147  1.00  0.00    -0.323 N 
HETATM   15  H10 UNK     1      18.793  -5.105  35.435  1.00  0.00     0.169 HD
BRANCH  14  16
HETATM   16  C8  UNK     1      19.672  -6.694  36.360  1.00  0.00     0.035 A 
HETATM   17  C6  UNK     1      20.677  -7.372  35.668  1.00  0.00     0.037 A 
HETATM   18  C4  UNK     1      20.834  -8.728  35.900  1.00  0.00    -0.050 A 
HETATM   19  C2  UNK     1      21.854  -9.652  35.314  1.00  0.00     0.039 C 
HETATM   20  C5  UNK     1      20.015  -9.403  36.813  1.00  0.00    -0.052 A 
HETATM   21  C1  UNK     1      21.237 -11.020  35.639  1.00  0.00     0.009 C 
HETATM   22  C3  UNK     1      20.413 -10.841  36.923  1.00  0.00     0.039 C 
HETATM   23  C7  UNK     1      19.024  -8.736  37.513  1.00  0.00     0.010 A 
HETATM   24  C9  UNK     1      18.851  -7.371  37.276  1.00  0.00     0.030 A 
ENDBRANCH  14  16
ENDBRANCH   3  12
BRANCH   7  25
HETATM   25  O2  UNK     1      18.567   1.245  33.772  1.00  0.00    -0.349 OA
BRANCH  25  26
HETATM   26  C20 UNK     1      18.224   2.595  33.459  1.00  0.00     0.171 C 
HETATM   27  C21 UNK     1      18.228   2.769  31.955  1.00  0.00     0.034 C 
ENDBRANCH  25  26
ENDBRANCH   7  25
TORSDOF 4
ENDMDL
MODEL 3
REMARK VINA RESULT:     -10.0      6.885     10.441
REMARK  4 active torsions:
REMARK  status: ('A' for Active; 'I' for Inactive)
REMARK    1  A    between atoms: C15_20  and  O2_2 
REMARK    2  A    between atoms: C20_25  and  O2_2 
REMARK       I    between atoms: C10_15  and  N1_5 
REMARK    3  A    between atoms: C8_13  and  N1_5 
REMARK    4  A    between atoms: C10_15  and  C11_16 
ROOT
HETATM    1  O1  UNK     1      16.772   7.818  32.807  1.00  0.00    -0.271 OA
HETATM    2  O4  UNK     1      15.775   5.955  31.937  1.00  0.00    -0.259 OA
HETATM    3  C11 UNK     1      18.025   5.725  32.641  1.00  0.00     0.108 A 
HETATM    4  C12 UNK     1      19.080   7.702  33.560  1.00  0.00     0.002 A 
HETATM    5  C13 UNK     1      17.909   8.429  33.368  1.00  0.00     0.123 A 
HETATM    6  C14 UNK     1      19.109   6.301  33.173  1.00  0.00     0.037 A 
HETATM    7  C15 UNK     1      17.816   9.775  33.718  1.00  0.00     0.103 A 
HETATM    8  C16 UNK     1      16.770   6.479  32.426  1.00  0.00     0.304 A 
HETATM    9  C17 UNK     1      20.189   8.344  34.120  1.00  0.00     0.014 A 
HETATM   10  C18 UNK     1      18.925  10.407  34.274  1.00  0.00     0.040 A 
HETATM   11  C19 UNK     1      20.108   9.693  34.476  1.00  0.00     0.004 A 
ENDROOT
BRANCH   3  12
HETATM   12  C10 UNK     1      18.154   4.297  32.280  1.00  0.00     0.262 C 
HETATM   13  O3  UNK     1      17.988   3.443  33.142  1.00  0.00    -0.267 OA
HETATM   14  N1  UNK     1      18.466   4.114  30.931  1.00  0.00    -0.323 N 
HETATM   15  H10 UNK     1      18.552   4.942  30.346  1.00  0.00     0.169 HD
BRANCH  14  16
HETATM   16  C8  UNK     1      18.661   2.910  30.253  1.00  0.00     0.035 A 
HETATM   17  C6  UNK     1      19.557   1.967  30.760  1.00  0.00     0.037 A 
HETATM   18  C4  UNK     1      19.730   0.784  30.062  1.00  0.00    -0.050 A 
HETATM   19  C2  UNK     1      20.597  -0.381  30.421  1.00  0.00     0.039 C 
HETATM   20  C5  UNK     1      19.018   0.530  28.883  1.00  0.00    -0.052 A 
HETATM   21  C1  UNK     1      20.654  -1.134  29.084  1.00  0.00     0.009 C 
HETATM   22  C3  UNK     1      19.341  -0.828  28.347  1.00  0.00     0.039 C 
HETATM   23  C7  UNK     1      18.118   1.454  28.380  1.00  0.00     0.010 A 
HETATM   24  C9  UNK     1      17.947   2.656  29.071  1.00  0.00     0.030 A 
ENDBRANCH  14  16
ENDBRANCH   3  12
BRANCH   7  25
HETATM   25  O2  UNK     1      16.665  10.473  33.525  1.00  0.00    -0.349 OA
BRANCH  25  26
HETATM   26  C20 UNK     1      15.972  10.920  34.690  1.00  0.00     0.171 C 
HETATM   27  C21 UNK     1      14.854   9.948  35.002  1.00  0.00     0.034 C 
ENDBRANCH  25  26
ENDBRANCH   7  25
TORSDOF 4
ENDMDL
MODEL 4
REMARK VINA RESULT:      -9.7      5.100     10.631
REMARK  4 active torsions:
REMARK  status: ('A' for Active; 'I' for Inactive)
REMARK    1  A    between atoms: C15_20  and  O2_2 
REMARK    2  A    between atoms: C20_25  and  O2_2 
REMARK       I    between atoms: C10_15  and  N1_5 
REMARK    3  A    between atoms: C8_13  and  N1_5 
REMARK    4  A    between atoms: C10_15  and  C11_16 
ROOT
HETATM    1  O1  UNK     1      18.698   0.774  32.607  1.00  0.00    -0.271 OA
HETATM    2  O4  UNK     1      17.881   2.651  33.623  1.00  0.00    -0.259 OA
HETATM    3  C11 UNK     1      18.592   2.884  31.375  1.00  0.00     0.108 A 
HETATM    4  C12 UNK     1      19.460   0.892  30.302  1.00  0.00     0.002 A 
HETATM    5  C13 UNK     1      19.245   0.159  31.465  1.00  0.00     0.123 A 
HETATM    6  C14 UNK     1      19.111   2.304  30.287  1.00  0.00     0.037 A 
HETATM    7  C15 UNK     1      19.557  -1.197  31.546  1.00  0.00     0.103 A 
HETATM    8  C16 UNK     1      18.355   2.123  32.623  1.00  0.00     0.304 A 
HETATM    9  C17 UNK     1      20.005   0.247  29.189  1.00  0.00     0.014 A 
HETATM   10  C18 UNK     1      20.100  -1.832  30.432  1.00  0.00     0.040 A 
HETATM   11  C19 UNK     1      20.322  -1.113  29.256  1.00  0.00     0.004 A 
ENDROOT
BRANCH   3  12
HETATM   12  C10 UNK     1      18.271   4.321  31.260  1.00  0.00     0.262 C 
HETATM   13  O3  UNK     1      18.664   4.948  30.283  1.00  0.00    -0.267 OA
HETATM   14  N1  UNK     1      17.523   4.789  32.343  1.00  0.00    -0.323 N 
HETATM   15  H10 UNK     1      17.265   4.122  33.066  1.00  0.00     0.169 HD
BRANCH  14  16
HETATM   16  C8  UNK     1      17.050   6.085  32.561  1.00  0.00     0.035 A 
HETATM   17  C6  UNK     1      17.890   7.041  33.135  1.00  0.00     0.037 A 
HETATM   18  C4  UNK     1      17.390   8.315  33.342  1.00  0.00    -0.050 A 
HETATM   19  C2  UNK     1      18.101   9.506  33.900  1.00  0.00     0.039 C 
HETATM   20  C5  UNK     1      16.079   8.644  32.974  1.00  0.00    -0.052 A 
HETATM   21  C1  UNK     1      16.920  10.426  34.240  1.00  0.00     0.009 C 
HETATM   22  C3  UNK     1      15.794  10.086  33.252  1.00  0.00     0.039 C 
HETATM   23  C7  UNK     1      15.244   7.706  32.393  1.00  0.00     0.010 A 
HETATM   24  C9  UNK     1      15.736   6.414  32.193  1.00  0.00     0.030 A 
ENDBRANCH  14  16
ENDBRANCH   3  12
BRANCH   7  25
HETATM   25  O2  UNK     1      19.341  -1.901  32.689  1.00  0.00    -0.349 OA
BRANCH  25  26
HETATM   26  C20 UNK     1      20.489  -2.422  33.359  1.00  0.00     0.171 C 
HETATM   27  C21 UNK     1      20.222  -2.445  34.849  1.00  0.00     0.034 C 
ENDBRANCH  25  26
ENDBRANCH   7  25
TORSDOF 4
ENDMDL
MODEL 5
REMARK VINA RESULT:      -9.7      3.450      8.977
REMARK  4 active torsions:
REMARK  status: ('A' for Active; 'I' for Inactive)
REMARK    1  A    between atoms: C15_20  and  O2_2 
REMARK    2  A    between atoms: C20_25  and  O2_2 
REMARK       I    between atoms: C10_15  and  N1_5 
REMARK    3  A    between atoms: C8_13  and  N1_5 
REMARK    4  A    between atoms: C10_15  and  C11_16 
ROOT
HETATM    1  O1  UNK     1      20.157  -7.682  35.879  1.00  0.00    -0.271 OA
HETATM    2  O4  UNK     1      20.238  -5.897  34.455  1.00  0.00    -0.259 OA
HETATM    3  C11 UNK     1      20.153  -5.406  36.771  1.00  0.00     0.108 A 
HETATM    4  C12 UNK     1      20.065  -7.301  38.277  1.00  0.00     0.002 A 
HETATM    5  C13 UNK     1      20.097  -8.176  37.196  1.00  0.00     0.123 A 
HETATM    6  C14 UNK     1      20.096  -5.869  38.025  1.00  0.00     0.037 A 
HETATM    7  C15 UNK     1      20.070  -9.558  37.370  1.00  0.00     0.103 A 
HETATM    8  C16 UNK     1      20.187  -6.318  35.605  1.00  0.00     0.304 A 
HETATM    9  C17 UNK     1      20.004  -7.828  39.570  1.00  0.00     0.014 A 
HETATM   10  C18 UNK     1      20.010 -10.075  38.661  1.00  0.00     0.040 A 
HETATM   11  C19 UNK     1      19.978  -9.213  39.759  1.00  0.00     0.004 A 
ENDROOT
BRANCH   3  12
HETATM   12  C10 UNK     1      20.180  -3.936  36.618  1.00  0.00     0.262 C 
HETATM   13  O3  UNK     1      21.248  -3.375  36.404  1.00  0.00    -0.267 OA
HETATM   14  N1  UNK     1      18.913  -3.363  36.747  1.00  0.00    -0.323 N 
HETATM   15  H10 UNK     1      18.125  -3.985  36.908  1.00  0.00     0.169 HD
BRANCH  14  16
HETATM   16  C8  UNK     1      18.572  -2.012  36.662  1.00  0.00     0.035 A 
HETATM   17  C6  UNK     1      18.672  -1.347  35.439  1.00  0.00     0.037 A 
HETATM   18  C4  UNK     1      18.329  -0.007  35.389  1.00  0.00    -0.050 A 
HETATM   19  C2  UNK     1      18.318   0.899  34.199  1.00  0.00     0.039 C 
HETATM   20  C5  UNK     1      17.881   0.666  36.532  1.00  0.00    -0.052 A 
HETATM   21  C1  UNK     1      18.258   2.277  34.874  1.00  0.00     0.009 C 
HETATM   22  C3  UNK     1      17.527   2.084  36.211  1.00  0.00     0.039 C 
HETATM   23  C7  UNK     1      17.767   0.012  37.747  1.00  0.00     0.010 A 
HETATM   24  C9  UNK     1      18.123  -1.337  37.809  1.00  0.00     0.030 A 
ENDBRANCH  14  16
ENDBRANCH   3  12
BRANCH   7  25
HETATM   25  O2  UNK     1      20.102 -10.402  36.304  1.00  0.00    -0.349 OA
BRANCH  25  26
HETATM   26  C20 UNK     1      21.335 -11.071  36.040  1.00  0.00     0.171 C 
HETATM   27  C21 UNK     1      22.000 -10.427  34.842  1.00  0.00     0.034 C 
ENDBRANCH  25  26
ENDBRANCH   7  25
TORSDOF 4
ENDMDL
MODEL 6
REMARK VINA RESULT:      -9.7      6.950     10.503
REMARK  4 active torsions:
REMARK  status: ('A' for Active; 'I' for Inactive)
REMARK    1  A    between atoms: C15_20  and  O2_2 
REMARK    2  A    between atoms: C20_25  and  O2_2 
REMARK       I    between atoms: C10_15  and  N1_5 
REMARK    3  A    between atoms: C8_13  and  N1_5 
REMARK    4  A    between atoms: C10_15  and  C11_16 
ROOT
HETATM    1  O1  UNK     1      18.016   7.931  33.566  1.00  0.00    -0.271 OA
HETATM    2  O4  UNK     1      20.027   6.969  33.065  1.00  0.00    -0.259 OA
HETATM    3  C11 UNK     1      18.120   6.070  31.983  1.00  0.00     0.108 A 
HETATM    4  C12 UNK     1      15.990   7.092  32.519  1.00  0.00     0.002 A 
HETATM    5  C13 UNK     1      16.621   7.980  33.384  1.00  0.00     0.123 A 
HETATM    6  C14 UNK     1      16.795   6.113  31.805  1.00  0.00     0.037 A 
HETATM    7  C15 UNK     1      15.908   8.942  34.097  1.00  0.00     0.103 A 
HETATM    8  C16 UNK     1      18.813   7.005  32.899  1.00  0.00     0.304 A 
HETATM    9  C17 UNK     1      14.603   7.171  32.364  1.00  0.00     0.014 A 
HETATM   10  C18 UNK     1      14.526   9.014  33.937  1.00  0.00     0.040 A 
HETATM   11  C19 UNK     1      13.875   8.132  33.072  1.00  0.00     0.004 A 
ENDROOT
BRANCH   3  12
HETATM   12  C10 UNK     1      18.850   5.041  31.214  1.00  0.00     0.262 C 
HETATM   13  O3  UNK     1      19.981   5.282  30.812  1.00  0.00    -0.267 OA
HETATM   14  N1  UNK     1      18.103   3.873  31.044  1.00  0.00    -0.323 N 
HETATM   15  H10 UNK     1      17.177   3.836  31.463  1.00  0.00     0.169 HD
BRANCH  14  16
HETATM   16  C8  UNK     1      18.477   2.707  30.373  1.00  0.00     0.035 A 
HETATM   17  C6  UNK     1      19.314   1.784  31.002  1.00  0.00     0.037 A 
HETATM   18  C4  UNK     1      19.668   0.640  30.308  1.00  0.00    -0.050 A 
HETATM   19  C2  UNK     1      20.514  -0.500  30.780  1.00  0.00     0.039 C 
HETATM   20  C5  UNK     1      19.192   0.404  29.013  1.00  0.00    -0.052 A 
HETATM   21  C1  UNK     1      20.847  -1.194  29.451  1.00  0.00     0.009 C 
HETATM   22  C3  UNK     1      19.674  -0.915  28.500  1.00  0.00     0.039 C 
HETATM   23  C7  UNK     1      18.351   1.308  28.386  1.00  0.00     0.010 A 
HETATM   24  C9  UNK     1      17.999   2.471  29.074  1.00  0.00     0.030 A 
ENDBRANCH  14  16
ENDBRANCH   3  12
BRANCH   7  25
HETATM   25  O2  UNK     1      16.537   9.804  34.939  1.00  0.00    -0.349 OA
BRANCH  25  26
HETATM   26  C20 UNK     1      16.599  11.173  34.541  1.00  0.00     0.171 C 
HETATM   27  C21 UNK     1      18.015  11.500  34.117  1.00  0.00     0.034 C 
ENDBRANCH  25  26
ENDBRANCH   7  25
TORSDOF 4
ENDMDL
MODEL 7
REMARK VINA RESULT:      -9.5      5.062     10.576
REMARK  4 active torsions:
REMARK  status: ('A' for Active; 'I' for Inactive)
REMARK    1  A    between atoms: C15_20  and  O2_2 
REMARK    2  A    between atoms: C20_25  and  O2_2 
REMARK       I    between atoms: C10_15  and  N1_5 
REMARK    3  A    between atoms: C8_13  and  N1_5 
REMARK    4  A    between atoms: C10_15  and  C11_16 
ROOT
HETATM    1  O1  UNK     1      18.738   0.621  32.674  1.00  0.00    -0.271 OA
HETATM    2  O4  UNK     1      17.923   2.465  33.750  1.00  0.00    -0.259 OA
HETATM    3  C11 UNK     1      18.624   2.767  31.508  1.00  0.00     0.108 A 
HETATM    4  C12 UNK     1      19.490   0.811  30.371  1.00  0.00     0.002 A 
HETATM    5  C13 UNK     1      19.280   0.042  31.512  1.00  0.00     0.123 A 
HETATM    6  C14 UNK     1      19.139   2.222  30.400  1.00  0.00     0.037 A 
HETATM    7  C15 UNK     1      19.595  -1.315  31.550  1.00  0.00     0.103 A 
HETATM    8  C16 UNK     1      18.394   1.969  32.733  1.00  0.00     0.304 A 
HETATM    9  C17 UNK     1      20.030   0.200  29.236  1.00  0.00     0.014 A 
HETATM   10  C18 UNK     1      20.133  -1.916  30.414  1.00  0.00     0.040 A 
HETATM   11  C19 UNK     1      20.350  -1.161  29.260  1.00  0.00     0.004 A 
ENDROOT
BRANCH   3  12
HETATM   12  C10 UNK     1      18.301   4.208  31.438  1.00  0.00     0.262 C 
HETATM   13  O3  UNK     1      18.253   4.759  30.345  1.00  0.00    -0.267 OA
HETATM   14  N1  UNK     1      18.085   4.767  32.699  1.00  0.00    -0.323 N 
HETATM   15  H10 UNK     1      18.149   4.155  33.508  1.00  0.00     0.169 HD
BRANCH  14  16
HETATM   16  C8  UNK     1      17.764   6.091  33.004  1.00  0.00     0.035 A 
HETATM   17  C6  UNK     1      16.445   6.531  32.876  1.00  0.00     0.037 A 
HETATM   18  C4  UNK     1      16.160   7.850  33.184  1.00  0.00    -0.050 A 
HETATM   19  C2  UNK     1      14.831   8.537  33.162  1.00  0.00     0.039 C 
HETATM   20  C5  UNK     1      17.163   8.722  33.625  1.00  0.00    -0.052 A 
HETATM   21  C1  UNK     1      15.257  10.012  33.191  1.00  0.00     0.009 C 
HETATM   22  C3  UNK     1      16.598  10.071  33.938  1.00  0.00     0.039 C 
HETATM   23  C7  UNK     1      18.472   8.291  33.766  1.00  0.00     0.010 A 
HETATM   24  C9  UNK     1      18.770   6.965  33.446  1.00  0.00     0.030 A 
ENDBRANCH  14  16
ENDBRANCH   3  12
BRANCH   7  25
HETATM   25  O2  UNK     1      19.385  -2.055  32.671  1.00  0.00    -0.349 OA
BRANCH  25  26
HETATM   26  C20 UNK     1      20.537  -2.461  33.408  1.00  0.00     0.171 C 
HETATM   27  C21 UNK     1      20.210  -2.440  34.886  1.00  0.00     0.034 C 
ENDBRANCH  25  26
ENDBRANCH   7  25
TORSDOF 4
ENDMDL
MODEL 8
REMARK VINA RESULT:      -9.2      3.585      8.978
REMARK  4 active torsions:
REMARK  status: ('A' for Active; 'I' for Inactive)
REMARK    1  A    between atoms: C15_20  and  O2_2 
REMARK    2  A    between atoms: C20_25  and  O2_2 
REMARK       I    between atoms: C10_15  and  N1_5 
REMARK    3  A    between atoms: C8_13  and  N1_5 
REMARK    4  A    between atoms: C10_15  and  C11_16 
ROOT
HETATM    1  O1  UNK     1      20.268  -7.798  35.973  1.00  0.00    -0.271 OA
HETATM    2  O4  UNK     1      20.413  -6.064  34.492  1.00  0.00    -0.259 OA
HETATM    3  C11 UNK     1      20.223  -5.491  36.782  1.00  0.00     0.108 A 
HETATM    4  C12 UNK     1      20.067  -7.331  38.350  1.00  0.00     0.002 A 
HETATM    5  C13 UNK     1      20.148  -8.244  37.303  1.00  0.00     0.123 A 
HETATM    6  C14 UNK     1      20.109  -5.909  38.048  1.00  0.00     0.037 A 
HETATM    7  C15 UNK     1      20.113  -9.619  37.525  1.00  0.00     0.103 A 
HETATM    8  C16 UNK     1      20.310  -6.444  35.653  1.00  0.00     0.304 A 
HETATM    9  C17 UNK     1      19.948  -7.812  39.657  1.00  0.00     0.014 A 
HETATM   10  C18 UNK     1      19.995 -10.090  38.830  1.00  0.00     0.040 A 
HETATM   11  C19 UNK     1      19.913  -9.189  39.894  1.00  0.00     0.004 A 
ENDROOT
BRANCH   3  12
HETATM   12  C10 UNK     1      20.258  -4.027  36.578  1.00  0.00     0.262 C 
HETATM   13  O3  UNK     1      21.339  -3.460  36.480  1.00  0.00    -0.267 OA
HETATM   14  N1  UNK     1      18.980  -3.466  36.524  1.00  0.00    -0.323 N 
HETATM   15  H10 UNK     1      18.182  -4.092  36.607  1.00  0.00     0.169 HD
BRANCH  14  16
HETATM   16  C8  UNK     1      18.640  -2.124  36.346  1.00  0.00     0.035 A 
HETATM   17  C6  UNK     1      18.238  -1.360  37.442  1.00  0.00     0.037 A 
HETATM   18  C4  UNK     1      17.905  -0.032  37.231  1.00  0.00    -0.050 A 
HETATM   19  C2  UNK     1      17.487   0.986  38.243  1.00  0.00     0.039 C 
HETATM   20  C5  UNK     1      17.981   0.536  35.954  1.00  0.00    -0.052 A 
HETATM   21  C1  UNK     1      16.886   2.074  37.340  1.00  0.00     0.009 C 
HETATM   22  C3  UNK     1      17.620   1.987  35.994  1.00  0.00     0.039 C 
HETATM   23  C7  UNK     1      18.391  -0.211  34.863  1.00  0.00     0.010 A 
HETATM   24  C9  UNK     1      18.716  -1.554  35.065  1.00  0.00     0.030 A 
ENDBRANCH  14  16
ENDBRANCH   3  12
BRANCH   7  25
HETATM   25  O2  UNK     1      20.193 -10.500  36.492  1.00  0.00    -0.349 OA
BRANCH  25  26
HETATM   26  C20 UNK     1      21.482 -11.034  36.191  1.00  0.00     0.171 C 
HETATM   27  C21 UNK     1      21.852 -10.659  34.771  1.00  0.00     0.034 C 
ENDBRANCH  25  26
ENDBRANCH   7  25
TORSDOF 4
ENDMDL
MODEL 9
REMARK VINA RESULT:      -9.1      2.098      9.104
REMARK  4 active torsions:
REMARK  status: ('A' for Active; 'I' for Inactive)
REMARK    1  A    between atoms: C15_20  and  O2_2 
REMARK    2  A    between atoms: C20_25  and  O2_2 
REMARK       I    between atoms: C10_15  and  N1_5 
REMARK    3  A    between atoms: C8_13  and  N1_5 
REMARK    4  A    between atoms: C10_15  and  C11_16 
ROOT
HETATM    1  O1  UNK     1      19.350  -6.639  37.818  1.00  0.00    -0.271 OA
HETATM    2  O4  UNK     1      18.095  -5.204  36.559  1.00  0.00    -0.259 OA
HETATM    3  C11 UNK     1      20.309  -4.523  37.056  1.00  0.00     0.108 A 
HETATM    4  C12 UNK     1      21.636  -6.046  38.393  1.00  0.00     0.002 A 
HETATM    5  C13 UNK     1      20.569  -6.938  38.455  1.00  0.00     0.123 A 
HETATM    6  C14 UNK     1      21.470  -4.801  37.660  1.00  0.00     0.037 A 
HETATM    7  C15 UNK     1      20.663  -8.147  39.141  1.00  0.00     0.103 A 
HETATM    8  C16 UNK     1      19.161  -5.456  37.110  1.00  0.00     0.304 A 
HETATM    9  C17 UNK     1      22.830  -6.377  39.039  1.00  0.00     0.014 A 
HETATM   10  C18 UNK     1      21.857  -8.469  39.782  1.00  0.00     0.040 A 
HETATM   11  C19 UNK     1      22.938  -7.587  39.730  1.00  0.00     0.004 A 
ENDROOT
BRANCH   3  12
HETATM   12  C10 UNK     1      20.239  -3.234  36.336  1.00  0.00     0.262 C 
HETATM   13  O3  UNK     1      20.515  -2.199  36.931  1.00  0.00    -0.267 OA
HETATM   14  N1  UNK     1      19.845  -3.387  35.005  1.00  0.00    -0.323 N 
HETATM   15  H10 UNK     1      19.669  -4.330  34.667  1.00  0.00     0.169 HD
BRANCH  14  16
HETATM   16  C8  UNK     1      19.673  -2.391  34.043  1.00  0.00     0.035 A 
HETATM   17  C6  UNK     1      20.294  -2.516  32.798  1.00  0.00     0.037 A 
HETATM   18  C4  UNK     1      20.106  -1.509  31.867  1.00  0.00    -0.050 A 
HETATM   19  C2  UNK     1      20.631  -1.437  30.468  1.00  0.00     0.039 C 
HETATM   20  C5  UNK     1      19.307  -0.397  32.157  1.00  0.00    -0.052 A 
HETATM   21  C1  UNK     1      20.426   0.052  30.150  1.00  0.00     0.009 C 
HETATM   22  C3  UNK     1      19.221   0.520  30.979  1.00  0.00     0.039 C 
HETATM   23  C7  UNK     1      18.678  -0.270  33.384  1.00  0.00     0.010 A 
HETATM   24  C9  UNK     1      18.871  -1.275  34.334  1.00  0.00     0.030 A 
ENDBRANCH  14  16
ENDBRANCH   3  12
BRANCH   7  25
HETATM   25  O2  UNK     1      19.613  -9.009  39.193  1.00  0.00    -0.349 OA
BRANCH  25  26
HETATM   26  C20 UNK     1      19.790 -10.288  38.584  1.00  0.00     0.171 C 
HETATM   27  C21 UNK     1      19.338 -10.214  37.141  1.00  0.00     0.034 C 
ENDBRANCH  25  26
ENDBRANCH   7  25
TORSDOF 4
ENDMDL
MODEL 10
REMARK VINA RESULT:      -9.0      2.016      2.509
REMARK  4 active torsions:
REMARK  status: ('A' for Active; 'I' for Inactive)
REMARK    1  A    between atoms: C15_20  and  O2_2 
REMARK    2  A    between atoms: C20_25  and  O2_2 
REMARK       I    between atoms: C10_15  and  N1_5 
REMARK    3  A    between atoms: C8_13  and  N1_5 
REMARK    4  A    between atoms: C10_15  and  C11_16 
ROOT
HETATM    1  O1  UNK     1      18.425  -0.839  34.959  1.00  0.00    -0.271 OA
HETATM    2  O4  UNK     1      18.319  -1.933  36.963  1.00  0.00    -0.259 OA
HETATM    3  C11 UNK     1      19.712  -2.890  35.302  1.00  0.00     0.108 A 
HETATM    4  C12 UNK     1      19.820  -1.729  33.179  1.00  0.00     0.002 A 
HETATM    5  C13 UNK     1      18.938  -0.761  33.651  1.00  0.00     0.123 A 
HETATM    6  C14 UNK     1      20.203  -2.821  34.059  1.00  0.00     0.037 A 
HETATM    7  C15 UNK     1      18.531   0.310  32.858  1.00  0.00     0.103 A 
HETATM    8  C16 UNK     1      18.772  -1.873  35.825  1.00  0.00     0.304 A 
HETATM    9  C17 UNK     1      20.308  -1.618  31.874  1.00  0.00     0.014 A 
HETATM   10  C18 UNK     1      19.022   0.413  31.559  1.00  0.00     0.040 A 
HETATM   11  C19 UNK     1      19.909  -0.547  31.068  1.00  0.00     0.004 A 
ENDROOT
BRANCH   3  12
HETATM   12  C10 UNK     1      20.161  -4.037  36.120  1.00  0.00     0.262 C 
HETATM   13  O3  UNK     1      21.041  -3.870  36.955  1.00  0.00    -0.267 OA
HETATM   14  N1  UNK     1      19.480  -5.215  35.804  1.00  0.00    -0.323 N 
HETATM   15  H10 UNK     1      18.759  -5.170  35.088  1.00  0.00     0.169 HD
BRANCH  14  16
HETATM   16  C8  UNK     1      19.649  -6.479  36.372  1.00  0.00     0.035 A 
HETATM   17  C6  UNK     1      20.603  -7.353  35.848  1.00  0.00     0.037 A 
HETATM   18  C4  UNK     1      20.742  -8.600  36.432  1.00  0.00    -0.050 A 
HETATM   19  C2  UNK     1      21.711  -9.682  36.075  1.00  0.00     0.039 C 
HETATM   20  C5  UNK     1      19.957  -8.976  37.528  1.00  0.00    -0.052 A 
HETATM   21  C1  UNK     1      21.082 -10.891  36.786  1.00  0.00     0.009 C 
HETATM   22  C3  UNK     1      20.329 -10.343  38.007  1.00  0.00     0.039 C 
HETATM   23  C7  UNK     1      19.017  -8.111  38.063  1.00  0.00     0.010 A 
HETATM   24  C9  UNK     1      18.860  -6.856  37.472  1.00  0.00     0.030 A 
ENDBRANCH  14  16
ENDBRANCH   3  12
BRANCH   7  25
HETATM   25  O2  UNK     1      17.669   1.248  33.332  1.00  0.00    -0.349 OA
BRANCH  25  26
HETATM   26  C20 UNK     1      18.204   2.542  33.611  1.00  0.00     0.171 C 
HETATM   27  C21 UNK     1      18.548   2.626  35.083  1.00  0.00     0.034 C 
ENDBRANCH  25  26
ENDBRANCH   7  25
TORSDOF 4
ENDMDL
