MODEL 1
REMARK VINA RESULT:     -10.5      0.000      0.000
REMARK  5 active torsions:
REMARK  status: ('A' for Active; 'I' for Inactive)
REMARK    1  A    between atoms: C6_15  and  O1_4 
REMARK    2  A    between atoms: C7_16  and  O1_4 
REMARK       I    between atoms: C10_19  and  N1_9 
REMARK    3  A    between atoms: C3_12  and  N1_9 
REMARK    4  A    between atoms: C1_10  and  C7_16 
REMARK    5  A    between atoms: C10_19  and  C8_17 
ROOT
HETATM    1  S1  UNK     1      17.862  -0.566  36.920  1.00  0.00    -0.082 SA
HETATM    2  F1  UNK     1      21.469  -7.684  37.622  1.00  0.00    -0.206 F 
HETATM    3  C1  UNK     1      19.621  -1.786  35.500  1.00  0.00     0.085 A 
HETATM    4  C2  UNK     1      19.320  -2.656  36.587  1.00  0.00    -0.000 A 
HETATM    5  C3  UNK     1      18.899  -0.639  35.576  1.00  0.00     0.094 A 
HETATM    6  C4  UNK     1      19.876  -3.957  36.855  1.00  0.00    -0.024 A 
HETATM    7  C5  UNK     1      18.378  -2.116  37.436  1.00  0.00     0.065 A 
HETATM    8  C12 UNK     1      19.264  -5.094  36.332  1.00  0.00     0.015 A 
HETATM    9  C13 UNK     1      21.023  -4.073  37.636  1.00  0.00     0.015 A 
HETATM   10  C19 UNK     1      19.803  -6.354  36.592  1.00  0.00     0.043 A 
HETATM   11  C20 UNK     1      21.562  -5.333  37.895  1.00  0.00     0.043 A 
HETATM   12  C22 UNK     1      20.952  -6.473  37.373  1.00  0.00     0.116 A 
ENDROOT
BRANCH   5  13
HETATM   13  N1  UNK     1      18.876   0.476  34.733  1.00  0.00    -0.316 N 
HETATM   14  C10 UNK     1      17.748   1.048  34.162  1.00  0.00     0.262 C 
HETATM   15  O4  UNK     1      16.573   0.704  34.275  1.00  0.00    -0.267 OA
HETATM   16  H3  UNK     1      19.790   0.889  34.562  1.00  0.00     0.169 HD
BRANCH  14  17
HETATM   17  C8  UNK     1      18.085   2.208  33.329  1.00  0.00     0.108 A 
HETATM   18  C11 UNK     1      18.061   3.400  33.937  1.00  0.00     0.037 A 
HETATM   19  C9  UNK     1      18.381   4.609  33.193  1.00  0.00     0.001 A 
HETATM   20  C14 UNK     1      18.712   4.504  31.846  1.00  0.00     0.089 A 
HETATM   21  C18 UNK     1      18.368   5.874  33.788  1.00  0.00     0.038 A 
HETATM   22  O2  UNK     1      18.736   3.246  31.212  1.00  0.00    -0.274 OA
HETATM   23  C21 UNK     1      19.028   5.623  31.079  1.00  0.00     0.040 A 
HETATM   24  C17 UNK     1      18.434   2.073  31.897  1.00  0.00     0.304 A 
HETATM   25  O5  UNK     1      18.458   0.982  31.336  1.00  0.00    -0.259 OA
HETATM   26  C24 UNK     1      19.012   6.879  31.679  1.00  0.00     0.026 A 
HETATM   27  C23 UNK     1      18.684   7.006  33.030  1.00  0.00     0.035 A 
HETATM   28 Cl1  UNK     1      18.666   8.563  33.766  1.00  0.00    -0.084 Cl
ENDBRANCH  14  17
ENDBRANCH   5  13
BRANCH   3  29
HETATM   29  C7  UNK     1      20.563  -2.061  34.442  1.00  0.00     0.297 C 
HETATM   30  O3  UNK     1      21.790  -2.111  34.606  1.00  0.00    -0.259 OA
BRANCH  29  31
HETATM   31  O1  UNK     1      19.976  -2.271  33.214  1.00  0.00    -0.313 OA
BRANCH  31  32
HETATM   32  C6  UNK     1      20.856  -2.405  32.092  1.00  0.00     0.124 C 
HETATM   33  C15 UNK     1      21.213  -3.872  31.906  1.00  0.00     0.040 C 
HETATM   34  C16 UNK     1      20.183  -1.825  30.856  1.00  0.00     0.040 C 
ENDBRANCH  31  32
ENDBRANCH  29  31
ENDBRANCH   3  29
TORSDOF 5
ENDMDL
MODEL 2
REMARK VINA RESULT:      -9.4      7.662     11.130
REMARK  5 active torsions:
REMARK  status: ('A' for Active; 'I' for Inactive)
REMARK    1  A    between atoms: C6_15  and  O1_4 
REMARK    2  A    between atoms: C7_16  and  O1_4 
REMARK       I    between atoms: C10_19  and  N1_9 
REMARK    3  A    between atoms: C3_12  and  N1_9 
REMARK    4  A    between atoms: C1_10  and  C7_16 
REMARK    5  A    between atoms: C10_19  and  C8_17 
ROOT
HETATM    1  S1  UNK     1      19.814   8.547  34.413  1.00  0.00    -0.082 SA
HETATM    2  F1  UNK     1      18.746   2.489  29.283  1.00  0.00    -0.206 F 
HETATM    3  C1  UNK     1      17.903   7.921  32.814  1.00  0.00     0.085 A 
HETATM    4  C2  UNK     1      18.896   6.913  32.656  1.00  0.00    -0.000 A 
HETATM    5  C3  UNK     1      18.287   8.847  33.730  1.00  0.00     0.094 A 
HETATM    6  C4  UNK     1      18.858   5.768  31.783  1.00  0.00    -0.024 A 
HETATM    7  C5  UNK     1      19.989   7.131  33.466  1.00  0.00     0.065 A 
HETATM    8  C12 UNK     1      18.319   4.567  32.238  1.00  0.00     0.015 A 
HETATM    9  C13 UNK     1      19.359   5.867  30.487  1.00  0.00     0.015 A 
HETATM   10  C19 UNK     1      18.281   3.458  31.392  1.00  0.00     0.043 A 
HETATM   11  C20 UNK     1      19.321   4.758  29.642  1.00  0.00     0.043 A 
HETATM   12  C22 UNK     1      18.782   3.554  30.095  1.00  0.00     0.116 A 
ENDROOT
BRANCH   5  13
HETATM   13  N1  UNK     1      17.632   9.993  34.192  1.00  0.00    -0.316 N 
HETATM   14  C10 UNK     1      17.993  11.306  33.927  1.00  0.00     0.262 C 
HETATM   15  O4  UNK     1      18.934  11.722  33.253  1.00  0.00    -0.267 OA
HETATM   16  H3  UNK     1      16.807   9.803  34.756  1.00  0.00     0.169 HD
BRANCH  14  17
HETATM   17  C8  UNK     1      17.086  12.264  34.571  1.00  0.00     0.108 A 
HETATM   18  C11 UNK     1      15.900  11.783  34.963  1.00  0.00     0.037 A 
HETATM   19  C9  UNK     1      14.934  12.656  35.612  1.00  0.00     0.001 A 
HETATM   20  C14 UNK     1      15.264  13.992  35.817  1.00  0.00     0.089 A 
HETATM   21  C18 UNK     1      13.684  12.197  36.037  1.00  0.00     0.038 A 
HETATM   22  O2  UNK     1      16.514  14.491  35.403  1.00  0.00    -0.274 OA
HETATM   23  C21 UNK     1      14.383  14.879  36.432  1.00  0.00     0.040 A 
HETATM   24  C17 UNK     1      17.459  13.681  34.779  1.00  0.00     0.304 A 
HETATM   25  O5  UNK     1      18.545  14.125  34.422  1.00  0.00    -0.259 OA
HETATM   26  C24 UNK     1      13.139  14.413  36.852  1.00  0.00     0.026 A 
HETATM   27  C23 UNK     1      12.790  13.076  36.655  1.00  0.00     0.035 A 
HETATM   28 Cl1  UNK     1      11.251  12.506  37.178  1.00  0.00    -0.084 Cl
ENDBRANCH  14  17
ENDBRANCH   5  13
BRANCH   3  29
HETATM   29  C7  UNK     1      16.645   7.978  32.111  1.00  0.00     0.297 C 
HETATM   30  O3  UNK     1      16.507   8.463  30.979  1.00  0.00    -0.259 OA
BRANCH  29  31
HETATM   31  O1  UNK     1      15.589   7.437  32.812  1.00  0.00    -0.313 OA
BRANCH  31  32
HETATM   32  C6  UNK     1      14.378   8.201  32.847  1.00  0.00     0.124 C 
HETATM   33  C15 UNK     1      13.200   7.287  32.548  1.00  0.00     0.040 C 
HETATM   34  C16 UNK     1      14.246   8.868  34.208  1.00  0.00     0.040 C 
ENDBRANCH  31  32
ENDBRANCH  29  31
ENDBRANCH   3  29
TORSDOF 5
ENDMDL
MODEL 3
REMARK VINA RESULT:      -9.3     10.908     13.821
REMARK  5 active torsions:
REMARK  status: ('A' for Active; 'I' for Inactive)
REMARK    1  A    between atoms: C6_15  and  O1_4 
REMARK    2  A    between atoms: C7_16  and  O1_4 
REMARK       I    between atoms: C10_19  and  N1_9 
REMARK    3  A    between atoms: C3_12  and  N1_9 
REMARK    4  A    between atoms: C1_10  and  C7_16 
REMARK    5  A    between atoms: C10_19  and  C8_17 
ROOT
HETATM    1  S1  UNK     1      29.033  -5.102  39.015  1.00  0.00    -0.082 SA
HETATM    2  F1  UNK     1      36.312  -5.772  35.739  1.00  0.00    -0.206 F 
HETATM    3  C1  UNK     1      29.990  -6.606  37.165  1.00  0.00     0.085 A 
HETATM    4  C2  UNK     1      31.068  -5.785  37.603  1.00  0.00    -0.000 A 
HETATM    5  C3  UNK     1      28.852  -6.328  37.852  1.00  0.00     0.094 A 
HETATM    6  C4  UNK     1      32.425  -5.781  37.121  1.00  0.00    -0.024 A 
HETATM    7  C5  UNK     1      30.686  -4.920  38.605  1.00  0.00     0.065 A 
HETATM    8  C12 UNK     1      33.374  -6.609  37.715  1.00  0.00     0.015 A 
HETATM    9  C13 UNK     1      32.782  -4.951  36.061  1.00  0.00     0.015 A 
HETATM   10  C19 UNK     1      34.688  -6.605  37.248  1.00  0.00     0.043 A 
HETATM   11  C20 UNK     1      34.096  -4.947  35.594  1.00  0.00     0.043 A 
HETATM   12  C22 UNK     1      35.049  -5.775  36.187  1.00  0.00     0.116 A 
ENDROOT
BRANCH   5  13
HETATM   13  N1  UNK     1      27.573  -6.884  37.753  1.00  0.00    -0.316 N 
HETATM   14  C10 UNK     1      27.033  -7.849  38.591  1.00  0.00     0.262 C 
HETATM   15  O4  UNK     1      27.549  -8.397  39.564  1.00  0.00    -0.267 OA
HETATM   16  H3  UNK     1      27.011  -6.506  36.994  1.00  0.00     0.169 HD
BRANCH  14  17
HETATM   17  C8  UNK     1      25.665  -8.209  38.200  1.00  0.00     0.108 A 
HETATM   18  C11 UNK     1      24.679  -7.614  38.883  1.00  0.00     0.037 A 
HETATM   19  C9  UNK     1      23.289  -7.907  38.568  1.00  0.00     0.001 A 
HETATM   20  C14 UNK     1      23.005  -8.811  37.548  1.00  0.00     0.089 A 
HETATM   21  C18 UNK     1      22.228  -7.310  39.254  1.00  0.00     0.038 A 
HETATM   22  O2  UNK     1      24.047  -9.432  36.834  1.00  0.00    -0.274 OA
HETATM   23  C21 UNK     1      21.696  -9.134  37.198  1.00  0.00     0.040 A 
HETATM   24  C17 UNK     1      25.386  -9.174  37.113  1.00  0.00     0.304 A 
HETATM   25  O5  UNK     1      26.287  -9.720  36.485  1.00  0.00    -0.259 OA
HETATM   26  C24 UNK     1      20.645  -8.535  37.888  1.00  0.00     0.026 A 
HETATM   27  C23 UNK     1      20.909  -7.624  38.913  1.00  0.00     0.035 A 
HETATM   28 Cl1  UNK     1      19.605  -6.887  39.761  1.00  0.00    -0.084 Cl
ENDBRANCH  14  17
ENDBRANCH   5  13
BRANCH   3  29
HETATM   29  C7  UNK     1      30.066  -7.611  36.132  1.00  0.00     0.297 C 
HETATM   30  O3  UNK     1      30.216  -7.354  34.929  1.00  0.00    -0.259 OA
BRANCH  29  31
HETATM   31  O1  UNK     1      29.959  -8.902  36.601  1.00  0.00    -0.313 OA
BRANCH  31  32
HETATM   32  C6  UNK     1      31.166  -9.527  37.053  1.00  0.00     0.124 C 
HETATM   33  C15 UNK     1      30.954 -10.066  38.460  1.00  0.00     0.040 C 
HETATM   34  C16 UNK     1      31.555 -10.628  36.077  1.00  0.00     0.040 C 
ENDBRANCH  31  32
ENDBRANCH  29  31
ENDBRANCH   3  29
TORSDOF 5
ENDMDL
MODEL 4
REMARK VINA RESULT:      -9.3      1.631      2.078
REMARK  5 active torsions:
REMARK  status: ('A' for Active; 'I' for Inactive)
REMARK    1  A    between atoms: C6_15  and  O1_4 
REMARK    2  A    between atoms: C7_16  and  O1_4 
REMARK       I    between atoms: C10_19  and  N1_9 
REMARK    3  A    between atoms: C3_12  and  N1_9 
REMARK    4  A    between atoms: C1_10  and  C7_16 
REMARK    5  A    between atoms: C10_19  and  C8_17 
ROOT
HETATM    1  S1  UNK     1      17.590  -1.916  37.000  1.00  0.00    -0.082 SA
HETATM    2  F1  UNK     1      21.663  -8.777  36.288  1.00  0.00    -0.206 F 
HETATM    3  C1  UNK     1      19.712  -2.567  35.707  1.00  0.00     0.085 A 
HETATM    4  C2  UNK     1      19.283  -3.747  36.382  1.00  0.00    -0.000 A 
HETATM    5  C3  UNK     1      18.880  -1.526  35.966  1.00  0.00     0.094 A 
HETATM    6  C4  UNK     1      19.899  -5.048  36.358  1.00  0.00    -0.024 A 
HETATM    7  C5  UNK     1      18.141  -3.533  37.122  1.00  0.00     0.065 A 
HETATM    8  C12 UNK     1      19.521  -5.976  35.391  1.00  0.00     0.015 A 
HETATM    9  C13 UNK     1      20.870  -5.373  37.301  1.00  0.00     0.015 A 
HETATM   10  C19 UNK     1      20.118  -7.237  35.367  1.00  0.00     0.043 A 
HETATM   11  C20 UNK     1      21.466  -6.634  37.278  1.00  0.00     0.043 A 
HETATM   12  C22 UNK     1      21.090  -7.565  36.311  1.00  0.00     0.116 A 
ENDROOT
BRANCH   5  13
HETATM   13  N1  UNK     1      18.919  -0.201  35.519  1.00  0.00    -0.316 N 
HETATM   14  C10 UNK     1      17.991   0.410  34.687  1.00  0.00     0.262 C 
HETATM   15  O4  UNK     1      16.977  -0.071  34.186  1.00  0.00    -0.267 OA
HETATM   16  H3  UNK     1      19.705   0.336  35.876  1.00  0.00     0.169 HD
BRANCH  14  17
HETATM   17  C8  UNK     1      18.338   1.810  34.417  1.00  0.00     0.108 A 
HETATM   18  C11 UNK     1      18.165   2.230  33.158  1.00  0.00     0.037 A 
HETATM   19  C9  UNK     1      18.481   3.603  32.793  1.00  0.00     0.001 A 
HETATM   20  C14 UNK     1      18.963   4.466  33.772  1.00  0.00     0.089 A 
HETATM   21  C18 UNK     1      18.316   4.083  31.491  1.00  0.00     0.038 A 
HETATM   22  O2  UNK     1      19.141   4.019  35.095  1.00  0.00    -0.274 OA
HETATM   23  C21 UNK     1      19.284   5.792  33.487  1.00  0.00     0.040 A 
HETATM   24  C17 UNK     1      18.849   2.712  35.475  1.00  0.00     0.304 A 
HETATM   25  O5  UNK     1      19.008   2.331  36.629  1.00  0.00    -0.259 OA
HETATM   26  C24 UNK     1      19.117   6.262  32.187  1.00  0.00     0.026 A 
HETATM   27  C23 UNK     1      18.634   5.411  31.191  1.00  0.00     0.035 A 
HETATM   28 Cl1  UNK     1      18.430   6.000  29.585  1.00  0.00    -0.084 Cl
ENDBRANCH  14  17
ENDBRANCH   5  13
BRANCH   3  29
HETATM   29  C7  UNK     1      20.871  -2.463  34.854  1.00  0.00     0.297 C 
HETATM   30  O3  UNK     1      21.883  -1.809  35.142  1.00  0.00    -0.259 OA
BRANCH  29  31
HETATM   31  O1  UNK     1      20.760  -3.164  33.673  1.00  0.00    -0.313 OA
BRANCH  31  32
HETATM   32  C6  UNK     1      20.892  -2.413  32.461  1.00  0.00     0.124 C 
HETATM   33  C15 UNK     1      21.142  -3.368  31.304  1.00  0.00     0.040 C 
HETATM   34  C16 UNK     1      19.637  -1.581  32.248  1.00  0.00     0.040 C 
ENDBRANCH  31  32
ENDBRANCH  29  31
ENDBRANCH   3  29
TORSDOF 5
ENDMDL
MODEL 5
REMARK VINA RESULT:      -9.3     10.201     13.719
REMARK  5 active torsions:
REMARK  status: ('A' for Active; 'I' for Inactive)
REMARK    1  A    between atoms: C6_15  and  O1_4 
REMARK    2  A    between atoms: C7_16  and  O1_4 
REMARK       I    between atoms: C10_19  and  N1_9 
REMARK    3  A    between atoms: C3_12  and  N1_9 
REMARK    4  A    between atoms: C1_10  and  C7_16 
REMARK    5  A    between atoms: C10_19  and  C8_17 
ROOT
HETATM    1  S1  UNK     1      29.660  -9.550  38.312  1.00  0.00    -0.082 SA
HETATM    2  F1  UNK     1      36.139  -7.187  34.238  1.00  0.00    -0.206 F 
HETATM    3  C1  UNK     1      30.145  -7.516  36.819  1.00  0.00     0.085 A 
HETATM    4  C2  UNK     1      31.343  -8.287  36.838  1.00  0.00    -0.000 A 
HETATM    5  C3  UNK     1      29.178  -8.097  37.573  1.00  0.00     0.094 A 
HETATM    6  C4  UNK     1      32.584  -8.003  36.166  1.00  0.00    -0.024 A 
HETATM    7  C5  UNK     1      31.218  -9.419  37.612  1.00  0.00     0.065 A 
HETATM    8  C12 UNK     1      32.800  -8.482  34.876  1.00  0.00     0.015 A 
HETATM    9  C13 UNK     1      33.563  -7.248  36.807  1.00  0.00     0.015 A 
HETATM   10  C19 UNK     1      34.002  -8.207  34.224  1.00  0.00     0.043 A 
HETATM   11  C20 UNK     1      34.765  -6.972  36.155  1.00  0.00     0.043 A 
HETATM   12  C22 UNK     1      34.985  -7.452  34.864  1.00  0.00     0.116 A 
ENDROOT
BRANCH   5  13
HETATM   13  N1  UNK     1      27.864  -7.693  37.833  1.00  0.00    -0.316 N 
HETATM   14  C10 UNK     1      27.217  -7.751  39.059  1.00  0.00     0.262 C 
HETATM   15  O4  UNK     1      27.649  -8.158  40.137  1.00  0.00    -0.267 OA
HETATM   16  H3  UNK     1      27.379  -7.308  37.027  1.00  0.00     0.169 HD
BRANCH  14  17
HETATM   17  C8  UNK     1      25.842  -7.245  38.976  1.00  0.00     0.108 A 
HETATM   18  C11 UNK     1      24.869  -8.157  39.094  1.00  0.00     0.037 A 
HETATM   19  C9  UNK     1      23.473  -7.751  39.026  1.00  0.00     0.001 A 
HETATM   20  C14 UNK     1      23.171  -6.406  38.838  1.00  0.00     0.089 A 
HETATM   21  C18 UNK     1      22.425  -8.668  39.144  1.00  0.00     0.038 A 
HETATM   22  O2  UNK     1      24.199  -5.453  38.715  1.00  0.00    -0.274 OA
HETATM   23  C21 UNK     1      21.855  -5.954  38.763  1.00  0.00     0.040 A 
HETATM   24  C17 UNK     1      25.543  -5.809  38.775  1.00  0.00     0.304 A 
HETATM   25  O5  UNK     1      26.432  -4.972  38.667  1.00  0.00    -0.259 OA
HETATM   26  C24 UNK     1      20.816  -6.874  38.881  1.00  0.00     0.026 A 
HETATM   27  C23 UNK     1      21.100  -8.228  39.071  1.00  0.00     0.035 A 
HETATM   28 Cl1  UNK     1      19.811  -9.361  39.217  1.00  0.00    -0.084 Cl
ENDBRANCH  14  17
ENDBRANCH   5  13
BRANCH   3  29
HETATM   29  C7  UNK     1      29.955  -6.279  36.102  1.00  0.00     0.297 C 
HETATM   30  O3  UNK     1      30.088  -6.165  34.875  1.00  0.00    -0.259 OA
BRANCH  29  31
HETATM   31  O1  UNK     1      29.605  -5.216  36.905  1.00  0.00    -0.313 OA
BRANCH  31  32
HETATM   32  C6  UNK     1      30.580  -4.777  37.857  1.00  0.00     0.124 C 
HETATM   33  C15 UNK     1      31.639  -3.948  37.144  1.00  0.00     0.040 C 
HETATM   34  C16 UNK     1      29.887  -3.986  38.955  1.00  0.00     0.040 C 
ENDBRANCH  31  32
ENDBRANCH  29  31
ENDBRANCH   3  29
TORSDOF 5
ENDMDL
MODEL 6
REMARK VINA RESULT:      -9.2     10.931     13.430
REMARK  5 active torsions:
REMARK  status: ('A' for Active; 'I' for Inactive)
REMARK    1  A    between atoms: C6_15  and  O1_4 
REMARK    2  A    between atoms: C7_16  and  O1_4 
REMARK       I    between atoms: C10_19  and  N1_9 
REMARK    3  A    between atoms: C3_12  and  N1_9 
REMARK    4  A    between atoms: C1_10  and  C7_16 
REMARK    5  A    between atoms: C10_19  and  C8_17 
ROOT
HETATM    1  S1  UNK     1      28.442  -5.549  38.841  1.00  0.00    -0.082 SA
HETATM    2  F1  UNK     1      36.040  -5.715  36.310  1.00  0.00    -0.206 F 
HETATM    3  C1  UNK     1      29.671  -6.955  37.077  1.00  0.00     0.085 A 
HETATM    4  C2  UNK     1      30.647  -6.079  37.633  1.00  0.00    -0.000 A 
HETATM    5  C3  UNK     1      28.455  -6.759  37.648  1.00  0.00     0.094 A 
HETATM    6  C4  UNK     1      32.042  -5.985  37.291  1.00  0.00    -0.024 A 
HETATM    7  C5  UNK     1      30.113  -5.260  38.604  1.00  0.00     0.065 A 
HETATM    8  C12 UNK     1      32.977  -6.766  37.967  1.00  0.00     0.015 A 
HETATM    9  C13 UNK     1      32.452  -5.113  36.285  1.00  0.00     0.015 A 
HETATM   10  C19 UNK     1      34.328  -6.674  37.635  1.00  0.00     0.043 A 
HETATM   11  C20 UNK     1      33.803  -5.021  35.953  1.00  0.00     0.043 A 
HETATM   12  C22 UNK     1      34.742  -5.802  36.628  1.00  0.00     0.116 A 
ENDROOT
BRANCH   5  13
HETATM   13  N1  UNK     1      27.229  -7.389  37.412  1.00  0.00    -0.316 N 
HETATM   14  C10 UNK     1      26.554  -8.222  38.293  1.00  0.00     0.262 C 
HETATM   15  O4  UNK     1      26.882  -8.569  39.427  1.00  0.00    -0.267 OA
HETATM   16  H3  UNK     1      26.818  -7.176  36.507  1.00  0.00     0.169 HD
BRANCH  14  17
HETATM   17  C8  UNK     1      25.293  -8.714  37.724  1.00  0.00     0.108 A 
HETATM   18  C11 UNK     1      24.177  -8.110  38.150  1.00  0.00     0.037 A 
HETATM   19  C9  UNK     1      22.879  -8.528  37.642  1.00  0.00     0.001 A 
HETATM   20  C14 UNK     1      22.820  -9.559  36.710  1.00  0.00     0.089 A 
HETATM   21  C18 UNK     1      21.688  -7.926  38.058  1.00  0.00     0.038 A 
HETATM   22  O2  UNK     1      23.998 -10.189  36.265  1.00  0.00    -0.274 OA
HETATM   23  C21 UNK     1      21.609 -10.005  36.186  1.00  0.00     0.040 A 
HETATM   24  C17 UNK     1      25.254  -9.813  36.733  1.00  0.00     0.304 A 
HETATM   25  O5  UNK     1      26.275 -10.368  36.340  1.00  0.00    -0.259 OA
HETATM   26  C24 UNK     1      20.427  -9.401  36.606  1.00  0.00     0.026 A 
HETATM   27  C23 UNK     1      20.466  -8.364  37.540  1.00  0.00     0.035 A 
HETATM   28 Cl1  UNK     1      19.000  -7.620  38.056  1.00  0.00    -0.084 Cl
ENDBRANCH  14  17
ENDBRANCH   5  13
BRANCH   3  29
HETATM   29  C7  UNK     1      29.912  -7.932  36.043  1.00  0.00     0.297 C 
HETATM   30  O3  UNK     1      30.732  -8.855  36.144  1.00  0.00    -0.259 OA
BRANCH  29  31
HETATM   31  O1  UNK     1      29.141  -7.754  34.915  1.00  0.00    -0.313 OA
BRANCH  31  32
HETATM   32  C6  UNK     1      29.318  -6.526  34.199  1.00  0.00     0.124 C 
HETATM   33  C15 UNK     1      30.612  -6.594  33.401  1.00  0.00     0.040 C 
HETATM   34  C16 UNK     1      28.111  -6.291  33.303  1.00  0.00     0.040 C 
ENDBRANCH  31  32
ENDBRANCH  29  31
ENDBRANCH   3  29
TORSDOF 5
ENDMDL
MODEL 7
REMARK VINA RESULT:      -9.0     10.882     13.898
REMARK  5 active torsions:
REMARK  status: ('A' for Active; 'I' for Inactive)
REMARK    1  A    between atoms: C6_15  and  O1_4 
REMARK    2  A    between atoms: C7_16  and  O1_4 
REMARK       I    between atoms: C10_19  and  N1_9 
REMARK    3  A    between atoms: C3_12  and  N1_9 
REMARK    4  A    between atoms: C1_10  and  C7_16 
REMARK    5  A    between atoms: C10_19  and  C8_17 
ROOT
HETATM    1  S1  UNK     1      30.111  -9.911  38.518  1.00  0.00    -0.082 SA
HETATM    2  F1  UNK     1      36.313  -5.722  35.663  1.00  0.00    -0.206 F 
HETATM    3  C1  UNK     1      30.283  -7.894  36.936  1.00  0.00     0.085 A 
HETATM    4  C2  UNK     1      31.621  -8.227  37.298  1.00  0.00    -0.000 A 
HETATM    5  C3  UNK     1      29.393  -8.729  37.530  1.00  0.00     0.094 A 
HETATM    6  C4  UNK     1      32.834  -7.579  36.875  1.00  0.00    -0.024 A 
HETATM    7  C5  UNK     1      31.671  -9.306  38.154  1.00  0.00     0.065 A 
HETATM    8  C12 UNK     1      33.489  -8.014  35.725  1.00  0.00     0.015 A 
HETATM    9  C13 UNK     1      33.349  -6.520  37.618  1.00  0.00     0.015 A 
HETATM   10  C19 UNK     1      34.665  -7.386  35.316  1.00  0.00     0.043 A 
HETATM   11  C20 UNK     1      34.525  -5.891  37.208  1.00  0.00     0.043 A 
HETATM   12  C22 UNK     1      35.183  -6.325  36.057  1.00  0.00     0.116 A 
ENDROOT
BRANCH   5  13
HETATM   13  N1  UNK     1      27.997  -8.768  37.457  1.00  0.00    -0.316 N 
HETATM   14  C10 UNK     1      27.116  -8.566  38.510  1.00  0.00     0.262 C 
HETATM   15  O4  UNK     1      27.371  -8.320  39.688  1.00  0.00    -0.267 OA
HETATM   16  H3  UNK     1      27.633  -8.945  36.524  1.00  0.00     0.169 HD
BRANCH  14  17
HETATM   17  C8  UNK     1      25.717  -8.679  38.082  1.00  0.00     0.108 A 
HETATM   18  C11 UNK     1      24.828  -7.950  38.767  1.00  0.00     0.037 A 
HETATM   19  C9  UNK     1      23.417  -7.995  38.417  1.00  0.00     0.001 A 
HETATM   20  C14 UNK     1      23.011  -8.805  37.361  1.00  0.00     0.089 A 
HETATM   21  C18 UNK     1      22.454  -7.251  39.105  1.00  0.00     0.038 A 
HETATM   22  O2  UNK     1      23.951  -9.569  36.643  1.00  0.00    -0.274 OA
HETATM   23  C21 UNK     1      21.674  -8.893  36.976  1.00  0.00     0.040 A 
HETATM   24  C17 UNK     1      25.307  -9.547  36.955  1.00  0.00     0.304 A 
HETATM   25  O5  UNK     1      26.119 -10.216  36.324  1.00  0.00    -0.259 OA
HETATM   26  C24 UNK     1      20.722  -8.148  37.667  1.00  0.00     0.026 A 
HETATM   27  C23 UNK     1      21.110  -7.329  38.729  1.00  0.00     0.035 A 
HETATM   28 Cl1  UNK     1      19.927  -6.411  39.580  1.00  0.00    -0.084 Cl
ENDBRANCH  14  17
ENDBRANCH   5  13
BRANCH   3  29
HETATM   29  C7  UNK     1      29.896  -6.819  36.056  1.00  0.00     0.297 C 
HETATM   30  O3  UNK     1      30.145  -6.796  34.842  1.00  0.00    -0.259 OA
BRANCH  29  31
HETATM   31  O1  UNK     1      29.211  -5.802  36.684  1.00  0.00    -0.313 OA
BRANCH  31  32
HETATM   32  C6  UNK     1      29.798  -5.268  37.876  1.00  0.00     0.124 C 
HETATM   33  C15 UNK     1      30.490  -3.953  37.548  1.00  0.00     0.040 C 
HETATM   34  C16 UNK     1      28.717  -5.091  38.931  1.00  0.00     0.040 C 
ENDBRANCH  31  32
ENDBRANCH  29  31
ENDBRANCH   3  29
TORSDOF 5
ENDMDL
MODEL 8
REMARK VINA RESULT:      -9.0      7.947     11.234
REMARK  5 active torsions:
REMARK  status: ('A' for Active; 'I' for Inactive)
REMARK    1  A    between atoms: C6_15  and  O1_4 
REMARK    2  A    between atoms: C7_16  and  O1_4 
REMARK       I    between atoms: C10_19  and  N1_9 
REMARK    3  A    between atoms: C3_12  and  N1_9 
REMARK    4  A    between atoms: C1_10  and  C7_16 
REMARK    5  A    between atoms: C10_19  and  C8_17 
ROOT
HETATM    1  S1  UNK     1      19.541   8.552  34.576  1.00  0.00    -0.082 SA
HETATM    2  F1  UNK     1      18.724   2.654  29.217  1.00  0.00    -0.206 F 
HETATM    3  C1  UNK     1      17.819   8.092  32.726  1.00  0.00     0.085 A 
HETATM    4  C2  UNK     1      18.748   7.013  32.677  1.00  0.00    -0.000 A 
HETATM    5  C3  UNK     1      18.145   8.975  33.704  1.00  0.00     0.094 A 
HETATM    6  C4  UNK     1      18.742   5.885  31.782  1.00  0.00    -0.024 A 
HETATM    7  C5  UNK     1      19.737   7.138  33.629  1.00  0.00     0.065 A 
HETATM    8  C12 UNK     1      18.061   4.723  32.136  1.00  0.00     0.015 A 
HETATM    9  C13 UNK     1      19.417   5.962  30.567  1.00  0.00     0.015 A 
HETATM   10  C19 UNK     1      18.055   3.630  31.268  1.00  0.00     0.043 A 
HETATM   11  C20 UNK     1      19.411   4.869  29.699  1.00  0.00     0.043 A 
HETATM   12  C22 UNK     1      18.730   3.704  30.050  1.00  0.00     0.116 A 
ENDROOT
BRANCH   5  13
HETATM   13  N1  UNK     1      17.520  10.161  34.101  1.00  0.00    -0.316 N 
HETATM   14  C10 UNK     1      17.988  11.448  33.877  1.00  0.00     0.262 C 
HETATM   15  O4  UNK     1      19.017  11.801  33.303  1.00  0.00    -0.267 OA
HETATM   16  H3  UNK     1      16.632  10.025  34.579  1.00  0.00     0.169 HD
BRANCH  14  17
HETATM   17  C8  UNK     1      17.083  12.463  34.429  1.00  0.00     0.108 A 
HETATM   18  C11 UNK     1      17.420  13.739  34.207  1.00  0.00     0.037 A 
HETATM   19  C9  UNK     1      16.584  14.817  34.714  1.00  0.00     0.001 A 
HETATM   20  C14 UNK     1      15.434  14.498  35.430  1.00  0.00     0.089 A 
HETATM   21  C18 UNK     1      16.898  16.163  34.506  1.00  0.00     0.038 A 
HETATM   22  O2  UNK     1      15.085  13.153  35.659  1.00  0.00    -0.274 OA
HETATM   23  C21 UNK     1      14.593  15.483  35.942  1.00  0.00     0.040 A 
HETATM   24  C17 UNK     1      15.864  12.101  35.188  1.00  0.00     0.304 A 
HETATM   25  O5  UNK     1      15.552  10.933  35.393  1.00  0.00    -0.259 OA
HETATM   26  C24 UNK     1      14.913  16.822  35.731  1.00  0.00     0.026 A 
HETATM   27  C23 UNK     1      16.062  17.162  35.014  1.00  0.00     0.035 A 
HETATM   28 Cl1  UNK     1      16.452  18.819  34.756  1.00  0.00    -0.084 Cl
ENDBRANCH  14  17
ENDBRANCH   5  13
BRANCH   3  29
HETATM   29  C7  UNK     1      16.673   8.252  31.864  1.00  0.00     0.297 C 
HETATM   30  O3  UNK     1      16.728   8.206  30.627  1.00  0.00    -0.259 OA
BRANCH  29  31
HETATM   31  O1  UNK     1      15.491   8.461  32.540  1.00  0.00    -0.313 OA
BRANCH  31  32
HETATM   32  C6  UNK     1      14.795   7.297  33.001  1.00  0.00     0.124 C 
HETATM   33  C15 UNK     1      14.662   7.360  34.515  1.00  0.00     0.040 C 
HETATM   34  C16 UNK     1      13.439   7.221  32.316  1.00  0.00     0.040 C 
ENDBRANCH  31  32
ENDBRANCH  29  31
ENDBRANCH   3  29
TORSDOF 5
ENDMDL
MODEL 9
REMARK VINA RESULT:      -9.0     26.660     29.885
REMARK  5 active torsions:
REMARK  status: ('A' for Active; 'I' for Inactive)
REMARK    1  A    between atoms: C6_15  and  O1_4 
REMARK    2  A    between atoms: C7_16  and  O1_4 
REMARK       I    between atoms: C10_19  and  N1_9 
REMARK    3  A    between atoms: C3_12  and  N1_9 
REMARK    4  A    between atoms: C1_10  and  C7_16 
REMARK    5  A    between atoms: C10_19  and  C8_17 
ROOT
HETATM    1  S1  UNK     1      19.779  11.745  10.258  1.00  0.00    -0.082 SA
HETATM    2  F1  UNK     1      21.638  17.626   5.148  1.00  0.00    -0.206 F 
HETATM    3  C1  UNK     1      18.975  12.325   7.888  1.00  0.00     0.085 A 
HETATM    4  C2  UNK     1      19.933  13.322   8.236  1.00  0.00    -0.000 A 
HETATM    5  C3  UNK     1      18.814  11.430   8.896  1.00  0.00     0.094 A 
HETATM    6  C4  UNK     1      20.374  14.435   7.437  1.00  0.00    -0.024 A 
HETATM    7  C5  UNK     1      20.448  13.126   9.498  1.00  0.00     0.065 A 
HETATM    8  C12 UNK     1      21.467  14.289   6.586  1.00  0.00     0.015 A 
HETATM    9  C13 UNK     1      19.706  15.654   7.518  1.00  0.00     0.015 A 
HETATM   10  C19 UNK     1      21.894  15.368   5.812  1.00  0.00     0.043 A 
HETATM   11  C20 UNK     1      20.133  16.733   6.744  1.00  0.00     0.043 A 
HETATM   12  C22 UNK     1      21.227  16.590   5.891  1.00  0.00     0.116 A 
ENDROOT
BRANCH   5  13
HETATM   13  N1  UNK     1      17.989  10.304   8.985  1.00  0.00    -0.316 N 
HETATM   14  C10 UNK     1      16.801  10.214   9.698  1.00  0.00     0.262 C 
HETATM   15  O4  UNK     1      16.246  11.076  10.377  1.00  0.00    -0.267 OA
HETATM   16  H3  UNK     1      18.315   9.504   8.449  1.00  0.00     0.169 HD
BRANCH  14  17
HETATM   17  C8  UNK     1      16.190   8.885   9.576  1.00  0.00     0.108 A 
HETATM   18  C11 UNK     1      14.949   8.848   9.076  1.00  0.00     0.037 A 
HETATM   19  C9  UNK     1      14.260   7.576   8.917  1.00  0.00     0.001 A 
HETATM   20  C14 UNK     1      14.912   6.406   9.291  1.00  0.00     0.089 A 
HETATM   21  C18 UNK     1      12.965   7.491   8.400  1.00  0.00     0.038 A 
HETATM   22  O2  UNK     1      16.219   6.451   9.816  1.00  0.00    -0.274 OA
HETATM   23  C21 UNK     1      14.308   5.157   9.165  1.00  0.00     0.040 A 
HETATM   24  C17 UNK     1      16.903   7.652   9.981  1.00  0.00     0.304 A 
HETATM   25  O5  UNK     1      18.040   7.681  10.438  1.00  0.00    -0.259 OA
HETATM   26  C24 UNK     1      13.016   5.081   8.649  1.00  0.00     0.026 A 
HETATM   27  C23 UNK     1      12.346   6.245   8.267  1.00  0.00     0.035 A 
HETATM   28 Cl1  UNK     1      10.749   6.144   7.630  1.00  0.00    -0.084 Cl
ENDBRANCH  14  17
ENDBRANCH   5  13
BRANCH   3  29
HETATM   29  C7  UNK     1      18.258  12.250   6.639  1.00  0.00     0.297 C 
HETATM   30  O3  UNK     1      18.801  12.065   5.541  1.00  0.00    -0.259 OA
BRANCH  29  31
HETATM   31  O1  UNK     1      16.895  12.402   6.768  1.00  0.00    -0.313 OA
BRANCH  31  32
HETATM   32  C6  UNK     1      16.427  13.676   7.227  1.00  0.00     0.124 C 
HETATM   33  C15 UNK     1      16.409  14.653   6.061  1.00  0.00     0.040 C 
HETATM   34  C16 UNK     1      15.048  13.508   7.847  1.00  0.00     0.040 C 
ENDBRANCH  31  32
ENDBRANCH  29  31
ENDBRANCH   3  29
TORSDOF 5
ENDMDL
MODEL 10
REMARK VINA RESULT:      -8.8      9.729     12.482
REMARK  5 active torsions:
REMARK  status: ('A' for Active; 'I' for Inactive)
REMARK    1  A    between atoms: C6_15  and  O1_4 
REMARK    2  A    between atoms: C7_16  and  O1_4 
REMARK       I    between atoms: C10_19  and  N1_9 
REMARK    3  A    between atoms: C3_12  and  N1_9 
REMARK    4  A    between atoms: C1_10  and  C7_16 
REMARK    5  A    between atoms: C10_19  and  C8_17 
ROOT
HETATM    1  S1  UNK     1      27.251 -10.071  39.452  1.00  0.00    -0.082 SA
HETATM    2  F1  UNK     1      34.322  -7.887  36.388  1.00  0.00    -0.206 F 
HETATM    3  C1  UNK     1      27.959  -8.201  37.839  1.00  0.00     0.085 A 
HETATM    4  C2  UNK     1      29.151  -8.907  38.172  1.00  0.00    -0.000 A 
HETATM    5  C3  UNK     1      26.881  -8.737  38.466  1.00  0.00     0.094 A 
HETATM    6  C4  UNK     1      30.488  -8.644  37.711  1.00  0.00    -0.024 A 
HETATM    7  C5  UNK     1      28.909  -9.949  39.041  1.00  0.00     0.065 A 
HETATM    8  C12 UNK     1      30.956  -9.257  36.551  1.00  0.00     0.015 A 
HETATM    9  C13 UNK     1      31.310  -7.775  38.425  1.00  0.00     0.015 A 
HETATM   10  C19 UNK     1      32.252  -9.001  36.104  1.00  0.00     0.043 A 
HETATM   11  C20 UNK     1      32.606  -7.520  37.978  1.00  0.00     0.043 A 
HETATM   12  C22 UNK     1      33.077  -8.133  36.818  1.00  0.00     0.116 A 
ENDROOT
BRANCH   5  13
HETATM   13  N1  UNK     1      25.532  -8.368  38.429  1.00  0.00    -0.316 N 
HETATM   14  C10 UNK     1      24.579  -8.842  37.539  1.00  0.00     0.262 C 
HETATM   15  O4  UNK     1      24.716  -9.657  36.628  1.00  0.00    -0.267 OA
HETATM   16  H3  UNK     1      25.261  -7.704  39.149  1.00  0.00     0.169 HD
BRANCH  14  17
HETATM   17  C8  UNK     1      23.261  -8.243  37.780  1.00  0.00     0.108 A 
HETATM   18  C11 UNK     1      22.318  -8.499  36.865  1.00  0.00     0.037 A 
HETATM   19  C9  UNK     1      20.979  -7.950  37.018  1.00  0.00     0.001 A 
HETATM   20  C14 UNK     1      20.698  -7.159  38.127  1.00  0.00     0.089 A 
HETATM   21  C18 UNK     1      19.965  -8.192  36.087  1.00  0.00     0.038 A 
HETATM   22  O2  UNK     1      21.694  -6.894  39.087  1.00  0.00    -0.274 OA
HETATM   23  C21 UNK     1      19.437  -6.603  38.331  1.00  0.00     0.040 A 
HETATM   24  C17 UNK     1      22.984  -7.404  38.968  1.00  0.00     0.304 A 
HETATM   25  O5  UNK     1      23.844  -7.167  39.809  1.00  0.00    -0.259 OA
HETATM   26  C24 UNK     1      18.432  -6.848  37.398  1.00  0.00     0.026 A 
HETATM   27  C23 UNK     1      18.695  -7.641  36.279  1.00  0.00     0.035 A 
HETATM   28 Cl1  UNK     1      17.447  -7.940  35.130  1.00  0.00    -0.084 Cl
ENDBRANCH  14  17
ENDBRANCH   5  13
BRANCH   3  29
HETATM   29  C7  UNK     1      27.877  -7.065  36.954  1.00  0.00     0.297 C 
HETATM   30  O3  UNK     1      27.216  -7.052  35.906  1.00  0.00    -0.259 OA
BRANCH  29  31
HETATM   31  O1  UNK     1      28.603  -5.974  37.377  1.00  0.00    -0.313 OA
BRANCH  31  32
HETATM   32  C6  UNK     1      28.317  -5.476  38.689  1.00  0.00     0.124 C 
HETATM   33  C15 UNK     1      29.374  -4.453  39.079  1.00  0.00     0.040 C 
HETATM   34  C16 UNK     1      26.918  -4.878  38.703  1.00  0.00     0.040 C 
ENDBRANCH  31  32
ENDBRANCH  29  31
ENDBRANCH   3  29
TORSDOF 5
ENDMDL
