MODEL 1
REMARK VINA RESULT:      -8.8      0.000      0.000
REMARK  5 active torsions:
REMARK  status: ('A' for Active; 'I' for Inactive)
REMARK    1  A    between atoms: C13_18  and  O2_2 
REMARK    2  A    between atoms: C6_11  and  O2_2 
REMARK    3  A    between atoms: C3_8  and  N1_5 
REMARK       I    between atoms: C7_12  and  N1_5 
REMARK    4  A    between atoms: C2_7  and  C7_12 
REMARK    5  A    between atoms: C3_8  and  C6_11 
ROOT
HETATM    1  O3  UNK     1      17.962   3.191  28.606  1.00  0.00    -0.267 OA
HETATM    2  N1  UNK     1      19.218   4.256  30.255  1.00  0.00    -0.355 N 
HETATM    3  C7  UNK     1      18.650   3.164  29.624  1.00  0.00     0.257 C 
HETATM    4  H6  UNK     1      19.757   4.132  31.107  1.00  0.00     0.162 HD
ENDROOT
BRANCH   3   5
HETATM    5  C2  UNK     1      18.949   1.895  30.298  1.00  0.00     0.108 A 
HETATM    6  C5  UNK     1      19.578   0.970  29.564  1.00  0.00     0.037 A 
HETATM    7  C1  UNK     1      19.918  -0.320  30.144  1.00  0.00    -0.001 A 
HETATM    8  C4  UNK     1      19.576  -0.573  31.469  1.00  0.00     0.089 A 
HETATM    9  C8  UNK     1      20.575  -1.315  29.416  1.00  0.00     0.014 A 
HETATM   10  C10 UNK     1      19.872  -1.789  32.084  1.00  0.00     0.038 A 
HETATM   11  O1  UNK     1      18.913   0.404  32.236  1.00  0.00    -0.274 OA
HETATM   12  C12 UNK     1      20.526  -2.775  31.351  1.00  0.00     0.003 A 
HETATM   13  C11 UNK     1      20.877  -2.539  30.019  1.00  0.00     0.001 A 
HETATM   14  C9  UNK     1      18.576   1.648  31.709  1.00  0.00     0.304 A 
HETATM   15  O4  UNK     1      17.998   2.493  32.384  1.00  0.00    -0.259 OA
ENDBRANCH   3   5
BRANCH   2  16
HETATM   16  C3  UNK     1      19.065   5.611  29.776  1.00  0.00     0.149 C 
BRANCH  16  17
HETATM   17  C6  UNK     1      18.479   6.517  30.844  1.00  0.00     0.195 C 
BRANCH  17  18
HETATM   18  O2  UNK     1      17.722   5.737  31.762  1.00  0.00    -0.350 OA
BRANCH  18  19
HETATM   19  C13 UNK     1      16.826   6.410  32.550  1.00  0.00     0.068 A 
HETATM   20  C14 UNK     1      15.628   6.859  32.004  1.00  0.00     0.037 A 
HETATM   21  C16 UNK     1      14.717   7.544  32.807  1.00  0.00     0.003 A 
HETATM   22  C18 UNK     1      15.009   7.777  34.151  1.00  0.00     0.000 A 
HETATM   23  C17 UNK     1      16.213   7.324  34.692  1.00  0.00     0.003 A 
HETATM   24  C15 UNK     1      17.124   6.639  33.889  1.00  0.00     0.037 A 
ENDBRANCH  18  19
ENDBRANCH  17  18
ENDBRANCH  16  17
ENDBRANCH   2  16
TORSDOF 5
ENDMDL
MODEL 2
REMARK VINA RESULT:      -8.7      6.647     10.164
REMARK  5 active torsions:
REMARK  status: ('A' for Active; 'I' for Inactive)
REMARK    1  A    between atoms: C13_18  and  O2_2 
REMARK    2  A    between atoms: C6_11  and  O2_2 
REMARK    3  A    between atoms: C3_8  and  N1_5 
REMARK       I    between atoms: C7_12  and  N1_5 
REMARK    4  A    between atoms: C2_7  and  C7_12 
REMARK    5  A    between atoms: C3_8  and  C6_11 
ROOT
HETATM    1  O3  UNK     1      21.196  -4.051  37.235  1.00  0.00    -0.267 OA
HETATM    2  N1  UNK     1      19.831  -4.104  35.346  1.00  0.00    -0.355 N 
HETATM    3  C7  UNK     1      20.509  -4.659  36.416  1.00  0.00     0.257 C 
HETATM    4  H6  UNK     1      19.302  -4.696  34.713  1.00  0.00     0.162 HD
ENDROOT
BRANCH   3   5
HETATM    5  C2  UNK     1      20.335  -6.113  36.511  1.00  0.00     0.108 A 
HETATM    6  C5  UNK     1      20.118  -6.604  37.737  1.00  0.00     0.037 A 
HETATM    7  C1  UNK     1      19.933  -8.035  37.932  1.00  0.00    -0.001 A 
HETATM    8  C4  UNK     1      19.988  -8.877  36.826  1.00  0.00     0.089 A 
HETATM    9  C8  UNK     1      19.704  -8.591  39.192  1.00  0.00     0.014 A 
HETATM   10  C10 UNK     1      19.820 -10.255  36.945  1.00  0.00     0.038 A 
HETATM   11  O1  UNK     1      20.217  -8.354  35.539  1.00  0.00    -0.274 OA
HETATM   12  C12 UNK     1      19.592 -10.802  38.205  1.00  0.00     0.003 A 
HETATM   13  C11 UNK     1      19.534  -9.972  39.327  1.00  0.00     0.001 A 
HETATM   14  C9  UNK     1      20.397  -6.991  35.320  1.00  0.00     0.304 A 
HETATM   15  O4  UNK     1      20.596  -6.544  34.196  1.00  0.00    -0.259 OA
ENDBRANCH   3   5
BRANCH   2  16
HETATM   16  C3  UNK     1      19.850  -2.690  35.049  1.00  0.00     0.149 C 
BRANCH  16  17
HETATM   17  C6  UNK     1      20.358  -2.422  33.644  1.00  0.00     0.195 C 
BRANCH  17  18
HETATM   18  O2  UNK     1      19.536  -1.443  33.022  1.00  0.00    -0.350 OA
BRANCH  18  19
HETATM   19  C13 UNK     1      19.789  -1.173  31.703  1.00  0.00     0.068 A 
HETATM   20  C14 UNK     1      19.582   0.112  31.212  1.00  0.00     0.037 A 
HETATM   21  C16 UNK     1      19.840   0.387  29.869  1.00  0.00     0.003 A 
HETATM   22  C18 UNK     1      20.301  -0.623  29.026  1.00  0.00     0.000 A 
HETATM   23  C17 UNK     1      20.506  -1.910  29.527  1.00  0.00     0.003 A 
HETATM   24  C15 UNK     1      20.249  -2.185  30.869  1.00  0.00     0.037 A 
ENDBRANCH  18  19
ENDBRANCH  17  18
ENDBRANCH  16  17
ENDBRANCH   2  16
TORSDOF 5
ENDMDL
MODEL 3
REMARK VINA RESULT:      -8.7      2.965      4.916
REMARK  5 active torsions:
REMARK  status: ('A' for Active; 'I' for Inactive)
REMARK    1  A    between atoms: C13_18  and  O2_2 
REMARK    2  A    between atoms: C6_11  and  O2_2 
REMARK    3  A    between atoms: C3_8  and  N1_5 
REMARK       I    between atoms: C7_12  and  N1_5 
REMARK    4  A    between atoms: C2_7  and  C7_12 
REMARK    5  A    between atoms: C3_8  and  C6_11 
ROOT
HETATM    1  O3  UNK     1      20.806   0.126  30.942  1.00  0.00    -0.267 OA
HETATM    2  N1  UNK     1      18.522   0.389  30.554  1.00  0.00    -0.355 N 
HETATM    3  C7  UNK     1      19.634   0.061  31.309  1.00  0.00     0.257 C 
HETATM    4  H6  UNK     1      17.591   0.283  30.943  1.00  0.00     0.162 HD
ENDROOT
BRANCH   3   5
HETATM    5  C2  UNK     1      19.293  -0.395  32.661  1.00  0.00     0.108 A 
HETATM    6  C5  UNK     1      18.536   0.432  33.391  1.00  0.00     0.037 A 
HETATM    7  C1  UNK     1      18.146   0.067  34.745  1.00  0.00    -0.001 A 
HETATM    8  C4  UNK     1      18.573  -1.151  35.262  1.00  0.00     0.089 A 
HETATM    9  C8  UNK     1      17.357   0.899  35.542  1.00  0.00     0.014 A 
HETATM   10  C10 UNK     1      18.235  -1.560  36.551  1.00  0.00     0.038 A 
HETATM   11  O1  UNK     1      19.370  -2.018  34.489  1.00  0.00    -0.274 OA
HETATM   12  C12 UNK     1      17.449  -0.724  37.340  1.00  0.00     0.003 A 
HETATM   13  C11 UNK     1      17.011   0.503  36.837  1.00  0.00     0.001 A 
HETATM   14  C9  UNK     1      19.759  -1.697  33.191  1.00  0.00     0.304 A 
HETATM   15  O4  UNK     1      20.453  -2.458  32.525  1.00  0.00    -0.259 OA
ENDBRANCH   3   5
BRANCH   2  16
HETATM   16  C3  UNK     1      18.607   0.866  29.192  1.00  0.00     0.149 C 
BRANCH  16  17
HETATM   17  C6  UNK     1      18.193   2.322  29.085  1.00  0.00     0.195 C 
BRANCH  17  18
HETATM   18  O2  UNK     1      17.744   2.780  30.355  1.00  0.00    -0.350 OA
BRANCH  18  19
HETATM   19  C13 UNK     1      18.353   3.900  30.858  1.00  0.00     0.068 A 
HETATM   20  C14 UNK     1      18.191   4.228  32.199  1.00  0.00     0.037 A 
HETATM   21  C16 UNK     1      18.810   5.368  32.710  1.00  0.00     0.003 A 
HETATM   22  C18 UNK     1      19.588   6.172  31.878  1.00  0.00     0.000 A 
HETATM   23  C17 UNK     1      19.746   5.836  30.533  1.00  0.00     0.003 A 
HETATM   24  C15 UNK     1      19.127   4.696  30.022  1.00  0.00     0.037 A 
ENDBRANCH  18  19
ENDBRANCH  17  18
ENDBRANCH  16  17
ENDBRANCH   2  16
TORSDOF 5
ENDMDL
MODEL 4
REMARK VINA RESULT:      -8.7      1.431      2.306
REMARK  5 active torsions:
REMARK  status: ('A' for Active; 'I' for Inactive)
REMARK    1  A    between atoms: C13_18  and  O2_2 
REMARK    2  A    between atoms: C6_11  and  O2_2 
REMARK    3  A    between atoms: C3_8  and  N1_5 
REMARK       I    between atoms: C7_12  and  N1_5 
REMARK    4  A    between atoms: C2_7  and  C7_12 
REMARK    5  A    between atoms: C3_8  and  C6_11 
ROOT
HETATM    1  O3  UNK     1      17.478   3.567  31.706  1.00  0.00    -0.267 OA
HETATM    2  N1  UNK     1      19.220   4.471  30.449  1.00  0.00    -0.355 N 
HETATM    3  C7  UNK     1      18.425   3.447  30.932  1.00  0.00     0.257 C 
HETATM    4  H6  UNK     1      19.994   4.267  29.824  1.00  0.00     0.162 HD
ENDROOT
BRANCH   3   5
HETATM    5  C2  UNK     1      18.816   2.129  30.419  1.00  0.00     0.108 A 
HETATM    6  C5  UNK     1      19.350   1.283  31.307  1.00  0.00     0.037 A 
HETATM    7  C1  UNK     1      19.769  -0.047  30.893  1.00  0.00    -0.001 A 
HETATM    8  C4  UNK     1      19.607  -0.420  29.563  1.00  0.00     0.089 A 
HETATM    9  C8  UNK     1      20.329  -0.963  31.786  1.00  0.00     0.014 A 
HETATM   10  C10 UNK     1      19.989  -1.679  29.102  1.00  0.00     0.038 A 
HETATM   11  O1  UNK     1      19.046   0.475  28.632  1.00  0.00    -0.274 OA
HETATM   12  C12 UNK     1      20.547  -2.586  29.999  1.00  0.00     0.003 A 
HETATM   13  C11 UNK     1      20.718  -2.229  31.338  1.00  0.00     0.001 A 
HETATM   14  C9  UNK     1      18.634   1.754  28.998  1.00  0.00     0.304 A 
HETATM   15  O4  UNK     1      18.147   2.528  28.180  1.00  0.00    -0.259 OA
ENDBRANCH   3   5
BRANCH   2  16
HETATM   16  C3  UNK     1      19.026   5.857  30.811  1.00  0.00     0.149 C 
BRANCH  16  17
HETATM   17  C6  UNK     1      20.000   6.292  31.890  1.00  0.00     0.195 C 
BRANCH  17  18
HETATM   18  O2  UNK     1      19.442   6.018  33.169  1.00  0.00    -0.350 OA
BRANCH  18  19
HETATM   19  C13 UNK     1      18.505   6.902  33.637  1.00  0.00     0.068 A 
HETATM   20  C14 UNK     1      18.788   8.263  33.648  1.00  0.00     0.037 A 
HETATM   21  C16 UNK     1      17.835   9.162  34.124  1.00  0.00     0.003 A 
HETATM   22  C18 UNK     1      16.604   8.695  34.586  1.00  0.00     0.000 A 
HETATM   23  C17 UNK     1      16.328   7.327  34.572  1.00  0.00     0.003 A 
HETATM   24  C15 UNK     1      17.281   6.428  34.096  1.00  0.00     0.037 A 
ENDBRANCH  18  19
ENDBRANCH  17  18
ENDBRANCH  16  17
ENDBRANCH   2  16
TORSDOF 5
ENDMDL
MODEL 5
REMARK VINA RESULT:      -8.6      6.977     11.860
REMARK  5 active torsions:
REMARK  status: ('A' for Active; 'I' for Inactive)
REMARK    1  A    between atoms: C13_18  and  O2_2 
REMARK    2  A    between atoms: C6_11  and  O2_2 
REMARK    3  A    between atoms: C3_8  and  N1_5 
REMARK       I    between atoms: C7_12  and  N1_5 
REMARK    4  A    between atoms: C2_7  and  C7_12 
REMARK    5  A    between atoms: C3_8  and  C6_11 
ROOT
HETATM    1  O3  UNK     1      20.302  -4.514  37.561  1.00  0.00    -0.267 OA
HETATM    2  N1  UNK     1      19.749  -5.000  35.349  1.00  0.00    -0.355 N 
HETATM    3  C7  UNK     1      19.907  -4.174  36.447  1.00  0.00     0.257 C 
HETATM    4  H6  UNK     1      19.397  -4.625  34.473  1.00  0.00     0.162 HD
ENDROOT
BRANCH   3   5
HETATM    5  C2  UNK     1      19.551  -2.778  36.169  1.00  0.00     0.108 A 
HETATM    6  C5  UNK     1      18.831  -2.153  37.107  1.00  0.00     0.037 A 
HETATM    7  C1  UNK     1      18.429  -0.767  36.921  1.00  0.00    -0.001 A 
HETATM    8  C4  UNK     1      18.805  -0.108  35.755  1.00  0.00     0.089 A 
HETATM    9  C8  UNK     1      17.678  -0.075  37.874  1.00  0.00     0.014 A 
HETATM   10  C10 UNK     1      18.451   1.219  35.516  1.00  0.00     0.038 A 
HETATM   11  O1  UNK     1      19.562  -0.771  34.770  1.00  0.00    -0.274 OA
HETATM   12  C12 UNK     1      17.702   1.902  36.470  1.00  0.00     0.003 A 
HETATM   13  C11 UNK     1      17.316   1.256  37.647  1.00  0.00     0.001 A 
HETATM   14  C9  UNK     1      19.962  -2.097  34.920  1.00  0.00     0.304 A 
HETATM   15  O4  UNK     1      20.621  -2.667  34.057  1.00  0.00    -0.259 OA
ENDBRANCH   3   5
BRANCH   2  16
HETATM   16  C3  UNK     1      20.039  -6.415  35.379  1.00  0.00     0.149 C 
BRANCH  16  17
HETATM   17  C6  UNK     1      18.773  -7.246  35.270  1.00  0.00     0.195 C 
BRANCH  17  18
HETATM   18  O2  UNK     1      18.163  -7.347  36.551  1.00  0.00    -0.350 OA
BRANCH  18  19
HETATM   19  C13 UNK     1      18.799  -8.132  37.477  1.00  0.00     0.068 A 
HETATM   20  C14 UNK     1      18.880  -9.505  37.277  1.00  0.00     0.037 A 
HETATM   21  C16 UNK     1      19.526 -10.304  38.220  1.00  0.00     0.003 A 
HETATM   22  C18 UNK     1      20.088  -9.724  39.357  1.00  0.00     0.000 A 
HETATM   23  C17 UNK     1      20.003  -8.345  39.550  1.00  0.00     0.003 A 
HETATM   24  C15 UNK     1      19.357  -7.547  38.608  1.00  0.00     0.037 A 
ENDBRANCH  18  19
ENDBRANCH  17  18
ENDBRANCH  16  17
ENDBRANCH   2  16
TORSDOF 5
ENDMDL
MODEL 6
REMARK VINA RESULT:      -8.5      5.067      9.493
REMARK  5 active torsions:
REMARK  status: ('A' for Active; 'I' for Inactive)
REMARK    1  A    between atoms: C13_18  and  O2_2 
REMARK    2  A    between atoms: C6_11  and  O2_2 
REMARK    3  A    between atoms: C3_8  and  N1_5 
REMARK       I    between atoms: C7_12  and  N1_5 
REMARK    4  A    between atoms: C2_7  and  C7_12 
REMARK    5  A    between atoms: C3_8  and  C6_11 
ROOT
HETATM    1  O3  UNK     1      17.257  -0.942  35.655  1.00  0.00    -0.267 OA
HETATM    2  N1  UNK     1      19.294  -2.074  35.583  1.00  0.00    -0.355 N 
HETATM    3  C7  UNK     1      18.309  -1.237  35.090  1.00  0.00     0.257 C 
HETATM    4  H6  UNK     1      20.122  -2.270  35.030  1.00  0.00     0.162 HD
ENDROOT
BRANCH   3   5
HETATM    5  C2  UNK     1      18.633  -0.690  33.768  1.00  0.00     0.108 A 
HETATM    6  C5  UNK     1      19.206  -1.535  32.903  1.00  0.00     0.037 A 
HETATM    7  C1  UNK     1      19.564  -1.085  31.566  1.00  0.00    -0.001 A 
HETATM    8  C4  UNK     1      19.301   0.233  31.207  1.00  0.00     0.089 A 
HETATM    9  C8  UNK     1      20.163  -1.932  30.631  1.00  0.00     0.014 A 
HETATM   10  C10 UNK     1      19.620   0.727  29.943  1.00  0.00     0.038 A 
HETATM   11  O1  UNK     1      18.699   1.118  32.122  1.00  0.00    -0.274 OA
HETATM   12  C12 UNK     1      20.218  -0.124  29.016  1.00  0.00     0.003 A 
HETATM   13  C11 UNK     1      20.489  -1.451  29.359  1.00  0.00     0.001 A 
HETATM   14  C9  UNK     1      18.344   0.717  33.407  1.00  0.00     0.304 A 
HETATM   15  O4  UNK     1      17.820   1.494  34.198  1.00  0.00    -0.259 OA
ENDBRANCH   3   5
BRANCH   2  16
HETATM   16  C3  UNK     1      19.201  -2.729  36.868  1.00  0.00     0.149 C 
BRANCH  16  17
HETATM   17  C6  UNK     1      20.473  -3.489  37.199  1.00  0.00     0.195 C 
BRANCH  17  18
HETATM   18  O2  UNK     1      20.480  -4.726  36.498  1.00  0.00    -0.350 OA
BRANCH  18  19
HETATM   19  C13 UNK     1      20.094  -5.836  37.201  1.00  0.00     0.068 A 
HETATM   20  C14 UNK     1      19.342  -6.823  36.573  1.00  0.00     0.037 A 
HETATM   21  C16 UNK     1      18.949  -7.953  37.289  1.00  0.00     0.003 A 
HETATM   22  C18 UNK     1      19.309  -8.089  38.629  1.00  0.00     0.000 A 
HETATM   23  C17 UNK     1      20.064  -7.095  39.253  1.00  0.00     0.003 A 
HETATM   24  C15 UNK     1      20.457  -5.965  38.537  1.00  0.00     0.037 A 
ENDBRANCH  18  19
ENDBRANCH  17  18
ENDBRANCH  16  17
ENDBRANCH   2  16
TORSDOF 5
ENDMDL
MODEL 7
REMARK VINA RESULT:      -8.5      6.767     12.253
REMARK  5 active torsions:
REMARK  status: ('A' for Active; 'I' for Inactive)
REMARK    1  A    between atoms: C13_18  and  O2_2 
REMARK    2  A    between atoms: C6_11  and  O2_2 
REMARK    3  A    between atoms: C3_8  and  N1_5 
REMARK       I    between atoms: C7_12  and  N1_5 
REMARK    4  A    between atoms: C2_7  and  C7_12 
REMARK    5  A    between atoms: C3_8  and  C6_11 
ROOT
HETATM    1  O3  UNK     1      20.879  -4.548  36.915  1.00  0.00    -0.267 OA
HETATM    2  N1  UNK     1      18.605  -4.996  36.662  1.00  0.00    -0.355 N 
HETATM    3  C7  UNK     1      19.731  -4.193  36.651  1.00  0.00     0.257 C 
HETATM    4  H6  UNK     1      17.694  -4.603  36.446  1.00  0.00     0.162 HD
ENDROOT
BRANCH   3   5
HETATM    5  C2  UNK     1      19.440  -2.805  36.276  1.00  0.00     0.108 A 
HETATM    6  C5  UNK     1      18.742  -2.087  37.164  1.00  0.00     0.037 A 
HETATM    7  C1  UNK     1      18.404  -0.700  36.881  1.00  0.00    -0.001 A 
HETATM    8  C4  UNK     1      18.816  -0.139  35.677  1.00  0.00     0.089 A 
HETATM    9  C8  UNK     1      17.678   0.087  37.778  1.00  0.00     0.014 A 
HETATM   10  C10 UNK     1      18.524   1.183  35.346  1.00  0.00     0.038 A 
HETATM   11  O1  UNK     1      19.549  -0.900  34.746  1.00  0.00    -0.274 OA
HETATM   12  C12 UNK     1      17.800   1.961  36.245  1.00  0.00     0.003 A 
HETATM   13  C11 UNK     1      17.377   1.415  37.459  1.00  0.00     0.001 A 
HETATM   14  C9  UNK     1      19.889  -2.228  34.988  1.00  0.00     0.304 A 
HETATM   15  O4  UNK     1      20.527  -2.884  34.172  1.00  0.00    -0.259 OA
ENDBRANCH   3   5
BRANCH   2  16
HETATM   16  C3  UNK     1      18.643  -6.402  36.998  1.00  0.00     0.149 C 
BRANCH  16  17
HETATM   17  C6  UNK     1      18.663  -7.271  35.754  1.00  0.00     0.195 C 
BRANCH  17  18
HETATM   18  O2  UNK     1      20.010  -7.496  35.356  1.00  0.00    -0.350 OA
BRANCH  18  19
HETATM   19  C13 UNK     1      20.568  -8.694  35.716  1.00  0.00     0.068 A 
HETATM   20  C14 UNK     1      20.146  -9.328  36.880  1.00  0.00     0.037 A 
HETATM   21  C16 UNK     1      20.715 -10.547  37.246  1.00  0.00     0.003 A 
HETATM   22  C18 UNK     1      21.702 -11.125  36.448  1.00  0.00     0.000 A 
HETATM   23  C17 UNK     1      22.120 -10.483  35.282  1.00  0.00     0.003 A 
HETATM   24  C15 UNK     1      21.551  -9.264  34.915  1.00  0.00     0.037 A 
ENDBRANCH  18  19
ENDBRANCH  17  18
ENDBRANCH  16  17
ENDBRANCH   2  16
TORSDOF 5
ENDMDL
MODEL 8
REMARK VINA RESULT:      -8.3      1.571      8.525
REMARK  5 active torsions:
REMARK  status: ('A' for Active; 'I' for Inactive)
REMARK    1  A    between atoms: C13_18  and  O2_2 
REMARK    2  A    between atoms: C6_11  and  O2_2 
REMARK    3  A    between atoms: C3_8  and  N1_5 
REMARK       I    between atoms: C7_12  and  N1_5 
REMARK    4  A    between atoms: C2_7  and  C7_12 
REMARK    5  A    between atoms: C3_8  and  C6_11 
ROOT
HETATM    1  O3  UNK     1      19.365   6.529  30.041  1.00  0.00    -0.267 OA
HETATM    2  N1  UNK     1      18.467   4.602  30.997  1.00  0.00    -0.355 N 
HETATM    3  C7  UNK     1      18.703   5.962  30.908  1.00  0.00     0.257 C 
HETATM    4  H6  UNK     1      17.921   4.227  31.766  1.00  0.00     0.162 HD
ENDROOT
BRANCH   3   5
HETATM    5  C2  UNK     1      18.066   6.724  31.988  1.00  0.00     0.108 A 
HETATM    6  C5  UNK     1      17.015   7.476  31.642  1.00  0.00     0.037 A 
HETATM    7  C1  UNK     1      16.318   8.267  32.644  1.00  0.00    -0.001 A 
HETATM    8  C4  UNK     1      16.763   8.230  33.961  1.00  0.00     0.089 A 
HETATM    9  C8  UNK     1      15.216   9.065  32.327  1.00  0.00     0.014 A 
HETATM   10  C10 UNK     1      16.139   8.965  34.967  1.00  0.00     0.038 A 
HETATM   11  O1  UNK     1      17.871   7.438  34.320  1.00  0.00    -0.274 OA
HETATM   12  C12 UNK     1      15.042   9.759  34.643  1.00  0.00     0.003 A 
HETATM   13  C11 UNK     1      14.580   9.809  33.326  1.00  0.00     0.001 A 
HETATM   14  C9  UNK     1      18.558   6.669  33.384  1.00  0.00     0.304 A 
HETATM   15  O4  UNK     1      19.522   5.983  33.705  1.00  0.00    -0.259 OA
ENDBRANCH   3   5
BRANCH   2  16
HETATM   16  C3  UNK     1      18.989   3.648  30.045  1.00  0.00     0.149 C 
BRANCH  16  17
HETATM   17  C6  UNK     1      18.211   2.345  30.078  1.00  0.00     0.195 C 
BRANCH  17  18
HETATM   18  O2  UNK     1      18.735   1.507  31.101  1.00  0.00    -0.350 OA
BRANCH  18  19
HETATM   19  C13 UNK     1      19.347   0.350  30.697  1.00  0.00     0.068 A 
HETATM   20  C14 UNK     1      19.886   0.265  29.418  1.00  0.00     0.037 A 
HETATM   21  C16 UNK     1      20.508  -0.913  29.008  1.00  0.00     0.003 A 
HETATM   22  C18 UNK     1      20.588  -2.000  29.878  1.00  0.00     0.000 A 
HETATM   23  C17 UNK     1      20.045  -1.907  31.160  1.00  0.00     0.003 A 
HETATM   24  C15 UNK     1      19.423  -0.729  31.571  1.00  0.00     0.037 A 
ENDBRANCH  18  19
ENDBRANCH  17  18
ENDBRANCH  16  17
ENDBRANCH   2  16
TORSDOF 5
ENDMDL
MODEL 9
REMARK VINA RESULT:      -8.3      5.211      8.568
REMARK  5 active torsions:
REMARK  status: ('A' for Active; 'I' for Inactive)
REMARK    1  A    between atoms: C13_18  and  O2_2 
REMARK    2  A    between atoms: C6_11  and  O2_2 
REMARK    3  A    between atoms: C3_8  and  N1_5 
REMARK       I    between atoms: C7_12  and  N1_5 
REMARK    4  A    between atoms: C2_7  and  C7_12 
REMARK    5  A    between atoms: C3_8  and  C6_11 
ROOT
HETATM    1  O3  UNK     1      20.993  -2.412  34.430  1.00  0.00    -0.267 OA
HETATM    2  N1  UNK     1      18.967  -1.977  35.499  1.00  0.00    -0.355 N 
HETATM    3  C7  UNK     1      20.103  -2.716  35.223  1.00  0.00     0.257 C 
HETATM    4  H6  UNK     1      18.278  -2.324  36.159  1.00  0.00     0.162 HD
ENDROOT
BRANCH   3   5
HETATM    5  C2  UNK     1      20.175  -3.963  35.993  1.00  0.00     0.108 A 
HETATM    6  C5  UNK     1      20.159  -5.098  35.284  1.00  0.00     0.037 A 
HETATM    7  C1  UNK     1      20.226  -6.385  35.960  1.00  0.00    -0.001 A 
HETATM    8  C4  UNK     1      20.305  -6.413  37.348  1.00  0.00     0.089 A 
HETATM    9  C8  UNK     1      20.214  -7.594  35.260  1.00  0.00     0.014 A 
HETATM   10  C10 UNK     1      20.371  -7.613  38.055  1.00  0.00     0.038 A 
HETATM   11  O1  UNK     1      20.320  -5.216  38.089  1.00  0.00    -0.274 OA
HETATM   12  C12 UNK     1      20.357  -8.814  37.350  1.00  0.00     0.003 A 
HETATM   13  C11 UNK     1      20.279  -8.805  35.956  1.00  0.00     0.001 A 
HETATM   14  C9  UNK     1      20.258  -3.969  37.472  1.00  0.00     0.304 A 
HETATM   15  O4  UNK     1      20.271  -2.931  38.124  1.00  0.00    -0.259 OA
ENDBRANCH   3   5
BRANCH   2  16
HETATM   16  C3  UNK     1      18.677  -0.711  34.865  1.00  0.00     0.149 C 
BRANCH  16  17
HETATM   17  C6  UNK     1      18.264  -0.894  33.416  1.00  0.00     0.195 C 
BRANCH  17  18
HETATM   18  O2  UNK     1      18.825   0.149  32.629  1.00  0.00    -0.350 OA
BRANCH  18  19
HETATM   19  C13 UNK     1      19.363  -0.211  31.421  1.00  0.00     0.068 A 
HETATM   20  C14 UNK     1      19.869  -1.494  31.246  1.00  0.00     0.037 A 
HETATM   21  C16 UNK     1      20.416  -1.860  30.017  1.00  0.00     0.003 A 
HETATM   22  C18 UNK     1      20.454  -0.940  28.970  1.00  0.00     0.000 A 
HETATM   23  C17 UNK     1      19.944   0.346  29.152  1.00  0.00     0.003 A 
HETATM   24  C15 UNK     1      19.397   0.711  30.381  1.00  0.00     0.037 A 
ENDBRANCH  18  19
ENDBRANCH  17  18
ENDBRANCH  16  17
ENDBRANCH   2  16
TORSDOF 5
ENDMDL
MODEL 10
REMARK VINA RESULT:      -8.2      5.128      7.009
REMARK  5 active torsions:
REMARK  status: ('A' for Active; 'I' for Inactive)
REMARK    1  A    between atoms: C13_18  and  O2_2 
REMARK    2  A    between atoms: C6_11  and  O2_2 
REMARK    3  A    between atoms: C3_8  and  N1_5 
REMARK       I    between atoms: C7_12  and  N1_5 
REMARK    4  A    between atoms: C2_7  and  C7_12 
REMARK    5  A    between atoms: C3_8  and  C6_11 
ROOT
HETATM    1  O3  UNK     1      21.654  -1.980  35.047  1.00  0.00    -0.267 OA
HETATM    2  N1  UNK     1      19.866  -3.465  34.877  1.00  0.00    -0.355 N 
HETATM    3  C7  UNK     1      20.779  -2.545  34.394  1.00  0.00     0.257 C 
HETATM    4  H6  UNK     1      19.166  -3.865  34.258  1.00  0.00     0.162 HD
ENDROOT
BRANCH   3   5
HETATM    5  C2  UNK     1      20.619  -2.280  32.960  1.00  0.00     0.108 A 
HETATM    6  C5  UNK     1      20.094  -1.093  32.633  1.00  0.00     0.037 A 
HETATM    7  C1  UNK     1      19.897  -0.739  31.235  1.00  0.00    -0.001 A 
HETATM    8  C4  UNK     1      20.260  -1.652  30.252  1.00  0.00     0.089 A 
HETATM    9  C8  UNK     1      19.353   0.489  30.848  1.00  0.00     0.014 A 
HETATM   10  C10 UNK     1      20.096  -1.374  28.896  1.00  0.00     0.038 A 
HETATM   11  O1  UNK     1      20.811  -2.900  30.602  1.00  0.00    -0.274 OA
HETATM   12  C12 UNK     1      19.553  -0.148  28.518  1.00  0.00     0.003 A 
HETATM   13  C11 UNK     1      19.182   0.781  29.492  1.00  0.00     0.001 A 
HETATM   14  C9  UNK     1      21.013  -3.268  31.930  1.00  0.00     0.304 A 
HETATM   15  O4  UNK     1      21.493  -4.356  32.226  1.00  0.00    -0.259 OA
ENDBRANCH   3   5
BRANCH   2  16
HETATM   16  C3  UNK     1      19.829  -3.889  36.258  1.00  0.00     0.149 C 
BRANCH  16  17
HETATM   17  C6  UNK     1      19.342  -2.777  37.169  1.00  0.00     0.195 C 
BRANCH  17  18
HETATM   18  O2  UNK     1      18.108  -2.269  36.677  1.00  0.00    -0.350 OA
BRANCH  18  19
HETATM   19  C13 UNK     1      17.962  -0.907  36.664  1.00  0.00     0.068 A 
HETATM   20  C14 UNK     1      18.065  -0.214  35.463  1.00  0.00     0.037 A 
HETATM   21  C16 UNK     1      17.917   1.173  35.451  1.00  0.00     0.003 A 
HETATM   22  C18 UNK     1      17.667   1.858  36.640  1.00  0.00     0.000 A 
HETATM   23  C17 UNK     1      17.565   1.155  37.841  1.00  0.00     0.003 A 
HETATM   24  C15 UNK     1      17.713  -0.231  37.853  1.00  0.00     0.037 A 
ENDBRANCH  18  19
ENDBRANCH  17  18
ENDBRANCH  16  17
ENDBRANCH   2  16
TORSDOF 5
ENDMDL
