MODEL 1
REMARK VINA RESULT:     -10.9      0.000      0.000
REMARK  7 active torsions:
REMARK  status: ('A' for Active; 'I' for Inactive)
REMARK    1  A    between atoms: C16_26  and  S1_1 
REMARK    2  A    between atoms: C7_17  and  S1_1 
REMARK    3  A    between atoms: C17_27  and  N1_7 
REMARK    4  A    between atoms: C4_14  and  N1_7 
REMARK       I    between atoms: C12_22  and  N2_8 
REMARK    5  A    between atoms: N2_8  and  N4_10 
REMARK    6  A    between atoms: C17_27  and  N4_10 
REMARK    7  A    between atoms: C12_22  and  C7_17 
ROOT
HETATM    1  N4  UNK     1      18.714   1.767  31.173  1.00  0.00    -0.274 N 
HETATM    2  H16 UNK     1      18.781   2.217  32.080  1.00  0.00     0.189 HD
ENDROOT
BRANCH   1   3
HETATM    3  C17 UNK     1      18.654   2.505  29.997  1.00  0.00     0.191 C 
HETATM    4  S3  UNK     1      17.945   1.765  28.670  1.00  0.00    -0.039 SA
BRANCH   3   5
HETATM    5  N1  UNK     1      19.190   3.801  30.099  1.00  0.00    -0.332 N 
HETATM    6  H9  UNK     1      19.704   4.097  29.275  1.00  0.00     0.168 HD
BRANCH   5   7
HETATM    7  C4  UNK     1      19.093   4.818  31.048  1.00  0.00     0.037 A 
HETATM    8  C8  UNK     1      20.233   5.516  31.443  1.00  0.00     0.030 A 
HETATM    9  C5  UNK     1      20.141   6.537  32.396  1.00  0.00     0.017 A 
HETATM   10  C1  UNK     1      18.908   6.875  32.969  1.00  0.00     0.004 A 
HETATM   11  C2  UNK     1      17.784   6.159  32.555  1.00  0.00     0.092 A 
HETATM   12  C3  UNK     1      18.736   7.932  33.974  1.00  0.00    -0.043 A 
HETATM   13  O1  UNK     1      16.507   6.436  33.083  1.00  0.00    -0.275 OA
HETATM   14  C6  UNK     1      17.859   5.138  31.605  1.00  0.00     0.067 A 
HETATM   15  C11 UNK     1      16.316   7.428  34.032  1.00  0.00     0.288 A 
HETATM   16  O2  UNK     1      15.209   7.678  34.498  1.00  0.00    -0.260 OA
HETATM   17  C9  UNK     1      17.511   8.175  34.459  1.00  0.00     0.090 A 
HETATM   18  C10 UNK     1      19.925   8.721  34.440  1.00  0.00     0.049 C 
ENDBRANCH   5   7
ENDBRANCH   3   5
ENDBRANCH   1   3
BRANCH   1  19
HETATM   19  N2  UNK     1      18.711   0.391  31.167  1.00  0.00    -0.267 N 
HETATM   20  C12 UNK     1      19.920  -0.283  31.151  1.00  0.00     0.249 C 
HETATM   21  O3  UNK     1      21.026   0.253  31.139  1.00  0.00    -0.271 OA
HETATM   22  H13 UNK     1      17.829  -0.079  31.002  1.00  0.00     0.190 HD
BRANCH  20  23
HETATM   23  C7  UNK     1      19.736  -1.793  31.178  1.00  0.00     0.144 C 
HETATM   24  C15 UNK     1      20.337  -2.454  29.944  1.00  0.00     0.032 C 
BRANCH  23  25
HETATM   25  S1  UNK     1      20.563  -2.420  32.677  1.00  0.00    -0.089 SA
BRANCH  25  26
HETATM   26  C16 UNK     1      19.525  -1.731  33.959  1.00  0.00     0.136 A 
HETATM   27  S2  UNK     1      19.930  -1.886  35.594  1.00  0.00    -0.061 SA
HETATM   28  C13 UNK     1      18.497  -1.009  35.987  1.00  0.00     0.036 A 
HETATM   29  C14 UNK     1      17.829  -0.672  34.806  1.00  0.00     0.075 A 
HETATM   30  C18 UNK     1      18.001  -0.645  37.249  1.00  0.00     0.021 A 
HETATM   31  N3  UNK     1      18.443  -1.101  33.638  1.00  0.00    -0.233 NA
HETATM   32  C19 UNK     1      16.622   0.055  34.894  1.00  0.00     0.033 A 
HETATM   33  C21 UNK     1      16.122   0.420  36.148  1.00  0.00     0.002 A 
HETATM   34  C20 UNK     1      16.805   0.074  37.309  1.00  0.00     0.002 A 
ENDBRANCH  25  26
ENDBRANCH  23  25
ENDBRANCH  20  23
ENDBRANCH   1  19
TORSDOF 7
ENDMDL
MODEL 2
REMARK VINA RESULT:     -10.7      5.614     11.634
REMARK  7 active torsions:
REMARK  status: ('A' for Active; 'I' for Inactive)
REMARK    1  A    between atoms: C16_26  and  S1_1 
REMARK    2  A    between atoms: C7_17  and  S1_1 
REMARK    3  A    between atoms: C17_27  and  N1_7 
REMARK    4  A    between atoms: C4_14  and  N1_7 
REMARK       I    between atoms: C12_22  and  N2_8 
REMARK    5  A    between atoms: N2_8  and  N4_10 
REMARK    6  A    between atoms: C17_27  and  N4_10 
REMARK    7  A    between atoms: C12_22  and  C7_17 
ROOT
HETATM    1  N4  UNK     1      18.388  -3.187  36.851  1.00  0.00    -0.274 N 
HETATM    2  H16 UNK     1      17.767  -3.672  37.490  1.00  0.00     0.189 HD
ENDROOT
BRANCH   1   3
HETATM    3  C17 UNK     1      19.762  -3.394  36.873  1.00  0.00     0.191 C 
HETATM    4  S3  UNK     1      20.698  -2.396  35.904  1.00  0.00    -0.039 SA
BRANCH   3   5
HETATM    5  N1  UNK     1      20.179  -4.419  37.741  1.00  0.00    -0.332 N 
HETATM    6  H9  UNK     1      20.488  -4.086  38.649  1.00  0.00     0.168 HD
BRANCH   5   7
HETATM    7  C4  UNK     1      20.175  -5.812  37.669  1.00  0.00     0.037 A 
HETATM    8  C8  UNK     1      19.598  -6.563  38.691  1.00  0.00     0.030 A 
HETATM    9  C5  UNK     1      19.591  -7.960  38.624  1.00  0.00     0.017 A 
HETATM   10  C1  UNK     1      20.162  -8.629  37.532  1.00  0.00     0.004 A 
HETATM   11  C2  UNK     1      20.733  -7.851  36.525  1.00  0.00     0.092 A 
HETATM   12  C3  UNK     1      20.193 -10.091  37.395  1.00  0.00    -0.043 A 
HETATM   13  O1  UNK     1      21.329  -8.446  35.394  1.00  0.00    -0.275 OA
HETATM   14  C6  UNK     1      20.748  -6.456  36.577  1.00  0.00     0.067 A 
HETATM   15  C11 UNK     1      21.373  -9.822  35.238  1.00  0.00     0.288 A 
HETATM   16  O2  UNK     1      21.888 -10.350  34.258  1.00  0.00    -0.260 OA
HETATM   17  C9  UNK     1      20.766 -10.629  36.310  1.00  0.00     0.090 A 
HETATM   18  C10 UNK     1      19.587 -10.956  38.463  1.00  0.00     0.049 C 
ENDBRANCH   5   7
ENDBRANCH   3   5
ENDBRANCH   1   3
BRANCH   1  19
HETATM   19  N2  UNK     1      17.798  -2.336  35.946  1.00  0.00    -0.267 N 
HETATM   20  C12 UNK     1      17.448  -1.059  36.352  1.00  0.00     0.249 C 
HETATM   21  O3  UNK     1      17.620  -0.608  37.483  1.00  0.00    -0.271 OA
HETATM   22  H13 UNK     1      17.485  -2.725  35.065  1.00  0.00     0.190 HD
BRANCH  20  23
HETATM   23  C7  UNK     1      16.838  -0.244  35.223  1.00  0.00     0.144 C 
HETATM   24  C15 UNK     1      15.486   0.337  35.615  1.00  0.00     0.032 C 
BRANCH  23  25
HETATM   25  S1  UNK     1      17.999   1.109  34.835  1.00  0.00    -0.089 SA
BRANCH  25  26
HETATM   26  C16 UNK     1      18.631   0.578  33.249  1.00  0.00     0.136 A 
HETATM   27  S2  UNK     1      18.718   1.642  31.937  1.00  0.00    -0.061 SA
HETATM   28  C13 UNK     1      19.375   0.357  30.993  1.00  0.00     0.036 A 
HETATM   29  C14 UNK     1      19.470  -0.791  31.786  1.00  0.00     0.075 A 
HETATM   30  C18 UNK     1      19.780   0.364  29.649  1.00  0.00     0.021 A 
HETATM   31  N3  UNK     1      19.032  -0.642  33.094  1.00  0.00    -0.233 NA
HETATM   32  C19 UNK     1      19.986  -1.972  31.211  1.00  0.00     0.033 A 
HETATM   33  C21 UNK     1      20.390  -1.972  29.872  1.00  0.00     0.002 A 
HETATM   34  C20 UNK     1      20.287  -0.818  29.103  1.00  0.00     0.002 A 
ENDBRANCH  25  26
ENDBRANCH  23  25
ENDBRANCH  20  23
ENDBRANCH   1  19
TORSDOF 7
ENDMDL
MODEL 3
REMARK VINA RESULT:     -10.6      5.953     11.733
REMARK  7 active torsions:
REMARK  status: ('A' for Active; 'I' for Inactive)
REMARK    1  A    between atoms: C16_26  and  S1_1 
REMARK    2  A    between atoms: C7_17  and  S1_1 
REMARK    3  A    between atoms: C17_27  and  N1_7 
REMARK    4  A    between atoms: C4_14  and  N1_7 
REMARK       I    between atoms: C12_22  and  N2_8 
REMARK    5  A    between atoms: N2_8  and  N4_10 
REMARK    6  A    between atoms: C17_27  and  N4_10 
REMARK    7  A    between atoms: C12_22  and  C7_17 
ROOT
HETATM    1  N4  UNK     1      18.155  -2.783  37.051  1.00  0.00    -0.274 N 
HETATM    2  H16 UNK     1      17.848  -2.635  38.007  1.00  0.00     0.189 HD
ENDROOT
BRANCH   1   3
HETATM    3  C17 UNK     1      19.132  -3.721  36.737  1.00  0.00     0.191 C 
HETATM    4  S3  UNK     1      20.727  -3.210  36.809  1.00  0.00    -0.039 SA
BRANCH   3   5
HETATM    5  N1  UNK     1      18.630  -4.996  36.419  1.00  0.00    -0.332 N 
HETATM    6  H9  UNK     1      17.661  -4.991  36.119  1.00  0.00     0.168 HD
BRANCH   5   7
HETATM    7  C4  UNK     1      19.199  -6.267  36.331  1.00  0.00     0.037 A 
HETATM    8  C8  UNK     1      20.112  -6.555  35.319  1.00  0.00     0.030 A 
HETATM    9  C5  UNK     1      20.685  -7.828  35.226  1.00  0.00     0.017 A 
HETATM   10  C1  UNK     1      20.353  -8.833  36.144  1.00  0.00     0.004 A 
HETATM   11  C2  UNK     1      19.435  -8.516  37.146  1.00  0.00     0.092 A 
HETATM   12  C3  UNK     1      20.912 -10.190  36.107  1.00  0.00    -0.043 A 
HETATM   13  O1  UNK     1      19.047  -9.470  38.108  1.00  0.00    -0.275 OA
HETATM   14  C6  UNK     1      18.855  -7.250  37.252  1.00  0.00     0.067 A 
HETATM   15  C11 UNK     1      19.558 -10.758  38.097  1.00  0.00     0.288 A 
HETATM   16  O2  UNK     1      19.228 -11.596  38.930  1.00  0.00    -0.260 OA
HETATM   17  C9  UNK     1      20.526 -11.078  37.034  1.00  0.00     0.090 A 
HETATM   18  C10 UNK     1      21.902 -10.564  35.042  1.00  0.00     0.049 C 
ENDBRANCH   5   7
ENDBRANCH   3   5
ENDBRANCH   1   3
BRANCH   1  19
HETATM   19  N2  UNK     1      17.536  -2.030  36.081  1.00  0.00    -0.267 N 
HETATM   20  C12 UNK     1      17.660  -0.651  36.119  1.00  0.00     0.249 C 
HETATM   21  O3  UNK     1      18.291  -0.024  36.968  1.00  0.00    -0.271 OA
HETATM   22  H13 UNK     1      16.871  -2.494  35.474  1.00  0.00     0.190 HD
BRANCH  20  23
HETATM   23  C7  UNK     1      16.943   0.022  34.960  1.00  0.00     0.144 C 
HETATM   24  C15 UNK     1      15.558   0.511  35.364  1.00  0.00     0.032 C 
BRANCH  23  25
HETATM   25  S1  UNK     1      17.964   1.438  34.431  1.00  0.00    -0.089 SA
BRANCH  25  26
HETATM   26  C16 UNK     1      18.618   0.832  32.880  1.00  0.00     0.136 A 
HETATM   27  S2  UNK     1      18.661   1.813  31.503  1.00  0.00    -0.061 SA
HETATM   28  C13 UNK     1      19.371   0.498  30.642  1.00  0.00     0.036 A 
HETATM   29  C14 UNK     1      19.513  -0.592  31.507  1.00  0.00     0.075 A 
HETATM   30  C18 UNK     1      19.775   0.435  29.299  1.00  0.00     0.021 A 
HETATM   31  N3  UNK     1      19.068  -0.377  32.804  1.00  0.00    -0.233 NA
HETATM   32  C19 UNK     1      20.077  -1.785  31.007  1.00  0.00     0.033 A 
HETATM   33  C21 UNK     1      20.481  -1.854  29.670  1.00  0.00     0.002 A 
HETATM   34  C20 UNK     1      20.331  -0.757  28.829  1.00  0.00     0.002 A 
ENDBRANCH  25  26
ENDBRANCH  23  25
ENDBRANCH  20  23
ENDBRANCH   1  19
TORSDOF 7
ENDMDL
MODEL 4
REMARK VINA RESULT:      -9.9      5.745     11.787
REMARK  7 active torsions:
REMARK  status: ('A' for Active; 'I' for Inactive)
REMARK    1  A    between atoms: C16_26  and  S1_1 
REMARK    2  A    between atoms: C7_17  and  S1_1 
REMARK    3  A    between atoms: C17_27  and  N1_7 
REMARK    4  A    between atoms: C4_14  and  N1_7 
REMARK       I    between atoms: C12_22  and  N2_8 
REMARK    5  A    between atoms: N2_8  and  N4_10 
REMARK    6  A    between atoms: C17_27  and  N4_10 
REMARK    7  A    between atoms: C12_22  and  C7_17 
ROOT
HETATM    1  N4  UNK     1      20.059  -2.833  34.949  1.00  0.00    -0.274 N 
HETATM    2  H16 UNK     1      20.938  -2.707  34.458  1.00  0.00     0.189 HD
ENDROOT
BRANCH   1   3
HETATM    3  C17 UNK     1      19.935  -3.736  35.999  1.00  0.00     0.191 C 
HETATM    4  S3  UNK     1      20.440  -3.218  37.512  1.00  0.00    -0.039 SA
BRANCH   3   5
HETATM    5  N1  UNK     1      19.371  -4.972  35.636  1.00  0.00    -0.332 N 
HETATM    6  H9  UNK     1      18.732  -4.916  34.850  1.00  0.00     0.168 HD
BRANCH   5   7
HETATM    7  C4  UNK     1      19.568  -6.288  36.056  1.00  0.00     0.037 A 
HETATM    8  C8  UNK     1      18.846  -6.791  37.137  1.00  0.00     0.030 A 
HETATM    9  C5  UNK     1      19.039  -8.110  37.563  1.00  0.00     0.017 A 
HETATM   10  C1  UNK     1      19.959  -8.946  36.915  1.00  0.00     0.004 A 
HETATM   11  C2  UNK     1      20.668  -8.414  35.837  1.00  0.00     0.092 A 
HETATM   12  C3  UNK     1      20.216 -10.337  37.307  1.00  0.00    -0.043 A 
HETATM   13  O1  UNK     1      21.612  -9.188  35.132  1.00  0.00    -0.275 OA
HETATM   14  C6  UNK     1      20.486  -7.100  35.400  1.00  0.00     0.067 A 
HETATM   15  C11 UNK     1      21.875 -10.504  35.481  1.00  0.00     0.288 A 
HETATM   16  O2  UNK     1      22.693 -11.186  34.874  1.00  0.00    -0.260 OA
HETATM   17  C9  UNK     1      21.118 -11.050  36.620  1.00  0.00     0.090 A 
HETATM   18  C10 UNK     1      19.469 -10.939  38.463  1.00  0.00     0.049 C 
ENDBRANCH   5   7
ENDBRANCH   3   5
ENDBRANCH   1   3
BRANCH   1  19
HETATM   19  N2  UNK     1      19.007  -2.048  34.541  1.00  0.00    -0.267 N 
HETATM   20  C12 UNK     1      18.913  -0.749  35.013  1.00  0.00     0.249 C 
HETATM   21  O3  UNK     1      19.709  -0.223  35.788  1.00  0.00    -0.271 OA
HETATM   22  H13 UNK     1      18.245  -2.497  34.047  1.00  0.00     0.190 HD
BRANCH  20  23
HETATM   23  C7  UNK     1      17.712  -0.014  34.439  1.00  0.00     0.144 C 
HETATM   24  C15 UNK     1      16.407  -0.724  34.773  1.00  0.00     0.032 C 
BRANCH  23  25
HETATM   25  S1  UNK     1      17.701   1.663  35.156  1.00  0.00    -0.089 SA
BRANCH  25  26
HETATM   26  C16 UNK     1      18.056   2.658  33.713  1.00  0.00     0.136 A 
HETATM   27  S2  UNK     1      18.383   4.312  33.847  1.00  0.00    -0.061 SA
HETATM   28  C13 UNK     1      18.573   4.369  32.133  1.00  0.00     0.036 A 
HETATM   29  C14 UNK     1      18.365   3.090  31.608  1.00  0.00     0.075 A 
HETATM   30  C18 UNK     1      18.885   5.465  31.314  1.00  0.00     0.021 A 
HETATM   31  N3  UNK     1      18.066   2.109  32.543  1.00  0.00    -0.233 NA
HETATM   32  C19 UNK     1      18.472   2.905  30.213  1.00  0.00     0.033 A 
HETATM   33  C21 UNK     1      18.782   3.993  29.391  1.00  0.00     0.002 A 
HETATM   34  C20 UNK     1      18.985   5.256  29.936  1.00  0.00     0.002 A 
ENDBRANCH  25  26
ENDBRANCH  23  25
ENDBRANCH  20  23
ENDBRANCH   1  19
TORSDOF 7
ENDMDL
MODEL 5
REMARK VINA RESULT:      -9.6      3.021      5.070
REMARK  7 active torsions:
REMARK  status: ('A' for Active; 'I' for Inactive)
REMARK    1  A    between atoms: C16_26  and  S1_1 
REMARK    2  A    between atoms: C7_17  and  S1_1 
REMARK    3  A    between atoms: C17_27  and  N1_7 
REMARK    4  A    between atoms: C4_14  and  N1_7 
REMARK       I    between atoms: C12_22  and  N2_8 
REMARK    5  A    between atoms: N2_8  and  N4_10 
REMARK    6  A    between atoms: C17_27  and  N4_10 
REMARK    7  A    between atoms: C12_22  and  C7_17 
ROOT
HETATM    1  N4  UNK     1      18.995   4.352  34.541  1.00  0.00    -0.274 N 
HETATM    2  H16 UNK     1      19.891   4.617  34.937  1.00  0.00     0.189 HD
ENDROOT
BRANCH   1   3
HETATM    3  C17 UNK     1      18.294   5.202  33.693  1.00  0.00     0.191 C 
HETATM    4  S3  UNK     1      18.484   4.958  32.045  1.00  0.00    -0.039 SA
BRANCH   3   5
HETATM    5  N1  UNK     1      17.493   6.149  34.355  1.00  0.00    -0.332 N 
HETATM    6  H9  UNK     1      16.895   5.750  35.072  1.00  0.00     0.168 HD
BRANCH   5   7
HETATM    7  C4  UNK     1      17.402   7.540  34.314  1.00  0.00     0.037 A 
HETATM    8  C8  UNK     1      18.497   8.299  33.903  1.00  0.00     0.030 A 
HETATM    9  C5  UNK     1      18.412   9.695  33.859  1.00  0.00     0.017 A 
HETATM   10  C1  UNK     1      17.231  10.354  34.228  1.00  0.00     0.004 A 
HETATM   11  C2  UNK     1      16.153   9.568  34.636  1.00  0.00     0.092 A 
HETATM   12  C3  UNK     1      17.070  11.814  34.209  1.00  0.00    -0.043 A 
HETATM   13  O1  UNK     1      14.930  10.153  35.023  1.00  0.00    -0.275 OA
HETATM   14  C6  UNK     1      16.222   8.175  34.684  1.00  0.00     0.067 A 
HETATM   15  C11 UNK     1      14.750  11.527  35.015  1.00  0.00     0.288 A 
HETATM   16  O2  UNK     1      13.690  12.047  35.350  1.00  0.00    -0.260 OA
HETATM   17  C9  UNK     1      15.897  12.343  34.582  1.00  0.00     0.090 A 
HETATM   18  C10 UNK     1      18.212  12.687  33.775  1.00  0.00     0.049 C 
ENDBRANCH   5   7
ENDBRANCH   3   5
ENDBRANCH   1   3
BRANCH   1  19
HETATM   19  N2  UNK     1      18.524   3.101  34.864  1.00  0.00    -0.267 N 
HETATM   20  C12 UNK     1      19.217   2.340  35.790  1.00  0.00     0.249 C 
HETATM   21  O3  UNK     1      20.246   2.693  36.364  1.00  0.00    -0.271 OA
HETATM   22  H13 UNK     1      17.786   2.711  34.291  1.00  0.00     0.190 HD
BRANCH  20  23
HETATM   23  C7  UNK     1      18.544   1.002  36.054  1.00  0.00     0.144 C 
HETATM   24  C15 UNK     1      17.925   0.949  37.444  1.00  0.00     0.032 C 
BRANCH  23  25
HETATM   25  S1  UNK     1      17.244   0.783  34.793  1.00  0.00    -0.089 SA
BRANCH  25  26
HETATM   26  C16 UNK     1      18.202   0.172  33.412  1.00  0.00     0.136 A 
HETATM   27  S2  UNK     1      18.819  -1.403  33.400  1.00  0.00    -0.061 SA
HETATM   28  C13 UNK     1      19.501  -1.078  31.850  1.00  0.00     0.036 A 
HETATM   29  C14 UNK     1      19.186   0.232  31.477  1.00  0.00     0.075 A 
HETATM   30  C18 UNK     1      20.259  -1.922  31.022  1.00  0.00     0.021 A 
HETATM   31  N3  UNK     1      18.430   0.942  32.399  1.00  0.00    -0.233 NA
HETATM   32  C19 UNK     1      19.648   0.712  30.233  1.00  0.00     0.033 A 
HETATM   33  C21 UNK     1      20.403  -0.123  29.404  1.00  0.00     0.002 A 
HETATM   34  C20 UNK     1      20.704  -1.423  29.796  1.00  0.00     0.002 A 
ENDBRANCH  25  26
ENDBRANCH  23  25
ENDBRANCH  20  23
ENDBRANCH   1  19
TORSDOF 7
ENDMDL
MODEL 6
REMARK VINA RESULT:      -9.4      4.177      5.662
REMARK  7 active torsions:
REMARK  status: ('A' for Active; 'I' for Inactive)
REMARK    1  A    between atoms: C16_26  and  S1_1 
REMARK    2  A    between atoms: C7_17  and  S1_1 
REMARK    3  A    between atoms: C17_27  and  N1_7 
REMARK    4  A    between atoms: C4_14  and  N1_7 
REMARK       I    between atoms: C12_22  and  N2_8 
REMARK    5  A    between atoms: N2_8  and  N4_10 
REMARK    6  A    between atoms: C17_27  and  N4_10 
REMARK    7  A    between atoms: C12_22  and  C7_17 
ROOT
HETATM    1  N4  UNK     1      20.508  -1.715  32.966  1.00  0.00    -0.274 N 
HETATM    2  H16 UNK     1      21.522  -1.687  32.991  1.00  0.00     0.189 HD
ENDROOT
BRANCH   1   3
HETATM    3  C17 UNK     1      19.799  -1.409  31.810  1.00  0.00     0.191 C 
HETATM    4  S3  UNK     1      20.200  -2.261  30.423  1.00  0.00    -0.039 SA
BRANCH   3   5
HETATM    5  N1  UNK     1      18.811  -0.422  31.981  1.00  0.00    -0.332 N 
HETATM    6  H9  UNK     1      17.979  -0.754  32.457  1.00  0.00     0.168 HD
BRANCH   5   7
HETATM    7  C4  UNK     1      18.756   0.948  31.726  1.00  0.00     0.037 A 
HETATM    8  C8  UNK     1      19.111   1.440  30.470  1.00  0.00     0.030 A 
HETATM    9  C5  UNK     1      19.057   2.813  30.208  1.00  0.00     0.017 A 
HETATM   10  C1  UNK     1      18.649   3.717  31.199  1.00  0.00     0.004 A 
HETATM   11  C2  UNK     1      18.302   3.196  32.446  1.00  0.00     0.092 A 
HETATM   12  C3  UNK     1      18.571   5.169  30.997  1.00  0.00    -0.043 A 
HETATM   13  O1  UNK     1      17.881   4.037  33.496  1.00  0.00    -0.275 OA
HETATM   14  C6  UNK     1      18.349   1.828  32.722  1.00  0.00     0.067 A 
HETATM   15  C11 UNK     1      17.798   5.412  33.334  1.00  0.00     0.288 A 
HETATM   16  O2  UNK     1      17.433   6.153  34.240  1.00  0.00    -0.260 OA
HETATM   17  C9  UNK     1      18.168   5.946  32.012  1.00  0.00     0.090 A 
HETATM   18  C10 UNK     1      18.938   5.761  29.667  1.00  0.00     0.049 C 
ENDBRANCH   5   7
ENDBRANCH   3   5
ENDBRANCH   1   3
BRANCH   1  19
HETATM   19  N2  UNK     1      19.873  -2.098  34.125  1.00  0.00    -0.267 N 
HETATM   20  C12 UNK     1      20.606  -2.182  35.297  1.00  0.00     0.249 C 
HETATM   21  O3  UNK     1      21.808  -1.940  35.395  1.00  0.00    -0.271 OA
HETATM   22  H13 UNK     1      18.935  -2.470  34.050  1.00  0.00     0.190 HD
BRANCH  20  23
HETATM   23  C7  UNK     1      19.747  -2.587  36.484  1.00  0.00     0.144 C 
HETATM   24  C15 UNK     1      18.658  -1.560  36.765  1.00  0.00     0.032 C 
BRANCH  23  25
HETATM   25  S1  UNK     1      18.987  -4.197  36.088  1.00  0.00    -0.089 SA
BRANCH  25  26
HETATM   26  C16 UNK     1      19.937  -5.294  37.134  1.00  0.00     0.136 A 
HETATM   27  S2  UNK     1      19.273  -6.730  37.732  1.00  0.00    -0.061 SA
HETATM   28  C13 UNK     1      20.772  -7.041  38.526  1.00  0.00     0.036 A 
HETATM   29  C14 UNK     1      21.660  -5.996  38.253  1.00  0.00     0.075 A 
HETATM   30  C18 UNK     1      21.137  -8.133  39.330  1.00  0.00     0.021 A 
HETATM   31  N3  UNK     1      21.155  -4.990  37.442  1.00  0.00    -0.233 NA
HETATM   32  C19 UNK     1      22.957  -6.047  38.808  1.00  0.00     0.033 A 
HETATM   33  C21 UNK     1      23.327  -7.130  39.610  1.00  0.00     0.002 A 
HETATM   34  C20 UNK     1      22.427  -8.159  39.867  1.00  0.00     0.002 A 
ENDBRANCH  25  26
ENDBRANCH  23  25
ENDBRANCH  20  23
ENDBRANCH   1  19
TORSDOF 7
ENDMDL
MODEL 7
REMARK VINA RESULT:      -9.3      5.312     11.190
REMARK  7 active torsions:
REMARK  status: ('A' for Active; 'I' for Inactive)
REMARK    1  A    between atoms: C16_26  and  S1_1 
REMARK    2  A    between atoms: C7_17  and  S1_1 
REMARK    3  A    between atoms: C17_27  and  N1_7 
REMARK    4  A    between atoms: C4_14  and  N1_7 
REMARK       I    between atoms: C12_22  and  N2_8 
REMARK    5  A    between atoms: N2_8  and  N4_10 
REMARK    6  A    between atoms: C17_27  and  N4_10 
REMARK    7  A    between atoms: C12_22  and  C7_17 
ROOT
HETATM    1  N4  UNK     1      17.868  -2.420  36.975  1.00  0.00    -0.274 N 
HETATM    2  H16 UNK     1      17.243  -2.787  37.685  1.00  0.00     0.189 HD
ENDROOT
BRANCH   1   3
HETATM    3  C17 UNK     1      18.931  -3.168  36.483  1.00  0.00     0.191 C 
HETATM    4  S3  UNK     1      20.309  -2.327  36.033  1.00  0.00    -0.039 SA
BRANCH   3   5
HETATM    5  N1  UNK     1      18.698  -4.555  36.454  1.00  0.00    -0.332 N 
HETATM    6  H9  UNK     1      17.715  -4.804  36.415  1.00  0.00     0.168 HD
BRANCH   5   7
HETATM    7  C4  UNK     1      19.525  -5.675  36.369  1.00  0.00     0.037 A 
HETATM    8  C8  UNK     1      19.268  -6.664  35.422  1.00  0.00     0.030 A 
HETATM    9  C5  UNK     1      20.094  -7.789  35.333  1.00  0.00     0.017 A 
HETATM   10  C1  UNK     1      21.191  -7.944  36.192  1.00  0.00     0.004 A 
HETATM   11  C2  UNK     1      21.424  -6.938  37.131  1.00  0.00     0.092 A 
HETATM   12  C3  UNK     1      22.099  -9.097  36.157  1.00  0.00    -0.043 A 
HETATM   13  O1  UNK     1      22.505  -7.017  38.031  1.00  0.00    -0.275 OA
HETATM   14  C6  UNK     1      20.608  -5.809  37.231  1.00  0.00     0.067 A 
HETATM   15  C11 UNK     1      23.378  -8.094  38.022  1.00  0.00     0.288 A 
HETATM   16  O2  UNK     1      24.322  -8.173  38.800  1.00  0.00    -0.260 OA
HETATM   17  C9  UNK     1      23.119  -9.147  37.025  1.00  0.00     0.090 A 
HETATM   18  C10 UNK     1      21.876 -10.196  35.159  1.00  0.00     0.049 C 
ENDBRANCH   5   7
ENDBRANCH   3   5
ENDBRANCH   1   3
BRANCH   1  19
HETATM   19  N2  UNK     1      17.592  -1.156  36.505  1.00  0.00    -0.267 N 
HETATM   20  C12 UNK     1      16.724  -1.010  35.437  1.00  0.00     0.249 C 
HETATM   21  O3  UNK     1      16.162  -1.935  34.854  1.00  0.00    -0.271 OA
HETATM   22  H13 UNK     1      18.164  -0.392  36.843  1.00  0.00     0.190 HD
BRANCH  20  23
HETATM   23  C7  UNK     1      16.507   0.449  35.069  1.00  0.00     0.144 C 
HETATM   24  C15 UNK     1      15.643   1.166  36.097  1.00  0.00     0.032 C 
BRANCH  23  25
HETATM   25  S1  UNK     1      18.147   1.243  34.982  1.00  0.00    -0.089 SA
BRANCH  25  26
HETATM   26  C16 UNK     1      18.654   0.811  33.323  1.00  0.00     0.136 A 
HETATM   27  S2  UNK     1      18.471   1.898  32.039  1.00  0.00    -0.061 SA
HETATM   28  C13 UNK     1      19.160   0.711  30.994  1.00  0.00     0.036 A 
HETATM   29  C14 UNK     1      19.473  -0.430  31.740  1.00  0.00     0.075 A 
HETATM   30  C18 UNK     1      19.407   0.784  29.613  1.00  0.00     0.021 A 
HETATM   31  N3  UNK     1      19.170  -0.351  33.092  1.00  0.00    -0.233 NA
HETATM   32  C19 UNK     1      20.052  -1.534  31.079  1.00  0.00     0.033 A 
HETATM   33  C21 UNK     1      20.300  -1.468  29.704  1.00  0.00     0.002 A 
HETATM   34  C20 UNK     1      19.981  -0.323  28.983  1.00  0.00     0.002 A 
ENDBRANCH  25  26
ENDBRANCH  23  25
ENDBRANCH  20  23
ENDBRANCH   1  19
TORSDOF 7
ENDMDL
MODEL 8
REMARK VINA RESULT:      -9.3      3.202      8.217
REMARK  7 active torsions:
REMARK  status: ('A' for Active; 'I' for Inactive)
REMARK    1  A    between atoms: C16_26  and  S1_1 
REMARK    2  A    between atoms: C7_17  and  S1_1 
REMARK    3  A    between atoms: C17_27  and  N1_7 
REMARK    4  A    between atoms: C4_14  and  N1_7 
REMARK       I    between atoms: C12_22  and  N2_8 
REMARK    5  A    between atoms: N2_8  and  N4_10 
REMARK    6  A    between atoms: C17_27  and  N4_10 
REMARK    7  A    between atoms: C12_22  and  C7_17 
ROOT
HETATM    1  N4  UNK     1      19.453   1.898  30.033  1.00  0.00    -0.274 N 
HETATM    2  H16 UNK     1      19.845   2.334  29.205  1.00  0.00     0.189 HD
ENDROOT
BRANCH   1   3
HETATM    3  C17 UNK     1      19.513   0.523  30.231  1.00  0.00     0.191 C 
HETATM    4  S3  UNK     1      20.629  -0.329  29.313  1.00  0.00    -0.039 SA
BRANCH   3   5
HETATM    5  N1  UNK     1      18.626   0.039  31.208  1.00  0.00    -0.332 N 
HETATM    6  H9  UNK     1      17.664  -0.024  30.892  1.00  0.00     0.168 HD
BRANCH   5   7
HETATM    7  C4  UNK     1      18.787  -0.469  32.497  1.00  0.00     0.037 A 
HETATM    8  C8  UNK     1      19.515  -1.640  32.700  1.00  0.00     0.030 A 
HETATM    9  C5  UNK     1      19.680  -2.155  33.991  1.00  0.00     0.017 A 
HETATM   10  C1  UNK     1      19.119  -1.505  35.099  1.00  0.00     0.004 A 
HETATM   11  C2  UNK     1      18.395  -0.336  34.865  1.00  0.00     0.092 A 
HETATM   12  C3  UNK     1      19.249  -1.987  36.480  1.00  0.00    -0.043 A 
HETATM   13  O1  UNK     1      17.799   0.377  35.925  1.00  0.00    -0.275 OA
HETATM   14  C6  UNK     1      18.222   0.190  33.583  1.00  0.00     0.067 A 
HETATM   15  C11 UNK     1      17.905  -0.054  37.238  1.00  0.00     0.288 A 
HETATM   16  O2  UNK     1      17.391   0.558  38.168  1.00  0.00    -0.260 OA
HETATM   17  C9  UNK     1      18.672  -1.290  37.469  1.00  0.00     0.090 A 
HETATM   18  C10 UNK     1      20.021  -3.243  36.766  1.00  0.00     0.049 C 
ENDBRANCH   5   7
ENDBRANCH   3   5
ENDBRANCH   1   3
BRANCH   1  19
HETATM   19  N2  UNK     1      18.884   2.739  30.961  1.00  0.00    -0.267 N 
HETATM   20  C12 UNK     1      18.813   4.094  30.686  1.00  0.00     0.249 C 
HETATM   21  O3  UNK     1      19.228   4.627  29.659  1.00  0.00    -0.271 OA
HETATM   22  H13 UNK     1      18.691   2.366  31.882  1.00  0.00     0.190 HD
BRANCH  20  23
HETATM   23  C7  UNK     1      18.129   4.871  31.800  1.00  0.00     0.144 C 
HETATM   24  C15 UNK     1      18.224   4.143  33.134  1.00  0.00     0.032 C 
BRANCH  23  25
HETATM   25  S1  UNK     1      18.954   6.493  31.924  1.00  0.00    -0.089 SA
BRANCH  25  26
HETATM   26  C16 UNK     1      17.610   7.521  32.504  1.00  0.00     0.136 A 
HETATM   27  S2  UNK     1      15.997   7.056  32.297  1.00  0.00    -0.061 SA
HETATM   28  C13 UNK     1      15.521   8.515  33.086  1.00  0.00     0.036 A 
HETATM   29  C14 UNK     1      16.665   9.236  33.442  1.00  0.00     0.075 A 
HETATM   30  C18 UNK     1      14.229   8.986  33.370  1.00  0.00     0.021 A 
HETATM   31  N3  UNK     1      17.869   8.641  33.095  1.00  0.00    -0.233 NA
HETATM   32  C19 UNK     1      16.507  10.473  34.104  1.00  0.00     0.033 A 
HETATM   33  C21 UNK     1      15.223  10.948  34.390  1.00  0.00     0.002 A 
HETATM   34  C20 UNK     1      14.100  10.212  34.026  1.00  0.00     0.002 A 
ENDBRANCH  25  26
ENDBRANCH  23  25
ENDBRANCH  20  23
ENDBRANCH   1  19
TORSDOF 7
ENDMDL
MODEL 9
REMARK VINA RESULT:      -9.3      4.838      6.368
REMARK  7 active torsions:
REMARK  status: ('A' for Active; 'I' for Inactive)
REMARK    1  A    between atoms: C16_26  and  S1_1 
REMARK    2  A    between atoms: C7_17  and  S1_1 
REMARK    3  A    between atoms: C17_27  and  N1_7 
REMARK    4  A    between atoms: C4_14  and  N1_7 
REMARK       I    between atoms: C12_22  and  N2_8 
REMARK    5  A    between atoms: N2_8  and  N4_10 
REMARK    6  A    between atoms: C17_27  and  N4_10 
REMARK    7  A    between atoms: C12_22  and  C7_17 
ROOT
HETATM    1  N4  UNK     1      19.194  -0.831  35.013  1.00  0.00    -0.274 N 
HETATM    2  H16 UNK     1      19.705  -0.106  35.505  1.00  0.00     0.189 HD
ENDROOT
BRANCH   1   3
HETATM    3  C17 UNK     1      18.109  -0.532  34.197  1.00  0.00     0.191 C 
HETATM    4  S3  UNK     1      16.588  -0.929  34.778  1.00  0.00    -0.039 SA
BRANCH   3   5
HETATM    5  N1  UNK     1      18.451   0.093  32.985  1.00  0.00    -0.332 N 
HETATM    6  H9  UNK     1      18.655  -0.556  32.232  1.00  0.00     0.168 HD
BRANCH   5   7
HETATM    7  C4  UNK     1      18.482   1.420  32.554  1.00  0.00     0.037 A 
HETATM    8  C8  UNK     1      18.797   1.716  31.229  1.00  0.00     0.030 A 
HETATM    9  C5  UNK     1      18.829   3.045  30.791  1.00  0.00     0.017 A 
HETATM   10  C1  UNK     1      18.549   4.098  31.672  1.00  0.00     0.004 A 
HETATM   11  C2  UNK     1      18.239   3.771  32.993  1.00  0.00     0.092 A 
HETATM   12  C3  UNK     1      18.566   5.514  31.284  1.00  0.00    -0.043 A 
HETATM   13  O1  UNK     1      17.946   4.770  33.942  1.00  0.00    -0.275 OA
HETATM   14  C6  UNK     1      18.202   2.450  33.444  1.00  0.00     0.067 A 
HETATM   15  C11 UNK     1      17.954   6.115  33.604  1.00  0.00     0.288 A 
HETATM   16  O2  UNK     1      17.700   6.993  34.422  1.00  0.00    -0.260 OA
HETATM   17  C9  UNK     1      18.283   6.444  32.207  1.00  0.00     0.090 A 
HETATM   18  C10 UNK     1      18.896   5.900  29.871  1.00  0.00     0.049 C 
ENDBRANCH   5   7
ENDBRANCH   3   5
ENDBRANCH   1   3
BRANCH   1  19
HETATM   19  N2  UNK     1      19.647  -2.120  35.173  1.00  0.00    -0.267 N 
HETATM   20  C12 UNK     1      19.522  -2.728  36.411  1.00  0.00     0.249 C 
HETATM   21  O3  UNK     1      19.031  -2.201  37.408  1.00  0.00    -0.271 OA
HETATM   22  H13 UNK     1      20.208  -2.520  34.432  1.00  0.00     0.190 HD
BRANCH  20  23
HETATM   23  C7  UNK     1      20.042  -4.157  36.405  1.00  0.00     0.144 C 
HETATM   24  C15 UNK     1      21.006  -4.409  37.557  1.00  0.00     0.032 C 
BRANCH  23  25
HETATM   25  S1  UNK     1      18.601  -5.265  36.555  1.00  0.00    -0.089 SA
BRANCH  25  26
HETATM   26  C16 UNK     1      19.395  -6.867  36.555  1.00  0.00     0.136 A 
HETATM   27  S2  UNK     1      19.193  -7.948  37.840  1.00  0.00    -0.061 SA
HETATM   28  C13 UNK     1      20.220  -9.059  37.011  1.00  0.00     0.036 A 
HETATM   29  C14 UNK     1      20.630  -8.487  35.803  1.00  0.00     0.075 A 
HETATM   30  C18 UNK     1      20.631 -10.343  37.401  1.00  0.00     0.021 A 
HETATM   31  N3  UNK     1      20.140  -7.213  35.556  1.00  0.00    -0.233 NA
HETATM   32  C19 UNK     1      21.484  -9.229  34.958  1.00  0.00     0.033 A 
HETATM   33  C21 UNK     1      21.898 -10.509  35.341  1.00  0.00     0.002 A 
HETATM   34  C20 UNK     1      21.476 -11.056  36.547  1.00  0.00     0.002 A 
ENDBRANCH  25  26
ENDBRANCH  23  25
ENDBRANCH  20  23
ENDBRANCH   1  19
TORSDOF 7
ENDMDL
MODEL 10
REMARK VINA RESULT:      -9.1      5.747     11.297
REMARK  7 active torsions:
REMARK  status: ('A' for Active; 'I' for Inactive)
REMARK    1  A    between atoms: C16_26  and  S1_1 
REMARK    2  A    between atoms: C7_17  and  S1_1 
REMARK    3  A    between atoms: C17_27  and  N1_7 
REMARK    4  A    between atoms: C4_14  and  N1_7 
REMARK       I    between atoms: C12_22  and  N2_8 
REMARK    5  A    between atoms: N2_8  and  N4_10 
REMARK    6  A    between atoms: C17_27  and  N4_10 
REMARK    7  A    between atoms: C12_22  and  C7_17 
ROOT
HETATM    1  N4  UNK     1      17.862  -2.531  36.738  1.00  0.00    -0.274 N 
HETATM    2  H16 UNK     1      17.194  -3.124  37.221  1.00  0.00     0.189 HD
ENDROOT
BRANCH   1   3
HETATM    3  C17 UNK     1      19.066  -3.032  36.257  1.00  0.00     0.191 C 
HETATM    4  S3  UNK     1      20.265  -1.916  35.899  1.00  0.00    -0.039 SA
BRANCH   3   5
HETATM    5  N1  UNK     1      19.111  -4.434  36.158  1.00  0.00    -0.332 N 
HETATM    6  H9  UNK     1      18.717  -4.797  35.297  1.00  0.00     0.168 HD
BRANCH   5   7
HETATM    7  C4  UNK     1      19.668  -5.443  36.944  1.00  0.00     0.037 A 
HETATM    8  C8  UNK     1      20.762  -5.167  37.763  1.00  0.00     0.030 A 
HETATM    9  C5  UNK     1      21.325  -6.175  38.554  1.00  0.00     0.017 A 
HETATM   10  C1  UNK     1      20.803  -7.476  38.535  1.00  0.00     0.004 A 
HETATM   11  C2  UNK     1      19.709  -7.723  37.705  1.00  0.00     0.092 A 
HETATM   12  C3  UNK     1      21.343  -8.584  39.335  1.00  0.00    -0.043 A 
HETATM   13  O1  UNK     1      19.126  -9.004  37.628  1.00  0.00    -0.275 OA
HETATM   14  C6  UNK     1      19.136  -6.727  36.911  1.00  0.00     0.067 A 
HETATM   15  C11 UNK     1      19.615 -10.068  38.371  1.00  0.00     0.288 A 
HETATM   16  O2  UNK     1      19.115 -11.186  38.313  1.00  0.00    -0.260 OA
HETATM   17  C9  UNK     1      20.769  -9.791  39.243  1.00  0.00     0.090 A 
HETATM   18  C10 UNK     1      22.519  -8.351  40.239  1.00  0.00     0.049 C 
ENDBRANCH   5   7
ENDBRANCH   3   5
ENDBRANCH   1   3
BRANCH   1  19
HETATM   19  N2  UNK     1      17.502  -1.215  36.562  1.00  0.00    -0.267 N 
HETATM   20  C12 UNK     1      16.599  -0.893  35.563  1.00  0.00     0.249 C 
HETATM   21  O3  UNK     1      16.078  -1.701  34.797  1.00  0.00    -0.271 OA
HETATM   22  H13 UNK     1      18.037  -0.509  37.053  1.00  0.00     0.190 HD
BRANCH  20  23
HETATM   23  C7  UNK     1      16.289   0.595  35.527  1.00  0.00     0.144 C 
HETATM   24  C15 UNK     1      15.515   1.038  36.762  1.00  0.00     0.032 C 
BRANCH  23  25
HETATM   25  S1  UNK     1      17.880   1.485  35.446  1.00  0.00    -0.089 SA
BRANCH  25  26
HETATM   26  C16 UNK     1      18.227   1.414  33.693  1.00  0.00     0.136 A 
HETATM   27  S2  UNK     1      18.916   0.039  32.990  1.00  0.00    -0.061 SA
HETATM   28  C13 UNK     1      18.863   0.845  31.465  1.00  0.00     0.036 A 
HETATM   29  C14 UNK     1      18.310   2.118  31.640  1.00  0.00     0.075 A 
HETATM   30  C18 UNK     1      19.279   0.384  30.206  1.00  0.00     0.021 A 
HETATM   31  N3  UNK     1      17.947   2.429  32.943  1.00  0.00    -0.233 NA
HETATM   32  C19 UNK     1      18.172   2.957  30.514  1.00  0.00     0.033 A 
HETATM   33  C21 UNK     1      18.584   2.504  29.257  1.00  0.00     0.002 A 
HETATM   34  C20 UNK     1      19.130   1.234  29.107  1.00  0.00     0.002 A 
ENDBRANCH  25  26
ENDBRANCH  23  25
ENDBRANCH  20  23
ENDBRANCH   1  19
TORSDOF 7
ENDMDL
