MODEL 1
REMARK VINA RESULT:      -8.7      0.000      0.000
REMARK  6 active torsions:
REMARK  status: ('A' for Active; 'I' for Inactive)
REMARK    1  A    between atoms: C17_21  and  O1_2 
REMARK    2  A    between atoms: C21_25  and  O1_2 
REMARK    3  A    between atoms: C3_7  and  C8_12 
REMARK    4  A    between atoms: C12_16  and  C14_18 
REMARK    5  A    between atoms: C13_17  and  C14_18 
REMARK    6  A    between atoms: C20_24  and  C21_25 
ROOT
HETATM    1  C12 UNK     1      23.329 -10.611  35.968  1.00  0.00     0.014 A 
HETATM    2  C15 UNK     1      23.794  -9.398  36.475  1.00  0.00     0.018 A 
HETATM    3  C16 UNK     1      24.179 -11.715  35.911  1.00  0.00     0.018 A 
HETATM    4  C17 UNK     1      25.959 -10.393  36.870  1.00  0.00     0.079 A 
HETATM    5  C18 UNK     1      25.109  -9.288  36.927  1.00  0.00     0.038 A 
HETATM    6  C19 UNK     1      25.495 -11.606  36.363  1.00  0.00     0.038 A 
ENDROOT
BRANCH   1   7
HETATM    7  C14 UNK     1      21.932 -10.727  35.486  1.00  0.00     0.182 C 
HETATM    8  O2  UNK     1      21.665 -10.452  34.321  1.00  0.00    -0.288 OA
BRANCH   7   9
HETATM    9  C13 UNK     1      20.895 -11.148  36.470  1.00  0.00     0.056 C 
HETATM   10  C8  UNK     1      20.175 -10.220  37.132  1.00  0.00     0.016 C 
BRANCH  10  11
HETATM   11  C3  UNK     1      20.321  -8.775  36.970  1.00  0.00    -0.025 A 
HETATM   12  C1  UNK     1      21.108  -7.987  37.826  1.00  0.00    -0.016 A 
HETATM   13  C2  UNK     1      21.195  -6.593  37.598  1.00  0.00    -0.025 A 
HETATM   14  C4  UNK     1      21.809  -8.552  38.904  1.00  0.00     0.013 A 
HETATM   15  C5  UNK     1      20.493  -6.028  36.520  1.00  0.00     0.012 A 
HETATM   16  C7  UNK     1      21.981  -5.805  38.455  1.00  0.00     0.012 A 
HETATM   17  C9  UNK     1      19.717  -6.826  35.680  1.00  0.00     0.002 A 
HETATM   18  C6  UNK     1      19.631  -8.197  35.904  1.00  0.00     0.012 A 
HETATM   19  C11 UNK     1      22.671  -6.383  39.520  1.00  0.00     0.001 A 
HETATM   20  C10 UNK     1      22.585  -7.754  39.744  1.00  0.00     0.001 A 
ENDBRANCH  10  11
ENDBRANCH   7   9
ENDBRANCH   1   7
BRANCH   4  21
HETATM   21  O1  UNK     1      27.244 -10.285  37.311  1.00  0.00    -0.275 OA
BRANCH  21  22
HETATM   22  C21 UNK     1      27.363  -9.854  38.634  1.00  0.00     0.305 C 
HETATM   23  O3  UNK     1      26.941 -10.445  39.616  1.00  0.00    -0.258 OA
BRANCH  22  24
HETATM   24  C20 UNK     1      28.072  -8.551  38.712  1.00  0.00     0.080 A 
HETATM   25  S1  UNK     1      29.587  -8.379  37.933  1.00  0.00    -0.096 SA
HETATM   26  C24 UNK     1      29.727  -6.751  38.445  1.00  0.00     0.050 A 
HETATM   27  C23 UNK     1      28.642  -6.350  39.193  1.00  0.00     0.009 A 
HETATM   28  C22 UNK     1      27.683  -7.393  39.347  1.00  0.00     0.025 A 
ENDBRANCH  22  24
ENDBRANCH  21  22
ENDBRANCH   4  21
TORSDOF 6
ENDMDL
MODEL 2
REMARK VINA RESULT:      -8.7     14.694     17.922
REMARK  6 active torsions:
REMARK  status: ('A' for Active; 'I' for Inactive)
REMARK    1  A    between atoms: C17_21  and  O1_2 
REMARK    2  A    between atoms: C21_25  and  O1_2 
REMARK    3  A    between atoms: C3_7  and  C8_12 
REMARK    4  A    between atoms: C12_16  and  C14_18 
REMARK    5  A    between atoms: C13_17  and  C14_18 
REMARK    6  A    between atoms: C20_24  and  C21_25 
ROOT
HETATM    1  C12 UNK     1      17.218   6.462  31.513  1.00  0.00     0.014 A 
HETATM    2  C15 UNK     1      17.219   5.267  32.231  1.00  0.00     0.018 A 
HETATM    3  C16 UNK     1      18.020   6.596  30.380  1.00  0.00     0.018 A 
HETATM    4  C17 UNK     1      18.825   4.339  30.683  1.00  0.00     0.079 A 
HETATM    5  C18 UNK     1      18.023   4.204  31.816  1.00  0.00     0.038 A 
HETATM    6  C19 UNK     1      18.824   5.534  29.965  1.00  0.00     0.038 A 
ENDROOT
BRANCH   1   7
HETATM    7  C14 UNK     1      16.364   7.591  31.954  1.00  0.00     0.182 C 
HETATM    8  O2  UNK     1      16.240   8.576  31.235  1.00  0.00    -0.288 OA
BRANCH   7   9
HETATM    9  C13 UNK     1      15.713   7.484  33.290  1.00  0.00     0.056 C 
HETATM   10  C8  UNK     1      16.269   8.084  34.362  1.00  0.00     0.016 C 
BRANCH  10  11
HETATM   11  C3  UNK     1      17.505   8.862  34.339  1.00  0.00    -0.025 A 
HETATM   12  C1  UNK     1      17.525  10.259  34.190  1.00  0.00    -0.016 A 
HETATM   13  C2  UNK     1      18.768  10.936  34.179  1.00  0.00    -0.025 A 
HETATM   14  C4  UNK     1      16.338  10.997  34.051  1.00  0.00     0.013 A 
HETATM   15  C5  UNK     1      19.954  10.197  34.316  1.00  0.00     0.012 A 
HETATM   16  C7  UNK     1      18.787  12.333  34.028  1.00  0.00     0.012 A 
HETATM   17  C9  UNK     1      19.916   8.810  34.463  1.00  0.00     0.002 A 
HETATM   18  C6  UNK     1      18.694   8.144  34.475  1.00  0.00     0.012 A 
HETATM   19  C11 UNK     1      17.599  13.051  33.893  1.00  0.00     0.001 A 
HETATM   20  C10 UNK     1      16.377  12.384  33.904  1.00  0.00     0.001 A 
ENDBRANCH  10  11
ENDBRANCH   7   9
ENDBRANCH   1   7
BRANCH   4  21
HETATM   21  O1  UNK     1      19.610   3.301  30.279  1.00  0.00    -0.275 OA
BRANCH  21  22
HETATM   22  C21 UNK     1      18.928   2.303  29.580  1.00  0.00     0.305 C 
HETATM   23  O3  UNK     1      18.088   2.489  28.713  1.00  0.00    -0.258 OA
BRANCH  22  24
HETATM   24  C20 UNK     1      19.345   0.951  30.032  1.00  0.00     0.080 A 
HETATM   25  S1  UNK     1      19.937  -0.168  28.879  1.00  0.00    -0.096 SA
HETATM   26  C24 UNK     1      20.175  -1.364  30.081  1.00  0.00     0.050 A 
HETATM   27  C23 UNK     1      19.810  -0.918  31.332  1.00  0.00     0.009 A 
HETATM   28  C22 UNK     1      19.329   0.423  31.304  1.00  0.00     0.025 A 
ENDBRANCH  22  24
ENDBRANCH  21  22
ENDBRANCH   4  21
TORSDOF 6
ENDMDL
MODEL 3
REMARK VINA RESULT:      -8.6      5.795      8.993
REMARK  6 active torsions:
REMARK  status: ('A' for Active; 'I' for Inactive)
REMARK    1  A    between atoms: C17_21  and  O1_2 
REMARK    2  A    between atoms: C21_25  and  O1_2 
REMARK    3  A    between atoms: C3_7  and  C8_12 
REMARK    4  A    between atoms: C12_16  and  C14_18 
REMARK    5  A    between atoms: C13_17  and  C14_18 
REMARK    6  A    between atoms: C20_24  and  C21_25 
ROOT
HETATM    1  C12 UNK     1      28.336  -7.911  35.109  1.00  0.00     0.014 A 
HETATM    2  C15 UNK     1      28.271  -6.591  34.665  1.00  0.00     0.018 A 
HETATM    3  C16 UNK     1      28.839  -8.905  34.269  1.00  0.00     0.018 A 
HETATM    4  C17 UNK     1      29.212  -7.257  32.542  1.00  0.00     0.079 A 
HETATM    5  C18 UNK     1      28.709  -6.263  33.381  1.00  0.00     0.038 A 
HETATM    6  C19 UNK     1      29.277  -8.578  32.985  1.00  0.00     0.038 A 
ENDROOT
BRANCH   1   7
HETATM    7  C14 UNK     1      27.870  -8.259  36.472  1.00  0.00     0.182 C 
HETATM    8  O2  UNK     1      26.745  -7.928  36.833  1.00  0.00    -0.288 OA
BRANCH   7   9
HETATM    9  C13 UNK     1      28.820  -8.978  37.365  1.00  0.00     0.056 C 
HETATM   10  C8  UNK     1      29.734  -8.288  38.076  1.00  0.00     0.016 C 
BRANCH  10  11
HETATM   11  C3  UNK     1      29.889  -6.835  38.052  1.00  0.00    -0.025 A 
HETATM   12  C1  UNK     1      30.787  -6.177  37.195  1.00  0.00    -0.016 A 
HETATM   13  C2  UNK     1      30.874  -4.764  37.237  1.00  0.00    -0.025 A 
HETATM   14  C4  UNK     1      31.600  -6.889  36.299  1.00  0.00     0.013 A 
HETATM   15  C5  UNK     1      30.061  -4.053  38.134  1.00  0.00     0.012 A 
HETATM   16  C7  UNK     1      31.772  -4.107  36.380  1.00  0.00     0.012 A 
HETATM   17  C9  UNK     1      29.175  -4.722  38.978  1.00  0.00     0.002 A 
HETATM   18  C6  UNK     1      29.089  -6.111  38.937  1.00  0.00     0.012 A 
HETATM   19  C11 UNK     1      32.571  -4.830  35.496  1.00  0.00     0.001 A 
HETATM   20  C10 UNK     1      32.486  -6.219  35.455  1.00  0.00     0.001 A 
ENDBRANCH  10  11
ENDBRANCH   7   9
ENDBRANCH   1   7
BRANCH   4  21
HETATM   21  O1  UNK     1      29.640  -6.938  31.289  1.00  0.00    -0.275 OA
BRANCH  21  22
HETATM   22  C21 UNK     1      28.655  -7.033  30.304  1.00  0.00     0.305 C 
HETATM   23  O3  UNK     1      27.729  -6.251  30.146  1.00  0.00    -0.258 OA
BRANCH  22  24
HETATM   24  C20 UNK     1      28.861  -8.232  29.453  1.00  0.00     0.080 A 
HETATM   25  S1  UNK     1      30.365  -8.446  28.663  1.00  0.00    -0.096 SA
HETATM   26  C24 UNK     1      29.846  -9.916  27.955  1.00  0.00     0.050 A 
HETATM   27  C23 UNK     1      28.555 -10.235  28.314  1.00  0.00     0.009 A 
HETATM   28  C22 UNK     1      27.984  -9.259  29.182  1.00  0.00     0.025 A 
ENDBRANCH  22  24
ENDBRANCH  21  22
ENDBRANCH   4  21
TORSDOF 6
ENDMDL
MODEL 4
REMARK VINA RESULT:      -8.4      7.442      9.763
REMARK  6 active torsions:
REMARK  status: ('A' for Active; 'I' for Inactive)
REMARK    1  A    between atoms: C17_21  and  O1_2 
REMARK    2  A    between atoms: C21_25  and  O1_2 
REMARK    3  A    between atoms: C3_7  and  C8_12 
REMARK    4  A    between atoms: C12_16  and  C14_18 
REMARK    5  A    between atoms: C13_17  and  C14_18 
REMARK    6  A    between atoms: C20_24  and  C21_25 
ROOT
HETATM    1  C12 UNK     1      32.202  -9.112  31.216  1.00  0.00     0.014 A 
HETATM    2  C15 UNK     1      31.238  -9.901  31.841  1.00  0.00     0.018 A 
HETATM    3  C16 UNK     1      32.692  -7.972  31.853  1.00  0.00     0.018 A 
HETATM    4  C17 UNK     1      31.252  -8.412  33.743  1.00  0.00     0.079 A 
HETATM    5  C18 UNK     1      30.762  -9.552  33.105  1.00  0.00     0.038 A 
HETATM    6  C19 UNK     1      32.216  -7.622  33.118  1.00  0.00     0.038 A 
ENDROOT
BRANCH   1   7
HETATM    7  C14 UNK     1      32.706  -9.483  29.872  1.00  0.00     0.182 C 
HETATM    8  O2  UNK     1      33.098 -10.626  29.663  1.00  0.00    -0.288 OA
BRANCH   7   9
HETATM    9  C13 UNK     1      32.742  -8.419  28.829  1.00  0.00     0.056 C 
HETATM   10  C8  UNK     1      31.599  -8.005  28.247  1.00  0.00     0.016 C 
BRANCH  10  11
HETATM   11  C3  UNK     1      30.268  -8.523  28.553  1.00  0.00    -0.025 A 
HETATM   12  C1  UNK     1      29.373  -7.866  29.413  1.00  0.00    -0.016 A 
HETATM   13  C2  UNK     1      28.100  -8.437  29.655  1.00  0.00    -0.025 A 
HETATM   14  C4  UNK     1      29.713  -6.656  30.039  1.00  0.00     0.013 A 
HETATM   15  C5  UNK     1      27.761  -9.648  29.030  1.00  0.00     0.012 A 
HETATM   16  C7  UNK     1      27.206  -7.781  30.517  1.00  0.00     0.012 A 
HETATM   17  C9  UNK     1      28.662 -10.287  28.178  1.00  0.00     0.002 A 
HETATM   18  C6  UNK     1      29.913  -9.726  27.940  1.00  0.00     0.012 A 
HETATM   19  C11 UNK     1      27.560  -6.579  31.129  1.00  0.00     0.001 A 
HETATM   20  C10 UNK     1      28.811  -6.017  30.891  1.00  0.00     0.001 A 
ENDBRANCH  10  11
ENDBRANCH   7   9
ENDBRANCH   1   7
BRANCH   4  21
HETATM   21  O1  UNK     1      30.788  -8.071  34.977  1.00  0.00    -0.275 OA
BRANCH  21  22
HETATM   22  C21 UNK     1      29.955  -6.950  34.989  1.00  0.00     0.305 C 
HETATM   23  O3  UNK     1      28.933  -6.816  34.331  1.00  0.00    -0.258 OA
BRANCH  22  24
HETATM   24  C20 UNK     1      30.473  -5.905  35.907  1.00  0.00     0.080 A 
HETATM   25  S1  UNK     1      29.647  -5.601  37.376  1.00  0.00    -0.096 SA
HETATM   26  C24 UNK     1      30.765  -4.381  37.817  1.00  0.00     0.050 A 
HETATM   27  C23 UNK     1      31.745  -4.211  36.864  1.00  0.00     0.009 A 
HETATM   28  C22 UNK     1      31.577  -5.094  35.758  1.00  0.00     0.025 A 
ENDBRANCH  22  24
ENDBRANCH  21  22
ENDBRANCH   4  21
TORSDOF 6
ENDMDL
MODEL 5
REMARK VINA RESULT:      -8.4      5.018      9.666
REMARK  6 active torsions:
REMARK  status: ('A' for Active; 'I' for Inactive)
REMARK    1  A    between atoms: C17_21  and  O1_2 
REMARK    2  A    between atoms: C21_25  and  O1_2 
REMARK    3  A    between atoms: C3_7  and  C8_12 
REMARK    4  A    between atoms: C12_16  and  C14_18 
REMARK    5  A    between atoms: C13_17  and  C14_18 
REMARK    6  A    between atoms: C20_24  and  C21_25 
ROOT
HETATM    1  C12 UNK     1      31.300  -5.016  36.554  1.00  0.00     0.014 A 
HETATM    2  C15 UNK     1      31.372  -4.445  37.824  1.00  0.00     0.018 A 
HETATM    3  C16 UNK     1      30.192  -5.785  36.197  1.00  0.00     0.018 A 
HETATM    4  C17 UNK     1      29.230  -5.412  38.382  1.00  0.00     0.079 A 
HETATM    5  C18 UNK     1      30.337  -4.643  38.738  1.00  0.00     0.038 A 
HETATM    6  C19 UNK     1      29.157  -5.984  37.111  1.00  0.00     0.038 A 
ENDROOT
BRANCH   1   7
HETATM    7  C14 UNK     1      32.400  -4.807  35.583  1.00  0.00     0.182 C 
HETATM    8  O2  UNK     1      32.139  -4.500  34.425  1.00  0.00    -0.288 OA
BRANCH   7   9
HETATM    9  C13 UNK     1      33.795  -5.015  36.064  1.00  0.00     0.056 C 
HETATM   10  C8  UNK     1      34.334  -6.251  36.058  1.00  0.00     0.016 C 
BRANCH  10  11
HETATM   11  C3  UNK     1      33.651  -7.460  35.605  1.00  0.00    -0.025 A 
HETATM   12  C1  UNK     1      32.816  -8.223  36.438  1.00  0.00    -0.016 A 
HETATM   13  C2  UNK     1      32.191  -9.381  35.918  1.00  0.00    -0.025 A 
HETATM   14  C4  UNK     1      32.588  -7.861  37.776  1.00  0.00     0.013 A 
HETATM   15  C5  UNK     1      32.420  -9.743  34.581  1.00  0.00     0.012 A 
HETATM   16  C7  UNK     1      31.358 -10.145  36.752  1.00  0.00     0.012 A 
HETATM   17  C9  UNK     1      33.252  -8.974  33.767  1.00  0.00     0.002 A 
HETATM   18  C6  UNK     1      33.866  -7.834  34.278  1.00  0.00     0.012 A 
HETATM   19  C11 UNK     1      31.142  -9.770  38.078  1.00  0.00     0.001 A 
HETATM   20  C10 UNK     1      31.756  -8.630  38.589  1.00  0.00     0.001 A 
ENDBRANCH  10  11
ENDBRANCH   7   9
ENDBRANCH   1   7
BRANCH   4  21
HETATM   21  O1  UNK     1      28.219  -5.605  39.274  1.00  0.00    -0.275 OA
BRANCH  21  22
HETATM   22  C21 UNK     1      27.080  -6.204  38.733  1.00  0.00     0.305 C 
HETATM   23  O3  UNK     1      26.124  -5.612  38.255  1.00  0.00    -0.258 OA
BRANCH  22  24
HETATM   24  C20 UNK     1      27.160  -7.684  38.818  1.00  0.00     0.080 A 
HETATM   25  S1  UNK     1      26.449  -8.630  37.579  1.00  0.00    -0.096 SA
HETATM   26  C24 UNK     1      26.927 -10.087  38.342  1.00  0.00     0.050 A 
HETATM   27  C23 UNK     1      27.613  -9.856  39.514  1.00  0.00     0.009 A 
HETATM   28  C22 UNK     1      27.748  -8.463  39.790  1.00  0.00     0.025 A 
ENDBRANCH  22  24
ENDBRANCH  21  22
ENDBRANCH   4  21
TORSDOF 6
ENDMDL
MODEL 6
REMARK VINA RESULT:      -8.3     13.442     16.592
REMARK  6 active torsions:
REMARK  status: ('A' for Active; 'I' for Inactive)
REMARK    1  A    between atoms: C17_21  and  O1_2 
REMARK    2  A    between atoms: C21_25  and  O1_2 
REMARK    3  A    between atoms: C3_7  and  C8_12 
REMARK    4  A    between atoms: C12_16  and  C14_18 
REMARK    5  A    between atoms: C13_17  and  C14_18 
REMARK    6  A    between atoms: C20_24  and  C21_25 
ROOT
HETATM    1  C12 UNK     1      18.769   5.027  31.457  1.00  0.00     0.014 A 
HETATM    2  C15 UNK     1      18.336   4.130  32.433  1.00  0.00     0.018 A 
HETATM    3  C16 UNK     1      19.032   4.578  30.163  1.00  0.00     0.018 A 
HETATM    4  C17 UNK     1      18.428   2.333  30.821  1.00  0.00     0.079 A 
HETATM    5  C18 UNK     1      18.165   2.782  32.115  1.00  0.00     0.038 A 
HETATM    6  C19 UNK     1      18.861   3.230  29.844  1.00  0.00     0.038 A 
ENDROOT
BRANCH   1   7
HETATM    7  C14 UNK     1      18.952   6.459  31.796  1.00  0.00     0.182 C 
HETATM    8  O2  UNK     1      18.355   7.316  31.154  1.00  0.00    -0.288 OA
BRANCH   7   9
HETATM    9  C13 UNK     1      19.895   6.793  32.900  1.00  0.00     0.056 C 
HETATM   10  C8  UNK     1      19.469   7.513  33.957  1.00  0.00     0.016 C 
BRANCH  10  11
HETATM   11  C3  UNK     1      18.110   8.019  34.132  1.00  0.00    -0.025 A 
HETATM   12  C1  UNK     1      17.800   9.389  34.137  1.00  0.00    -0.016 A 
HETATM   13  C2  UNK     1      16.455   9.795  34.312  1.00  0.00    -0.025 A 
HETATM   14  C4  UNK     1      18.796  10.366  33.972  1.00  0.00     0.013 A 
HETATM   15  C5  UNK     1      15.460   8.818  34.478  1.00  0.00     0.012 A 
HETATM   16  C7  UNK     1      16.147  11.165  34.317  1.00  0.00     0.012 A 
HETATM   17  C9  UNK     1      15.785   7.461  34.470  1.00  0.00     0.002 A 
HETATM   18  C6  UNK     1      17.107   7.062  34.298  1.00  0.00     0.012 A 
HETATM   19  C11 UNK     1      17.148  12.121  34.151  1.00  0.00     0.001 A 
HETATM   20  C10 UNK     1      18.470  11.722  33.979  1.00  0.00     0.001 A 
ENDBRANCH  10  11
ENDBRANCH   7   9
ENDBRANCH   1   7
BRANCH   4  21
HETATM   21  O1  UNK     1      18.261   1.017  30.510  1.00  0.00    -0.275 OA
BRANCH  21  22
HETATM   22  C21 UNK     1      19.443   0.351  30.177  1.00  0.00     0.305 C 
HETATM   23  O3  UNK     1      20.112   0.549  29.174  1.00  0.00    -0.258 OA
BRANCH  22  24
HETATM   24  C20 UNK     1      19.795  -0.663  31.203  1.00  0.00     0.080 A 
HETATM   25  S1  UNK     1      18.832  -0.792  32.613  1.00  0.00    -0.096 SA
HETATM   26  C24 UNK     1      19.803  -2.061  33.227  1.00  0.00     0.050 A 
HETATM   27  C23 UNK     1      20.838  -2.378  32.375  1.00  0.00     0.009 A 
HETATM   28  C22 UNK     1      20.834  -1.568  31.202  1.00  0.00     0.025 A 
ENDBRANCH  22  24
ENDBRANCH  21  22
ENDBRANCH   4  21
TORSDOF 6
ENDMDL
MODEL 7
REMARK VINA RESULT:      -8.3      7.484     10.773
REMARK  6 active torsions:
REMARK  status: ('A' for Active; 'I' for Inactive)
REMARK    1  A    between atoms: C17_21  and  O1_2 
REMARK    2  A    between atoms: C21_25  and  O1_2 
REMARK    3  A    between atoms: C3_7  and  C8_12 
REMARK    4  A    between atoms: C12_16  and  C14_18 
REMARK    5  A    between atoms: C13_17  and  C14_18 
REMARK    6  A    between atoms: C20_24  and  C21_25 
ROOT
HETATM    1  C12 UNK     1      33.495  -5.638  34.426  1.00  0.00     0.014 A 
HETATM    2  C15 UNK     1      32.130  -5.413  34.254  1.00  0.00     0.018 A 
HETATM    3  C16 UNK     1      34.144  -6.611  33.665  1.00  0.00     0.018 A 
HETATM    4  C17 UNK     1      32.060  -7.134  32.560  1.00  0.00     0.079 A 
HETATM    5  C18 UNK     1      31.412  -6.161  33.320  1.00  0.00     0.038 A 
HETATM    6  C19 UNK     1      33.426  -7.359  32.732  1.00  0.00     0.038 A 
ENDROOT
BRANCH   1   7
HETATM    7  C14 UNK     1      34.258  -4.844  35.419  1.00  0.00     0.182 C 
HETATM    8  O2  UNK     1      34.213  -3.619  35.382  1.00  0.00    -0.288 OA
BRANCH   7   9
HETATM    9  C13 UNK     1      35.083  -5.587  36.411  1.00  0.00     0.056 C 
HETATM   10  C8  UNK     1      34.489  -6.233  37.436  1.00  0.00     0.016 C 
BRANCH  10  11
HETATM   11  C3  UNK     1      33.049  -6.275  37.676  1.00  0.00    -0.025 A 
HETATM   12  C1  UNK     1      32.239  -7.348  37.272  1.00  0.00    -0.016 A 
HETATM   13  C2  UNK     1      30.850  -7.309  37.546  1.00  0.00    -0.025 A 
HETATM   14  C4  UNK     1      32.776  -8.460  36.602  1.00  0.00     0.013 A 
HETATM   15  C5  UNK     1      30.314  -6.197  38.215  1.00  0.00     0.012 A 
HETATM   16  C7  UNK     1      30.040  -8.382  37.140  1.00  0.00     0.012 A 
HETATM   17  C9  UNK     1      31.133  -5.140  38.610  1.00  0.00     0.002 A 
HETATM   18  C6  UNK     1      32.499  -5.178  38.341  1.00  0.00     0.012 A 
HETATM   19  C11 UNK     1      30.590  -9.479  36.476  1.00  0.00     0.001 A 
HETATM   20  C10 UNK     1      31.955  -9.517  36.207  1.00  0.00     0.001 A 
ENDBRANCH  10  11
ENDBRANCH   7   9
ENDBRANCH   1   7
BRANCH   4  21
HETATM   21  O1  UNK     1      31.359  -7.864  31.648  1.00  0.00    -0.275 OA
BRANCH  21  22
HETATM   22  C21 UNK     1      30.879  -7.124  30.565  1.00  0.00     0.305 C 
HETATM   23  O3  UNK     1      31.566  -6.489  29.778  1.00  0.00    -0.258 OA
BRANCH  22  24
HETATM   24  C20 UNK     1      29.398  -7.189  30.484  1.00  0.00     0.080 A 
HETATM   25  S1  UNK     1      28.632  -8.720  30.449  1.00  0.00    -0.096 SA
HETATM   26  C24 UNK     1      27.080  -8.002  30.360  1.00  0.00     0.050 A 
HETATM   27  C23 UNK     1      27.147  -6.626  30.357  1.00  0.00     0.009 A 
HETATM   28  C22 UNK     1      28.490  -6.155  30.429  1.00  0.00     0.025 A 
ENDBRANCH  22  24
ENDBRANCH  21  22
ENDBRANCH   4  21
TORSDOF 6
ENDMDL
MODEL 8
REMARK VINA RESULT:      -8.3      7.153      9.718
REMARK  6 active torsions:
REMARK  status: ('A' for Active; 'I' for Inactive)
REMARK    1  A    between atoms: C17_21  and  O1_2 
REMARK    2  A    between atoms: C21_25  and  O1_2 
REMARK    3  A    between atoms: C3_7  and  C8_12 
REMARK    4  A    between atoms: C12_16  and  C14_18 
REMARK    5  A    between atoms: C13_17  and  C14_18 
REMARK    6  A    between atoms: C20_24  and  C21_25 
ROOT
HETATM    1  C12 UNK     1      32.469  -8.751  31.070  1.00  0.00     0.014 A 
HETATM    2  C15 UNK     1      31.547  -9.281  31.972  1.00  0.00     0.018 A 
HETATM    3  C16 UNK     1      33.289  -7.690  31.453  1.00  0.00     0.018 A 
HETATM    4  C17 UNK     1      32.266  -7.690  33.641  1.00  0.00     0.079 A 
HETATM    5  C18 UNK     1      31.446  -8.751  33.258  1.00  0.00     0.038 A 
HETATM    6  C19 UNK     1      33.188  -7.159  32.740  1.00  0.00     0.038 A 
ENDROOT
BRANCH   1   7
HETATM    7  C14 UNK     1      32.576  -9.313  29.702  1.00  0.00     0.182 C 
HETATM    8  O2  UNK     1      32.779 -10.513  29.552  1.00  0.00    -0.288 OA
BRANCH   7   9
HETATM    9  C13 UNK     1      32.460  -8.369  28.556  1.00  0.00     0.056 C 
HETATM   10  C8  UNK     1      31.276  -7.791  28.273  1.00  0.00     0.016 C 
BRANCH  10  11
HETATM   11  C3  UNK     1      30.038  -8.012  29.016  1.00  0.00    -0.025 A 
HETATM   12  C1  UNK     1      29.597  -7.154  30.037  1.00  0.00    -0.016 A 
HETATM   13  C2  UNK     1      28.383  -7.441  30.707  1.00  0.00    -0.025 A 
HETATM   14  C4  UNK     1      30.334  -6.017  30.407  1.00  0.00     0.013 A 
HETATM   15  C5  UNK     1      27.648  -8.579  30.337  1.00  0.00     0.012 A 
HETATM   16  C7  UNK     1      27.944  -6.584  31.729  1.00  0.00     0.012 A 
HETATM   17  C9  UNK     1      28.100  -9.421  29.321  1.00  0.00     0.002 A 
HETATM   18  C6  UNK     1      29.293  -9.138  28.661  1.00  0.00     0.012 A 
HETATM   19  C11 UNK     1      28.688  -5.459  32.083  1.00  0.00     0.001 A 
HETATM   20  C10 UNK     1      29.881  -5.176  31.424  1.00  0.00     0.001 A 
ENDBRANCH  10  11
ENDBRANCH   7   9
ENDBRANCH   1   7
BRANCH   4  21
HETATM   21  O1  UNK     1      32.166  -7.173  34.897  1.00  0.00    -0.275 OA
BRANCH  21  22
HETATM   22  C21 UNK     1      31.370  -6.029  34.987  1.00  0.00     0.305 C 
HETATM   23  O3  UNK     1      31.651  -4.929  34.535  1.00  0.00    -0.258 OA
BRANCH  22  24
HETATM   24  C20 UNK     1      30.112  -6.307  35.726  1.00  0.00     0.080 A 
HETATM   25  S1  UNK     1      29.945  -5.736  37.332  1.00  0.00    -0.096 SA
HETATM   26  C24 UNK     1      28.373  -6.404  37.463  1.00  0.00     0.050 A 
HETATM   27  C23 UNK     1      27.987  -7.048  36.308  1.00  0.00     0.009 A 
HETATM   28  C22 UNK     1      28.994  -6.992  35.301  1.00  0.00     0.025 A 
ENDBRANCH  22  24
ENDBRANCH  21  22
ENDBRANCH   4  21
TORSDOF 6
ENDMDL
MODEL 9
REMARK VINA RESULT:      -8.3      6.834      9.496
REMARK  6 active torsions:
REMARK  status: ('A' for Active; 'I' for Inactive)
REMARK    1  A    between atoms: C17_21  and  O1_2 
REMARK    2  A    between atoms: C21_25  and  O1_2 
REMARK    3  A    between atoms: C3_7  and  C8_12 
REMARK    4  A    between atoms: C12_16  and  C14_18 
REMARK    5  A    between atoms: C13_17  and  C14_18 
REMARK    6  A    between atoms: C20_24  and  C21_25 
ROOT
HETATM    1  C12 UNK     1      29.881  -7.977  35.241  1.00  0.00     0.014 A 
HETATM    2  C15 UNK     1      30.815  -8.589  34.406  1.00  0.00     0.018 A 
HETATM    3  C16 UNK     1      29.302  -6.764  34.870  1.00  0.00     0.018 A 
HETATM    4  C17 UNK     1      30.590  -6.775  32.827  1.00  0.00     0.079 A 
HETATM    5  C18 UNK     1      31.170  -7.988  33.198  1.00  0.00     0.038 A 
HETATM    6  C19 UNK     1      29.657  -6.162  33.662  1.00  0.00     0.038 A 
ENDROOT
BRANCH   1   7
HETATM    7  C14 UNK     1      29.505  -8.615  36.525  1.00  0.00     0.182 C 
HETATM    8  O2  UNK     1      28.324  -8.826  36.777  1.00  0.00    -0.288 OA
BRANCH   7   9
HETATM    9  C13 UNK     1      30.600  -8.947  37.479  1.00  0.00     0.056 C 
HETATM   10  C8  UNK     1      31.224  -7.964  38.160  1.00  0.00     0.016 C 
BRANCH  10  11
HETATM   11  C3  UNK     1      30.916  -6.541  38.046  1.00  0.00    -0.025 A 
HETATM   12  C1  UNK     1      31.664  -5.659  37.250  1.00  0.00    -0.016 A 
HETATM   13  C2  UNK     1      31.296  -4.293  37.195  1.00  0.00    -0.025 A 
HETATM   14  C4  UNK     1      32.771  -6.102  36.507  1.00  0.00     0.013 A 
HETATM   15  C5  UNK     1      30.190  -3.850  37.938  1.00  0.00     0.012 A 
HETATM   16  C7  UNK     1      32.046  -3.411  36.400  1.00  0.00     0.012 A 
HETATM   17  C9  UNK     1      29.457  -4.740  38.724  1.00  0.00     0.002 A 
HETATM   18  C6  UNK     1      29.819  -6.083  38.777  1.00  0.00     0.012 A 
HETATM   19  C11 UNK     1      33.142  -3.868  35.668  1.00  0.00     0.001 A 
HETATM   20  C10 UNK     1      33.504  -5.211  35.722  1.00  0.00     0.001 A 
ENDBRANCH  10  11
ENDBRANCH   7   9
ENDBRANCH   1   7
BRANCH   4  21
HETATM   21  O1  UNK     1      30.937  -6.188  31.647  1.00  0.00    -0.275 OA
BRANCH  21  22
HETATM   22  C21 UNK     1      29.854  -5.849  30.833  1.00  0.00     0.305 C 
HETATM   23  O3  UNK     1      29.483  -4.713  30.579  1.00  0.00    -0.258 OA
BRANCH  22  24
HETATM   24  C20 UNK     1      29.179  -7.062  30.306  1.00  0.00     0.080 A 
HETATM   25  S1  UNK     1      30.014  -8.067  29.199  1.00  0.00    -0.096 SA
HETATM   26  C24 UNK     1      28.684  -9.139  29.085  1.00  0.00     0.050 A 
HETATM   27  C23 UNK     1      27.628  -8.739  29.873  1.00  0.00     0.009 A 
HETATM   28  C22 UNK     1      27.915  -7.535  30.581  1.00  0.00     0.025 A 
ENDBRANCH  22  24
ENDBRANCH  21  22
ENDBRANCH   4  21
TORSDOF 6
ENDMDL
MODEL 10
REMARK VINA RESULT:      -8.2      6.283      9.034
REMARK  6 active torsions:
REMARK  status: ('A' for Active; 'I' for Inactive)
REMARK    1  A    between atoms: C17_21  and  O1_2 
REMARK    2  A    between atoms: C21_25  and  O1_2 
REMARK    3  A    between atoms: C3_7  and  C8_12 
REMARK    4  A    between atoms: C12_16  and  C14_18 
REMARK    5  A    between atoms: C13_17  and  C14_18 
REMARK    6  A    between atoms: C20_24  and  C21_25 
ROOT
HETATM    1  C12 UNK     1      31.347  -6.422  35.095  1.00  0.00     0.014 A 
HETATM    2  C15 UNK     1      31.883  -7.666  34.765  1.00  0.00     0.018 A 
HETATM    3  C16 UNK     1      29.974  -6.203  34.987  1.00  0.00     0.018 A 
HETATM    4  C17 UNK     1      29.673  -8.474  34.220  1.00  0.00     0.079 A 
HETATM    5  C18 UNK     1      31.046  -8.693  34.327  1.00  0.00     0.038 A 
HETATM    6  C19 UNK     1      29.136  -7.230  34.550  1.00  0.00     0.038 A 
ENDROOT
BRANCH   1   7
HETATM    7  C14 UNK     1      32.237  -5.331  35.559  1.00  0.00     0.182 C 
HETATM    8  O2  UNK     1      32.199  -4.238  35.004  1.00  0.00    -0.288 OA
BRANCH   7   9
HETATM    9  C13 UNK     1      33.175  -5.631  36.676  1.00  0.00     0.056 C 
HETATM   10  C8  UNK     1      32.697  -5.869  37.915  1.00  0.00     0.016 C 
BRANCH  10  11
HETATM   11  C3  UNK     1      31.283  -5.858  38.282  1.00  0.00    -0.025 A 
HETATM   12  C1  UNK     1      30.508  -7.026  38.368  1.00  0.00    -0.016 A 
HETATM   13  C2  UNK     1      29.143  -6.927  38.732  1.00  0.00    -0.025 A 
HETATM   14  C4  UNK     1      31.057  -8.291  38.100  1.00  0.00     0.013 A 
HETATM   15  C5  UNK     1      28.595  -5.662  38.999  1.00  0.00     0.012 A 
HETATM   16  C7  UNK     1      28.369  -8.096  38.816  1.00  0.00     0.012 A 
HETATM   17  C9  UNK     1      29.379  -4.512  38.909  1.00  0.00     0.002 A 
HETATM   18  C6  UNK     1      30.720  -4.609  38.552  1.00  0.00     0.012 A 
HETATM   19  C11 UNK     1      28.930  -9.343  38.548  1.00  0.00     0.001 A 
HETATM   20  C10 UNK     1      30.272  -9.441  38.190  1.00  0.00     0.001 A 
ENDBRANCH  10  11
ENDBRANCH   7   9
ENDBRANCH   1   7
BRANCH   4  21
HETATM   21  O1  UNK     1      28.856  -9.476  33.792  1.00  0.00    -0.275 OA
BRANCH  21  22
HETATM   22  C21 UNK     1      29.239 -10.052  32.579  1.00  0.00     0.305 C 
HETATM   23  O3  UNK     1      29.723 -11.166  32.442  1.00  0.00    -0.258 OA
BRANCH  22  24
HETATM   24  C20 UNK     1      28.993  -9.127  31.444  1.00  0.00     0.080 A 
HETATM   25  S1  UNK     1      30.276  -8.768  30.368  1.00  0.00    -0.096 SA
HETATM   26  C24 UNK     1      29.279  -7.734  29.437  1.00  0.00     0.050 A 
HETATM   27  C23 UNK     1      27.997  -7.665  29.936  1.00  0.00     0.009 A 
HETATM   28  C22 UNK     1      27.831  -8.471  31.100  1.00  0.00     0.025 A 
ENDBRANCH  22  24
ENDBRANCH  21  22
ENDBRANCH   4  21
TORSDOF 6
ENDMDL
