MODEL 1
REMARK VINA RESULT:     -10.4      0.000      0.000
REMARK  5 active torsions:
REMARK  status: ('A' for Active; 'I' for Inactive)
REMARK    1  A    between atoms: C10_18  and  O2_3 
REMARK    2  A    between atoms: C13_21  and  O3_4 
REMARK       I    between atoms: C14_22  and  N1_7 
REMARK    3  A    between atoms: C4_12  and  N1_7 
REMARK    4  A    between atoms: C1_9  and  C2_10 
REMARK    5  A    between atoms: C14_22  and  C9_17 
ROOT
HETATM    1  S1  UNK     1      18.202  -0.465  36.791  1.00  0.00    -0.082 SA
HETATM    2  N2  UNK     1      20.946  -2.907  33.265  1.00  0.00    -0.191 NA
HETATM    3  C1  UNK     1      19.377  -2.732  36.508  1.00  0.00     0.004 A 
HETATM    4  C3  UNK     1      19.603  -2.017  35.297  1.00  0.00     0.090 A 
HETATM    5  C4  UNK     1      19.019  -0.790  35.337  1.00  0.00     0.098 A 
HETATM    6  C7  UNK     1      18.629  -2.005  37.408  1.00  0.00     0.065 A 
HETATM    7  C21 UNK     1      20.345  -2.508  34.176  1.00  0.00     0.103 C 
ENDROOT
BRANCH   3   8
HETATM    8  C2  UNK     1      19.830  -4.056  36.852  1.00  0.00    -0.021 A 
HETATM    9  C5  UNK     1      19.078  -5.166  36.471  1.00  0.00     0.052 A 
HETATM   10  C10 UNK     1      19.516  -6.447  36.804  1.00  0.00     0.102 A 
HETATM   11  C13 UNK     1      20.705  -6.616  37.515  1.00  0.00     0.101 A 
HETATM   12  C15 UNK     1      21.454  -5.502  37.894  1.00  0.00     0.040 A 
HETATM   13  C8  UNK     1      21.015  -4.220  37.562  1.00  0.00     0.015 A 
BRANCH  10  14
HETATM   14  O2  UNK     1      18.776  -7.527  36.429  1.00  0.00    -0.353 OA
HETATM   15  C22 UNK     1      17.707  -7.294  35.514  1.00  0.00     0.210 C 
ENDBRANCH  10  14
BRANCH  11  16
HETATM   16  O3  UNK     1      21.144  -7.862  37.845  1.00  0.00    -0.353 OA
HETATM   17  C23 UNK     1      22.201  -8.407  37.059  1.00  0.00     0.210 C 
ENDBRANCH  11  16
ENDBRANCH   3   8
BRANCH   5  18
HETATM   18  N1  UNK     1      18.985   0.232  34.384  1.00  0.00    -0.316 N 
HETATM   19  C14 UNK     1      17.852   0.890  33.929  1.00  0.00     0.262 C 
HETATM   20  O4  UNK     1      16.679   0.716  34.257  1.00  0.00    -0.267 OA
HETATM   21  H4  UNK     1      19.897   0.641  34.189  1.00  0.00     0.170 HD
BRANCH  19  22
HETATM   22  C9  UNK     1      18.177   1.911  32.925  1.00  0.00     0.108 A 
HETATM   23  C12 UNK     1      18.011   3.185  33.301  1.00  0.00     0.037 A 
HETATM   24  C6  UNK     1      18.307   4.267  32.377  1.00  0.00    -0.001 A 
HETATM   25  C11 UNK     1      18.763   3.956  31.100  1.00  0.00     0.089 A 
HETATM   26  C17 UNK     1      18.149   5.611  32.727  1.00  0.00     0.014 A 
HETATM   27  C18 UNK     1      19.064   4.945  30.166  1.00  0.00     0.038 A 
HETATM   28  O1  UNK     1      18.936   2.614  30.710  1.00  0.00    -0.274 OA
HETATM   29  C20 UNK     1      18.904   6.282  30.524  1.00  0.00     0.003 A 
HETATM   30  C19 UNK     1      18.447   6.614  31.801  1.00  0.00     0.001 A 
HETATM   31  C16 UNK     1      18.662   1.557  31.573  1.00  0.00     0.304 A 
HETATM   32  O5  UNK     1      18.815   0.391  31.224  1.00  0.00    -0.259 OA
ENDBRANCH  19  22
ENDBRANCH   5  18
TORSDOF 5
ENDMDL
MODEL 2
REMARK VINA RESULT:      -9.9      2.006     10.197
REMARK  5 active torsions:
REMARK  status: ('A' for Active; 'I' for Inactive)
REMARK    1  A    between atoms: C10_18  and  O2_3 
REMARK    2  A    between atoms: C13_21  and  O3_4 
REMARK       I    between atoms: C14_22  and  N1_7 
REMARK    3  A    between atoms: C4_12  and  N1_7 
REMARK    4  A    between atoms: C1_9  and  C2_10 
REMARK    5  A    between atoms: C14_22  and  C9_17 
ROOT
HETATM    1  S1  UNK     1      17.911  -1.243  37.669  1.00  0.00    -0.082 SA
HETATM    2  N2  UNK     1      19.884  -1.736  33.001  1.00  0.00    -0.191 NA
HETATM    3  C1  UNK     1      18.331   0.222  35.601  1.00  0.00     0.004 A 
HETATM    4  C3  UNK     1      18.812  -1.076  35.268  1.00  0.00     0.090 A 
HETATM    5  C4  UNK     1      18.638  -1.943  36.301  1.00  0.00     0.098 A 
HETATM    6  C7  UNK     1      17.814   0.272  36.877  1.00  0.00     0.065 A 
HETATM    7  C21 UNK     1      19.404  -1.440  34.017  1.00  0.00     0.103 C 
ENDROOT
BRANCH   3   8
HETATM    8  C2  UNK     1      18.337   1.406  34.780  1.00  0.00    -0.021 A 
HETATM    9  C5  UNK     1      18.016   1.313  33.427  1.00  0.00     0.052 A 
HETATM   10  C10 UNK     1      18.021   2.459  32.633  1.00  0.00     0.102 A 
HETATM   11  C13 UNK     1      18.346   3.695  33.193  1.00  0.00     0.101 A 
HETATM   12  C15 UNK     1      18.667   3.784  34.548  1.00  0.00     0.040 A 
HETATM   13  C8  UNK     1      18.662   2.637  35.342  1.00  0.00     0.015 A 
BRANCH  10  14
HETATM   14  O2  UNK     1      17.708   2.360  31.311  1.00  0.00    -0.353 OA
HETATM   15  C22 UNK     1      18.779   2.089  30.410  1.00  0.00     0.210 C 
ENDBRANCH  10  14
BRANCH  11  16
HETATM   16  O3  UNK     1      18.354   4.822  32.428  1.00  0.00    -0.353 OA
HETATM   17  C23 UNK     1      17.295   5.754  32.634  1.00  0.00     0.210 C 
ENDBRANCH  11  16
ENDBRANCH   3   8
BRANCH   5  18
HETATM   18  N1  UNK     1      18.959  -3.299  36.414  1.00  0.00    -0.316 N 
HETATM   19  C14 UNK     1      20.042  -3.829  37.099  1.00  0.00     0.262 C 
HETATM   20  O4  UNK     1      20.918  -3.237  37.729  1.00  0.00    -0.267 OA
HETATM   21  H4  UNK     1      18.204  -3.923  36.139  1.00  0.00     0.170 HD
BRANCH  19  22
HETATM   22  C9  UNK     1      20.080  -5.294  37.014  1.00  0.00     0.108 A 
HETATM   23  C12 UNK     1      20.011  -5.957  38.176  1.00  0.00     0.037 A 
HETATM   24  C6  UNK     1      20.040  -7.410  38.194  1.00  0.00    -0.001 A 
HETATM   25  C11 UNK     1      20.142  -8.096  36.988  1.00  0.00     0.089 A 
HETATM   26  C17 UNK     1      19.969  -8.143  39.382  1.00  0.00     0.014 A 
HETATM   27  C18 UNK     1      20.176  -9.489  36.936  1.00  0.00     0.038 A 
HETATM   28  O1  UNK     1      20.214  -7.394  35.770  1.00  0.00    -0.274 OA
HETATM   29  C20 UNK     1      20.105 -10.210  38.126  1.00  0.00     0.003 A 
HETATM   30  C19 UNK     1      20.002  -9.539  39.346  1.00  0.00     0.001 A 
HETATM   31  C16 UNK     1      20.187  -6.004  35.720  1.00  0.00     0.304 A 
HETATM   32  O5  UNK     1      20.252  -5.401  34.654  1.00  0.00    -0.259 OA
ENDBRANCH  19  22
ENDBRANCH   5  18
TORSDOF 5
ENDMDL
MODEL 3
REMARK VINA RESULT:      -9.6      1.412      2.400
REMARK  5 active torsions:
REMARK  status: ('A' for Active; 'I' for Inactive)
REMARK    1  A    between atoms: C10_18  and  O2_3 
REMARK    2  A    between atoms: C13_21  and  O3_4 
REMARK       I    between atoms: C14_22  and  N1_7 
REMARK    3  A    between atoms: C4_12  and  N1_7 
REMARK    4  A    between atoms: C1_9  and  C2_10 
REMARK    5  A    between atoms: C14_22  and  C9_17 
ROOT
HETATM    1  S1  UNK     1      18.270  -1.270  37.356  1.00  0.00    -0.082 SA
HETATM    2  N2  UNK     1      21.110  -2.600  33.344  1.00  0.00    -0.191 NA
HETATM    3  C1  UNK     1      19.584  -3.318  36.532  1.00  0.00     0.004 A 
HETATM    4  C3  UNK     1      19.745  -2.318  35.531  1.00  0.00     0.090 A 
HETATM    5  C4  UNK     1      19.084  -1.178  35.867  1.00  0.00     0.098 A 
HETATM    6  C7  UNK     1      18.805  -2.881  37.581  1.00  0.00     0.065 A 
HETATM    7  C21 UNK     1      20.499  -2.474  34.324  1.00  0.00     0.103 C 
ENDROOT
BRANCH   3   8
HETATM    8  C2  UNK     1      20.125  -4.654  36.544  1.00  0.00    -0.021 A 
HETATM    9  C5  UNK     1      21.099  -4.999  37.479  1.00  0.00     0.052 A 
HETATM   10  C10 UNK     1      21.621  -6.292  37.491  1.00  0.00     0.102 A 
HETATM   11  C13 UNK     1      21.168  -7.236  36.568  1.00  0.00     0.101 A 
HETATM   12  C15 UNK     1      20.193  -6.886  35.635  1.00  0.00     0.040 A 
HETATM   13  C8  UNK     1      19.671  -5.593  35.623  1.00  0.00     0.015 A 
BRANCH  10  14
HETATM   14  O2  UNK     1      22.573  -6.621  38.407  1.00  0.00    -0.353 OA
HETATM   15  C22 UNK     1      22.123  -7.192  39.634  1.00  0.00     0.210 C 
ENDBRANCH  10  14
BRANCH  11  16
HETATM   16  O3  UNK     1      21.671  -8.502  36.571  1.00  0.00    -0.353 OA
HETATM   17  C23 UNK     1      21.494  -9.272  35.384  1.00  0.00     0.210 C 
ENDBRANCH  11  16
ENDBRANCH   3   8
BRANCH   5  18
HETATM   18  N1  UNK     1      18.971   0.040  35.190  1.00  0.00    -0.316 N 
HETATM   19  C14 UNK     1      18.051   0.342  34.196  1.00  0.00     0.262 C 
HETATM   20  O4  UNK     1      17.173  -0.376  33.720  1.00  0.00    -0.267 OA
HETATM   21  H4  UNK     1      19.478   0.803  35.633  1.00  0.00     0.170 HD
BRANCH  19  22
HETATM   22  C9  UNK     1      18.211   1.713  33.701  1.00  0.00     0.108 A 
HETATM   23  C12 UNK     1      18.369   1.851  32.378  1.00  0.00     0.037 A 
HETATM   24  C6  UNK     1      18.535   3.171  31.792  1.00  0.00    -0.001 A 
HETATM   25  C11 UNK     1      18.528   4.283  32.627  1.00  0.00     0.089 A 
HETATM   26  C17 UNK     1      18.701   3.361  30.417  1.00  0.00     0.014 A 
HETATM   27  C18 UNK     1      18.683   5.576  32.129  1.00  0.00     0.038 A 
HETATM   28  O1  UNK     1      18.362   4.133  34.017  1.00  0.00    -0.274 OA
HETATM   29  C20 UNK     1      18.848   5.756  30.757  1.00  0.00     0.003 A 
HETATM   30  C19 UNK     1      18.857   4.650  29.903  1.00  0.00     0.001 A 
HETATM   31  C16 UNK     1      18.200   2.883  34.607  1.00  0.00     0.304 A 
HETATM   32  O5  UNK     1      18.057   2.762  35.819  1.00  0.00    -0.259 OA
ENDBRANCH  19  22
ENDBRANCH   5  18
TORSDOF 5
ENDMDL
MODEL 4
REMARK VINA RESULT:      -9.5      6.784     11.139
REMARK  5 active torsions:
REMARK  status: ('A' for Active; 'I' for Inactive)
REMARK    1  A    between atoms: C10_18  and  O2_3 
REMARK    2  A    between atoms: C13_21  and  O3_4 
REMARK       I    between atoms: C14_22  and  N1_7 
REMARK    3  A    between atoms: C4_12  and  N1_7 
REMARK    4  A    between atoms: C1_9  and  C2_10 
REMARK    5  A    between atoms: C14_22  and  C9_17 
ROOT
HETATM    1  S1  UNK     1      19.597   8.594  34.518  1.00  0.00    -0.082 SA
HETATM    2  N2  UNK     1      15.902   8.171  31.040  1.00  0.00    -0.191 NA
HETATM    3  C1  UNK     1      18.748   6.858  32.825  1.00  0.00     0.004 A 
HETATM    4  C3  UNK     1      17.894   7.990  32.692  1.00  0.00     0.090 A 
HETATM    5  C4  UNK     1      18.255   8.981  33.550  1.00  0.00     0.098 A 
HETATM    6  C7  UNK     1      19.718   7.052  33.783  1.00  0.00     0.065 A 
HETATM    7  C21 UNK     1      16.795   8.090  31.780  1.00  0.00     0.103 C 
ENDROOT
BRANCH   3   8
HETATM    8  C2  UNK     1      18.691   5.615  32.099  1.00  0.00    -0.021 A 
HETATM    9  C5  UNK     1      18.209   4.468  32.725  1.00  0.00     0.052 A 
HETATM   10  C10 UNK     1      18.153   3.265  32.021  1.00  0.00     0.102 A 
HETATM   11  C13 UNK     1      18.579   3.213  30.693  1.00  0.00     0.101 A 
HETATM   12  C15 UNK     1      19.061   4.365  30.070  1.00  0.00     0.040 A 
HETATM   13  C8  UNK     1      19.117   5.567  30.774  1.00  0.00     0.015 A 
BRANCH  10  14
HETATM   14  O2  UNK     1      17.682   2.147  32.640  1.00  0.00    -0.353 OA
HETATM   15  C22 UNK     1      18.100   1.926  33.985  1.00  0.00     0.210 C 
ENDBRANCH  10  14
BRANCH  11  16
HETATM   16  O3  UNK     1      18.530   2.045  29.995  1.00  0.00    -0.353 OA
HETATM   17  C23 UNK     1      17.957   2.092  28.690  1.00  0.00     0.210 C 
ENDBRANCH  11  16
ENDBRANCH   3   8
BRANCH   5  18
HETATM   18  N1  UNK     1      17.706  10.249  33.758  1.00  0.00    -0.316 N 
HETATM   19  C14 UNK     1      16.588  10.541  34.525  1.00  0.00     0.262 C 
HETATM   20  O4  UNK     1      15.871   9.770  35.162  1.00  0.00    -0.267 OA
HETATM   21  H4  UNK     1      18.320  11.012  33.482  1.00  0.00     0.170 HD
BRANCH  19  22
HETATM   22  C9  UNK     1      16.285  11.977  34.528  1.00  0.00     0.108 A 
HETATM   23  C12 UNK     1      15.031  12.319  34.207  1.00  0.00     0.037 A 
HETATM   24  C6  UNK     1      14.635  13.717  34.183  1.00  0.00    -0.001 A 
HETATM   25  C11 UNK     1      15.579  14.689  34.496  1.00  0.00     0.089 A 
HETATM   26  C17 UNK     1      13.337  14.119  33.855  1.00  0.00     0.014 A 
HETATM   27  C18 UNK     1      15.265  16.047  34.490  1.00  0.00     0.038 A 
HETATM   28  O1  UNK     1      16.897  14.325  34.833  1.00  0.00    -0.274 OA
HETATM   29  C20 UNK     1      13.969  16.439  34.163  1.00  0.00     0.003 A 
HETATM   30  C19 UNK     1      13.007  15.477  33.845  1.00  0.00     0.001 A 
HETATM   31  C16 UNK     1      17.305  12.994  34.866  1.00  0.00     0.304 A 
HETATM   32  O5  UNK     1      18.455  12.686  35.159  1.00  0.00    -0.259 OA
ENDBRANCH  19  22
ENDBRANCH   5  18
TORSDOF 5
ENDMDL
MODEL 5
REMARK VINA RESULT:      -9.4      4.827     10.873
REMARK  5 active torsions:
REMARK  status: ('A' for Active; 'I' for Inactive)
REMARK    1  A    between atoms: C10_18  and  O2_3 
REMARK    2  A    between atoms: C13_21  and  O3_4 
REMARK       I    between atoms: C14_22  and  N1_7 
REMARK    3  A    between atoms: C4_12  and  N1_7 
REMARK    4  A    between atoms: C1_9  and  C2_10 
REMARK    5  A    between atoms: C14_22  and  C9_17 
ROOT
HETATM    1  S1  UNK     1      19.071   5.018  29.414  1.00  0.00    -0.082 SA
HETATM    2  N2  UNK     1      18.078   3.692  34.229  1.00  0.00    -0.191 NA
HETATM    3  C1  UNK     1      18.242   6.130  31.576  1.00  0.00     0.004 A 
HETATM    4  C3  UNK     1      18.463   4.760  31.897  1.00  0.00     0.090 A 
HETATM    5  C4  UNK     1      18.908   4.069  30.815  1.00  0.00     0.098 A 
HETATM    6  C7  UNK     1      18.534   6.407  30.259  1.00  0.00     0.065 A 
HETATM    7  C21 UNK     1      18.251   4.171  33.184  1.00  0.00     0.103 C 
ENDROOT
BRANCH   3   8
HETATM    8  C2  UNK     1      17.773   7.179  32.446  1.00  0.00    -0.021 A 
HETATM    9  C5  UNK     1      16.410   7.457  32.525  1.00  0.00     0.052 A 
HETATM   10  C10 UNK     1      15.957   8.472  33.367  1.00  0.00     0.102 A 
HETATM   11  C13 UNK     1      16.868   9.206  34.128  1.00  0.00     0.101 A 
HETATM   12  C15 UNK     1      18.232   8.924  34.046  1.00  0.00     0.040 A 
HETATM   13  C8  UNK     1      18.685   7.909  33.204  1.00  0.00     0.015 A 
BRANCH  10  14
HETATM   14  O2  UNK     1      14.624   8.738  33.438  1.00  0.00    -0.353 OA
HETATM   15  C22 UNK     1      13.739   7.774  32.872  1.00  0.00     0.210 C 
ENDBRANCH  10  14
BRANCH  11  16
HETATM   16  O3  UNK     1      16.437  10.199  34.955  1.00  0.00    -0.353 OA
HETATM   17  C23 UNK     1      16.626  11.540  34.510  1.00  0.00     0.210 C 
ENDBRANCH  11  16
ENDBRANCH   3   8
BRANCH   5  18
HETATM   18  N1  UNK     1      19.248   2.721  30.674  1.00  0.00    -0.316 N 
HETATM   19  C14 UNK     1      18.513   1.757  29.999  1.00  0.00     0.262 C 
HETATM   20  O4  UNK     1      17.444   1.884  29.404  1.00  0.00    -0.267 OA
HETATM   21  H4  UNK     1      20.215   2.514  30.917  1.00  0.00     0.170 HD
BRANCH  19  22
HETATM   22  C9  UNK     1      19.161   0.441  30.048  1.00  0.00     0.108 A 
HETATM   23  C12 UNK     1      19.467  -0.024  31.265  1.00  0.00     0.037 A 
HETATM   24  C6  UNK     1      20.111  -1.319  31.415  1.00  0.00    -0.001 A 
HETATM   25  C11 UNK     1      20.402  -2.062  30.277  1.00  0.00     0.089 A 
HETATM   26  C17 UNK     1      20.447  -1.843  32.667  1.00  0.00     0.014 A 
HETATM   27  C18 UNK     1      21.018  -3.310  30.351  1.00  0.00     0.038 A 
HETATM   28  O1  UNK     1      20.077  -1.569  28.998  1.00  0.00    -0.274 OA
HETATM   29  C20 UNK     1      21.350  -3.825  31.603  1.00  0.00     0.003 A 
HETATM   30  C19 UNK     1      21.066  -3.093  32.757  1.00  0.00     0.001 A 
HETATM   31  C16 UNK     1      19.460  -0.333  28.823  1.00  0.00     0.304 A 
HETATM   32  O5  UNK     1      19.182   0.089  27.705  1.00  0.00    -0.259 OA
ENDBRANCH  19  22
ENDBRANCH   5  18
TORSDOF 5
ENDMDL
MODEL 6
REMARK VINA RESULT:      -9.2      5.981     11.924
REMARK  5 active torsions:
REMARK  status: ('A' for Active; 'I' for Inactive)
REMARK    1  A    between atoms: C10_18  and  O2_3 
REMARK    2  A    between atoms: C13_21  and  O3_4 
REMARK       I    between atoms: C14_22  and  N1_7 
REMARK    3  A    between atoms: C4_12  and  N1_7 
REMARK    4  A    between atoms: C1_9  and  C2_10 
REMARK    5  A    between atoms: C14_22  and  C9_17 
ROOT
HETATM    1  S1  UNK     1      20.194   6.656  33.405  1.00  0.00    -0.082 SA
HETATM    2  N2  UNK     1      15.388   6.454  31.737  1.00  0.00    -0.191 NA
HETATM    3  C1  UNK     1      18.034   8.032  33.612  1.00  0.00     0.004 A 
HETATM    4  C3  UNK     1      17.715   6.918  32.783  1.00  0.00     0.090 A 
HETATM    5  C4  UNK     1      18.796   6.114  32.605  1.00  0.00     0.098 A 
HETATM    6  C7  UNK     1      19.350   8.013  34.020  1.00  0.00     0.065 A 
HETATM    7  C21 UNK     1      16.430   6.662  32.206  1.00  0.00     0.103 C 
ENDROOT
BRANCH   3   8
HETATM    8  C2  UNK     1      17.165   9.102  34.031  1.00  0.00    -0.021 A 
HETATM    9  C5  UNK     1      17.553  10.426  33.838  1.00  0.00     0.052 A 
HETATM   10  C10 UNK     1      16.711  11.461  34.243  1.00  0.00     0.102 A 
HETATM   11  C13 UNK     1      15.484  11.169  34.840  1.00  0.00     0.101 A 
HETATM   12  C15 UNK     1      15.100   9.843  35.032  1.00  0.00     0.040 A 
HETATM   13  C8  UNK     1      15.942   8.807  34.626  1.00  0.00     0.015 A 
BRANCH  10  14
HETATM   14  O2  UNK     1      17.098  12.753  34.051  1.00  0.00    -0.353 OA
HETATM   15  C22 UNK     1      18.218  13.213  34.805  1.00  0.00     0.210 C 
ENDBRANCH  10  14
BRANCH  11  16
HETATM   16  O3  UNK     1      14.653  12.172  35.239  1.00  0.00    -0.353 OA
HETATM   17  C23 UNK     1      14.299  12.210  36.620  1.00  0.00     0.210 C 
ENDBRANCH  11  16
ENDBRANCH   3   8
BRANCH   5  18
HETATM   18  N1  UNK     1      18.938   4.928  31.877  1.00  0.00    -0.316 N 
HETATM   19  C14 UNK     1      18.384   3.698  32.201  1.00  0.00     0.262 C 
HETATM   20  O4  UNK     1      17.677   3.404  33.163  1.00  0.00    -0.267 OA
HETATM   21  H4  UNK     1      19.305   5.066  30.938  1.00  0.00     0.170 HD
BRANCH  19  22
HETATM   22  C9  UNK     1      18.734   2.665  31.219  1.00  0.00     0.108 A 
HETATM   23  C12 UNK     1      19.111   1.480  31.715  1.00  0.00     0.037 A 
HETATM   24  C6  UNK     1      19.477   0.394  30.820  1.00  0.00    -0.001 A 
HETATM   25  C11 UNK     1      19.429   0.608  29.447  1.00  0.00     0.089 A 
HETATM   26  C17 UNK     1      19.876  -0.860  31.294  1.00  0.00     0.014 A 
HETATM   27  C18 UNK     1      19.767  -0.391  28.536  1.00  0.00     0.038 A 
HETATM   28  O1  UNK     1      19.031   1.856  28.931  1.00  0.00    -0.274 OA
HETATM   29  C20 UNK     1      20.163  -1.638  29.017  1.00  0.00     0.003 A 
HETATM   30  C19 UNK     1      20.218  -1.871  30.393  1.00  0.00     0.001 A 
HETATM   31  C16 UNK     1      18.674   2.914  29.761  1.00  0.00     0.304 A 
HETATM   32  O5  UNK     1      18.330   3.998  29.303  1.00  0.00    -0.259 OA
ENDBRANCH  19  22
ENDBRANCH   5  18
TORSDOF 5
ENDMDL
MODEL 7
REMARK VINA RESULT:      -9.1      1.371      2.167
REMARK  5 active torsions:
REMARK  status: ('A' for Active; 'I' for Inactive)
REMARK    1  A    between atoms: C10_18  and  O2_3 
REMARK    2  A    between atoms: C13_21  and  O3_4 
REMARK       I    between atoms: C14_22  and  N1_7 
REMARK    3  A    between atoms: C4_12  and  N1_7 
REMARK    4  A    between atoms: C1_9  and  C2_10 
REMARK    5  A    between atoms: C14_22  and  C9_17 
ROOT
HETATM    1  S1  UNK     1      17.856  -0.482  37.437  1.00  0.00    -0.082 SA
HETATM    2  N2  UNK     1      20.477  -2.244  33.443  1.00  0.00    -0.191 NA
HETATM    3  C1  UNK     1      19.133  -2.609  36.769  1.00  0.00     0.004 A 
HETATM    4  C3  UNK     1      19.233  -1.724  35.658  1.00  0.00     0.090 A 
HETATM    5  C4  UNK     1      18.586  -0.554  35.904  1.00  0.00     0.098 A 
HETATM    6  C7  UNK     1      18.411  -2.060  37.806  1.00  0.00     0.065 A 
HETATM    7  C21 UNK     1      19.920  -2.011  34.435  1.00  0.00     0.103 C 
ENDROOT
BRANCH   3   8
HETATM    8  C2  UNK     1      19.681  -3.936  36.897  1.00  0.00    -0.021 A 
HETATM    9  C5  UNK     1      20.921  -4.118  37.504  1.00  0.00     0.052 A 
HETATM   10  C10 UNK     1      21.450  -5.403  37.628  1.00  0.00     0.102 A 
HETATM   11  C13 UNK     1      20.738  -6.501  37.145  1.00  0.00     0.101 A 
HETATM   12  C15 UNK     1      19.496  -6.313  36.537  1.00  0.00     0.040 A 
HETATM   13  C8  UNK     1      18.967  -5.029  36.413  1.00  0.00     0.015 A 
BRANCH  10  14
HETATM   14  O2  UNK     1      22.664  -5.573  38.222  1.00  0.00    -0.353 OA
HETATM   15  C22 UNK     1      22.710  -6.410  39.375  1.00  0.00     0.210 C 
ENDBRANCH  10  14
BRANCH  11  16
HETATM   16  O3  UNK     1      21.244  -7.760  37.260  1.00  0.00    -0.353 OA
HETATM   17  C23 UNK     1      21.575  -8.439  36.052  1.00  0.00     0.210 C 
ENDBRANCH  11  16
ENDBRANCH   3   8
BRANCH   5  18
HETATM   18  N1  UNK     1      18.429   0.583  35.106  1.00  0.00    -0.316 N 
HETATM   19  C14 UNK     1      18.943   1.845  35.368  1.00  0.00     0.262 C 
HETATM   20  O4  UNK     1      19.622   2.213  36.324  1.00  0.00    -0.267 OA
HETATM   21  H4  UNK     1      18.085   0.382  34.170  1.00  0.00     0.170 HD
BRANCH  19  22
HETATM   22  C9  UNK     1      18.587   2.809  34.320  1.00  0.00     0.108 A 
HETATM   23  C12 UNK     1      18.614   4.101  34.671  1.00  0.00     0.037 A 
HETATM   24  C6  UNK     1      18.276   5.131  33.702  1.00  0.00    -0.001 A 
HETATM   25  C11 UNK     1      17.926   4.752  32.411  1.00  0.00     0.089 A 
HETATM   26  C17 UNK     1      18.292   6.491  34.025  1.00  0.00     0.014 A 
HETATM   27  C18 UNK     1      17.591   5.689  31.435  1.00  0.00     0.038 A 
HETATM   28  O1  UNK     1      17.900   3.392  32.047  1.00  0.00    -0.274 OA
HETATM   29  C20 UNK     1      17.610   7.043  31.765  1.00  0.00     0.003 A 
HETATM   30  C19 UNK     1      17.959   7.442  33.057  1.00  0.00     0.001 A 
HETATM   31  C16 UNK     1      18.218   2.383  32.952  1.00  0.00     0.304 A 
HETATM   32  O5  UNK     1      18.192   1.201  32.627  1.00  0.00    -0.259 OA
ENDBRANCH  19  22
ENDBRANCH   5  18
TORSDOF 5
ENDMDL
MODEL 8
REMARK VINA RESULT:      -9.1      1.711     10.251
REMARK  5 active torsions:
REMARK  status: ('A' for Active; 'I' for Inactive)
REMARK    1  A    between atoms: C10_18  and  O2_3 
REMARK    2  A    between atoms: C13_21  and  O3_4 
REMARK       I    between atoms: C14_22  and  N1_7 
REMARK    3  A    between atoms: C4_12  and  N1_7 
REMARK    4  A    between atoms: C1_9  and  C2_10 
REMARK    5  A    between atoms: C14_22  and  C9_17 
ROOT
HETATM    1  S1  UNK     1      18.674  -2.260  37.616  1.00  0.00    -0.082 SA
HETATM    2  N2  UNK     1      20.977  -2.238  33.075  1.00  0.00    -0.191 NA
HETATM    3  C1  UNK     1      18.852  -0.724  35.564  1.00  0.00     0.004 A 
HETATM    4  C3  UNK     1      19.648  -1.868  35.271  1.00  0.00     0.090 A 
HETATM    5  C4  UNK     1      19.626  -2.757  36.299  1.00  0.00     0.098 A 
HETATM    6  C7  UNK     1      18.264  -0.807  36.807  1.00  0.00     0.065 A 
HETATM    7  C21 UNK     1      20.382  -2.073  34.059  1.00  0.00     0.103 C 
ENDROOT
BRANCH   3   8
HETATM    8  C2  UNK     1      18.622   0.432  34.735  1.00  0.00    -0.021 A 
HETATM    9  C5  UNK     1      18.601   0.296  33.348  1.00  0.00     0.052 A 
HETATM   10  C10 UNK     1      18.378   1.415  32.546  1.00  0.00     0.102 A 
HETATM   11  C13 UNK     1      18.177   2.666  33.132  1.00  0.00     0.101 A 
HETATM   12  C15 UNK     1      18.199   2.796  34.521  1.00  0.00     0.040 A 
HETATM   13  C8  UNK     1      18.422   1.677  35.323  1.00  0.00     0.015 A 
BRANCH  10  14
HETATM   14  O2  UNK     1      18.360   1.276  31.191  1.00  0.00    -0.353 OA
HETATM   15  C22 UNK     1      19.511   0.694  30.584  1.00  0.00     0.210 C 
ENDBRANCH  10  14
BRANCH  11  16
HETATM   16  O3  UNK     1      17.958   3.765  32.359  1.00  0.00    -0.353 OA
HETATM   17  C23 UNK     1      17.853   5.019  33.030  1.00  0.00     0.210 C 
ENDBRANCH  11  16
ENDBRANCH   3   8
BRANCH   5  18
HETATM   18  N1  UNK     1      20.254  -3.997  36.442  1.00  0.00    -0.316 N 
HETATM   19  C14 UNK     1      19.623  -5.230  36.528  1.00  0.00     0.262 C 
HETATM   20  O4  UNK     1      18.419  -5.480  36.498  1.00  0.00    -0.267 OA
HETATM   21  H4  UNK     1      21.254  -3.974  36.254  1.00  0.00     0.170 HD
BRANCH  19  22
HETATM   22  C9  UNK     1      20.585  -6.329  36.673  1.00  0.00     0.108 A 
HETATM   23  C12 UNK     1      20.444  -7.356  35.825  1.00  0.00     0.037 A 
HETATM   24  C6  UNK     1      21.350  -8.491  35.891  1.00  0.00    -0.001 A 
HETATM   25  C11 UNK     1      22.360  -8.491  36.847  1.00  0.00     0.089 A 
HETATM   26  C17 UNK     1      21.240  -9.583  35.026  1.00  0.00     0.014 A 
HETATM   27  C18 UNK     1      23.261  -9.549  36.964  1.00  0.00     0.038 A 
HETATM   28  O1  UNK     1      22.504  -7.409  37.736  1.00  0.00    -0.274 OA
HETATM   29  C20 UNK     1      23.144 -10.633  36.097  1.00  0.00     0.003 A 
HETATM   30  C19 UNK     1      22.135 -10.650  35.131  1.00  0.00     0.001 A 
HETATM   31  C16 UNK     1      21.654  -6.308  37.697  1.00  0.00     0.304 A 
HETATM   32  O5  UNK     1      21.786  -5.370  38.476  1.00  0.00    -0.259 OA
ENDBRANCH  19  22
ENDBRANCH   5  18
TORSDOF 5
ENDMDL
MODEL 9
REMARK VINA RESULT:      -9.0      6.742     11.029
REMARK  5 active torsions:
REMARK  status: ('A' for Active; 'I' for Inactive)
REMARK    1  A    between atoms: C10_18  and  O2_3 
REMARK    2  A    between atoms: C13_21  and  O3_4 
REMARK       I    between atoms: C14_22  and  N1_7 
REMARK    3  A    between atoms: C4_12  and  N1_7 
REMARK    4  A    between atoms: C1_9  and  C2_10 
REMARK    5  A    between atoms: C14_22  and  C9_17 
ROOT
HETATM    1  S1  UNK     1      19.096   8.452  34.520  1.00  0.00    -0.082 SA
HETATM    2  N2  UNK     1      14.863   6.938  32.130  1.00  0.00    -0.191 NA
HETATM    3  C1  UNK     1      18.365   6.586  32.913  1.00  0.00     0.004 A 
HETATM    4  C3  UNK     1      17.205   7.375  33.154  1.00  0.00     0.090 A 
HETATM    5  C4  UNK     1      17.478   8.403  34.000  1.00  0.00     0.098 A 
HETATM    6  C7  UNK     1      19.465   7.060  33.593  1.00  0.00     0.065 A 
HETATM    7  C21 UNK     1      15.912   7.134  32.588  1.00  0.00     0.103 C 
ENDROOT
BRANCH   3   8
HETATM    8  C2  UNK     1      18.484   5.416  32.079  1.00  0.00    -0.021 A 
HETATM    9  C5  UNK     1      18.170   4.161  32.596  1.00  0.00     0.052 A 
HETATM   10  C10 UNK     1      18.284   3.030  31.788  1.00  0.00     0.102 A 
HETATM   11  C13 UNK     1      18.711   3.157  30.465  1.00  0.00     0.101 A 
HETATM   12  C15 UNK     1      19.024   4.416  29.952  1.00  0.00     0.040 A 
HETATM   13  C8  UNK     1      18.910   5.547  30.760  1.00  0.00     0.015 A 
BRANCH  10  14
HETATM   14  O2  UNK     1      17.977   1.807  32.301  1.00  0.00    -0.353 OA
HETATM   15  C22 UNK     1      18.034   1.665  33.719  1.00  0.00     0.210 C 
ENDBRANCH  10  14
BRANCH  11  16
HETATM   16  O3  UNK     1      18.826   2.060  29.667  1.00  0.00    -0.353 OA
HETATM   17  C23 UNK     1      17.904   1.945  28.586  1.00  0.00     0.210 C 
ENDBRANCH  11  16
ENDBRANCH   3   8
BRANCH   5  18
HETATM   18  N1  UNK     1      16.651   9.411  34.504  1.00  0.00    -0.316 N 
HETATM   19  C14 UNK     1      16.764  10.769  34.243  1.00  0.00     0.262 C 
HETATM   20  O4  UNK     1      17.588  11.349  33.538  1.00  0.00    -0.267 OA
HETATM   21  H4  UNK     1      15.789   9.065  34.917  1.00  0.00     0.170 HD
BRANCH  19  22
HETATM   22  C9  UNK     1      15.730  11.547  34.935  1.00  0.00     0.108 A 
HETATM   23  C12 UNK     1      16.161  12.561  35.696  1.00  0.00     0.037 A 
HETATM   24  C6  UNK     1      15.211  13.389  36.420  1.00  0.00    -0.001 A 
HETATM   25  C11 UNK     1      13.853  13.110  36.310  1.00  0.00     0.089 A 
HETATM   26  C17 UNK     1      15.617  14.458  37.225  1.00  0.00     0.014 A 
HETATM   27  C18 UNK     1      12.891  13.866  36.979  1.00  0.00     0.038 A 
HETATM   28  O1  UNK     1      13.405  12.043  35.508  1.00  0.00    -0.274 OA
HETATM   29  C20 UNK     1      13.305  14.929  37.779  1.00  0.00     0.003 A 
HETATM   30  C19 UNK     1      14.664  15.224  37.902  1.00  0.00     0.001 A 
HETATM   31  C16 UNK     1      14.290  11.233  34.802  1.00  0.00     0.304 A 
HETATM   32  O5  UNK     1      13.890  10.305  34.106  1.00  0.00    -0.259 OA
ENDBRANCH  19  22
ENDBRANCH   5  18
TORSDOF 5
ENDMDL
MODEL 10
REMARK VINA RESULT:      -8.9     18.989     22.112
REMARK  5 active torsions:
REMARK  status: ('A' for Active; 'I' for Inactive)
REMARK    1  A    between atoms: C10_18  and  O2_3 
REMARK    2  A    between atoms: C13_21  and  O3_4 
REMARK       I    between atoms: C14_22  and  N1_7 
REMARK    3  A    between atoms: C4_12  and  N1_7 
REMARK    4  A    between atoms: C1_9  and  C2_10 
REMARK    5  A    between atoms: C14_22  and  C9_17 
ROOT
HETATM    1  S1  UNK     1      20.310  -4.376  14.440  1.00  0.00    -0.082 SA
HETATM    2  N2  UNK     1      18.844  -0.595  11.362  1.00  0.00    -0.191 NA
HETATM    3  C1  UNK     1      19.810  -4.020  11.946  1.00  0.00     0.004 A 
HETATM    4  C3  UNK     1      19.594  -2.761  12.575  1.00  0.00     0.090 A 
HETATM    5  C4  UNK     1      19.833  -2.833  13.911  1.00  0.00     0.098 A 
HETATM    6  C7  UNK     1      20.203  -4.987  12.844  1.00  0.00     0.065 A 
HETATM    7  C21 UNK     1      19.180  -1.565  11.905  1.00  0.00     0.103 C 
ENDROOT
BRANCH   3   8
HETATM    8  C2  UNK     1      19.662  -4.350  10.550  1.00  0.00    -0.021 A 
HETATM    9  C5  UNK     1      18.393  -4.567  10.020  1.00  0.00     0.052 A 
HETATM   10  C10 UNK     1      18.251  -4.886   8.669  1.00  0.00     0.102 A 
HETATM   11  C13 UNK     1      19.379  -4.986   7.854  1.00  0.00     0.101 A 
HETATM   12  C15 UNK     1      20.648  -4.768   8.390  1.00  0.00     0.040 A 
HETATM   13  C8  UNK     1      20.790  -4.449   9.740  1.00  0.00     0.015 A 
BRANCH  10  14
HETATM   14  O2  UNK     1      17.007  -5.098   8.158  1.00  0.00    -0.353 OA
HETATM   15  C22 UNK     1      16.357  -6.315   8.518  1.00  0.00     0.210 C 
ENDBRANCH  10  14
BRANCH  11  16
HETATM   16  O3  UNK     1      19.253  -5.296   6.534  1.00  0.00    -0.353 OA
HETATM   17  C23 UNK     1      19.473  -4.245   5.597  1.00  0.00     0.210 C 
ENDBRANCH  11  16
ENDBRANCH   3   8
BRANCH   5  18
HETATM   18  N1  UNK     1      19.748  -1.853  14.904  1.00  0.00    -0.316 N 
HETATM   19  C14 UNK     1      18.727  -1.715  15.833  1.00  0.00     0.262 C 
HETATM   20  O4  UNK     1      17.716  -2.402  15.971  1.00  0.00    -0.267 OA
HETATM   21  H4  UNK     1      20.620  -1.353  15.061  1.00  0.00     0.170 HD
BRANCH  19  22
HETATM   22  C9  UNK     1      18.954  -0.577  16.731  1.00  0.00     0.108 A 
HETATM   23  C12 UNK     1      18.949  -0.847  18.043  1.00  0.00     0.037 A 
HETATM   24  C6  UNK     1      19.166   0.215  19.011  1.00  0.00    -0.001 A 
HETATM   25  C11 UNK     1      19.376   1.511  18.553  1.00  0.00     0.089 A 
HETATM   26  C17 UNK     1      19.170  -0.022  20.389  1.00  0.00     0.014 A 
HETATM   27  C18 UNK     1      19.590   2.574  19.429  1.00  0.00     0.038 A 
HETATM   28  O1  UNK     1      19.381   1.790  17.173  1.00  0.00    -0.274 OA
HETATM   29  C20 UNK     1      19.592   2.329  20.800  1.00  0.00     0.003 A 
HETATM   30  C19 UNK     1      19.382   1.034  21.279  1.00  0.00     0.001 A 
HETATM   31  C16 UNK     1      19.177   0.794  16.222  1.00  0.00     0.304 A 
HETATM   32  O5  UNK     1      19.182   1.047  15.022  1.00  0.00    -0.259 OA
ENDBRANCH  19  22
ENDBRANCH   5  18
TORSDOF 5
ENDMDL
