MODEL 1
REMARK VINA RESULT:      -9.7      0.000      0.000
REMARK  3 active torsions:
REMARK  status: ('A' for Active; 'I' for Inactive)
REMARK       I    between atoms: C13_22  and  N1_8 
REMARK    1  A    between atoms: C3_12  and  N1_8 
REMARK    2  A    between atoms: C17_26  and  N2_9 
REMARK    3  A    between atoms: C13_22  and  C8_17 
ROOT
HETATM    1  O3  UNK     1      18.572  -7.946  36.877  1.00  0.00    -0.274 OA
HETATM    2  O5  UNK     1      17.439  -5.991  37.219  1.00  0.00    -0.259 OA
HETATM    3  C6  UNK     1      20.982  -7.899  36.572  1.00  0.00     0.001 A 
HETATM    4  C8  UNK     1      19.786  -5.823  36.933  1.00  0.00     0.108 A 
HETATM    5  C9  UNK     1      19.792  -8.612  36.654  1.00  0.00     0.089 A 
HETATM    6  C12 UNK     1      20.948  -6.452  36.720  1.00  0.00     0.037 A 
HETATM    7  C14 UNK     1      22.173  -8.596  36.350  1.00  0.00     0.050 A 
HETATM    8  C15 UNK     1      19.756  -9.999  36.521  1.00  0.00     0.041 A 
HETATM    9  C16 UNK     1      18.507  -6.562  37.025  1.00  0.00     0.304 A 
HETATM   10  C17 UNK     1      22.153  -9.988  36.214  1.00  0.00     0.103 A 
HETATM   11  C18 UNK     1      20.947 -10.687  36.299  1.00  0.00     0.039 A 
ENDROOT
BRANCH   4  12
HETATM   12  C13 UNK     1      19.853  -4.364  37.069  1.00  0.00     0.262 C 
HETATM   13  O4  UNK     1      20.815  -3.852  37.639  1.00  0.00    -0.267 OA
HETATM   14  N1  UNK     1      18.753  -3.740  36.498  1.00  0.00    -0.323 N 
HETATM   15  H9  UNK     1      18.024  -4.313  36.079  1.00  0.00     0.169 HD
BRANCH  14  16
HETATM   16  C3  UNK     1      18.514  -2.365  36.458  1.00  0.00     0.037 A 
HETATM   17  C11 UNK     1      17.981  -1.719  37.574  1.00  0.00     0.032 A 
HETATM   18  C10 UNK     1      17.745  -0.344  37.541  1.00  0.00     0.042 A 
HETATM   19  C2  UNK     1      18.048   0.384  36.391  1.00  0.00     0.102 A 
HETATM   20  C1  UNK     1      18.557  -0.267  35.265  1.00  0.00     0.104 A 
HETATM   21  O2  UNK     1      17.814   1.734  36.426  1.00  0.00    -0.346 OA
HETATM   22  O1  UNK     1      18.843   0.386  34.094  1.00  0.00    -0.346 OA
HETATM   23  C7  UNK     1      18.805  -1.639  35.303  1.00  0.00     0.069 A 
HETATM   24  C4  UNK     1      18.239   1.683  34.046  1.00  0.00     0.202 C 
HETATM   25  C5  UNK     1      18.468   2.417  35.353  1.00  0.00     0.202 C 
ENDBRANCH  14  16
ENDBRANCH   4  12
BRANCH  10  26
HETATM   26  N2  UNK     1      23.365 -10.692  35.987  1.00  0.00    -0.116 N 
HETATM   27  O6  UNK     1      24.431 -10.221  36.446  1.00  0.00    -0.532 OA
HETATM   28  O7  UNK     1      23.326 -11.762  35.333  1.00  0.00    -0.532 OA
ENDBRANCH  10  26
TORSDOF 3
ENDMDL
MODEL 2
REMARK VINA RESULT:      -9.7      7.215     10.034
REMARK  3 active torsions:
REMARK  status: ('A' for Active; 'I' for Inactive)
REMARK       I    between atoms: C13_22  and  N1_8 
REMARK    1  A    between atoms: C3_12  and  N1_8 
REMARK    2  A    between atoms: C17_26  and  N2_9 
REMARK    3  A    between atoms: C13_22  and  C8_17 
ROOT
HETATM    1  O3  UNK     1      19.074   1.555  28.703  1.00  0.00    -0.274 OA
HETATM    2  O5  UNK     1      18.229   3.677  28.716  1.00  0.00    -0.259 OA
HETATM    3  C6  UNK     1      19.595   0.457  30.808  1.00  0.00     0.001 A 
HETATM    4  C8  UNK     1      18.699   2.708  30.827  1.00  0.00     0.108 A 
HETATM    5  C9  UNK     1      19.547   0.438  29.418  1.00  0.00     0.089 A 
HETATM    6  C12 UNK     1      19.148   1.649  31.511  1.00  0.00     0.037 A 
HETATM    7  C14 UNK     1      20.070  -0.671  31.482  1.00  0.00     0.050 A 
HETATM    8  C15 UNK     1      19.961  -0.673  28.685  1.00  0.00     0.041 A 
HETATM    9  C16 UNK     1      18.639   2.710  29.348  1.00  0.00     0.304 A 
HETATM   10  C17 UNK     1      20.488  -1.793  30.760  1.00  0.00     0.103 A 
HETATM   11  C18 UNK     1      20.434  -1.793  29.364  1.00  0.00     0.039 A 
ENDROOT
BRANCH   4  12
HETATM   12  C13 UNK     1      18.271   3.863  31.625  1.00  0.00     0.262 C 
HETATM   13  O4  UNK     1      17.168   3.849  32.167  1.00  0.00    -0.267 OA
HETATM   14  N1  UNK     1      19.236   4.860  31.650  1.00  0.00    -0.323 N 
HETATM   15  H9  UNK     1      20.097   4.725  31.126  1.00  0.00     0.169 HD
BRANCH  14  16
HETATM   16  C3  UNK     1      19.139   6.083  32.317  1.00  0.00     0.037 A 
HETATM   17  C11 UNK     1      20.189   6.517  33.127  1.00  0.00     0.032 A 
HETATM   18  C10 UNK     1      20.100   7.740  33.792  1.00  0.00     0.042 A 
HETATM   19  C2  UNK     1      18.960   8.530  33.642  1.00  0.00     0.102 A 
HETATM   20  C1  UNK     1      17.898   8.082  32.852  1.00  0.00     0.104 A 
HETATM   21  O2  UNK     1      18.939   9.731  34.303  1.00  0.00    -0.346 OA
HETATM   22  O1  UNK     1      16.739   8.796  32.691  1.00  0.00    -0.346 OA
HETATM   23  C7  UNK     1      17.994   6.865  32.177  1.00  0.00     0.069 A 
HETATM   24  C4  UNK     1      16.606   9.825  33.676  1.00  0.00     0.202 C 
HETATM   25  C5  UNK     1      17.908  10.591  33.814  1.00  0.00     0.202 C 
ENDBRANCH  14  16
ENDBRANCH   4  12
BRANCH  10  26
HETATM   26  N2  UNK     1      20.972  -2.937  31.448  1.00  0.00    -0.116 N 
HETATM   27  O6  UNK     1      21.012  -2.913  32.701  1.00  0.00    -0.532 OA
HETATM   28  O7  UNK     1      21.342  -3.930  30.780  1.00  0.00    -0.532 OA
ENDBRANCH  10  26
TORSDOF 3
ENDMDL
MODEL 3
REMARK VINA RESULT:      -9.4     19.682     22.769
REMARK  3 active torsions:
REMARK  status: ('A' for Active; 'I' for Inactive)
REMARK       I    between atoms: C13_22  and  N1_8 
REMARK    1  A    between atoms: C3_12  and  N1_8 
REMARK    2  A    between atoms: C17_26  and  N2_9 
REMARK    3  A    between atoms: C13_22  and  C8_17 
ROOT
HETATM    1  O3  UNK     1      19.262   0.639  15.057  1.00  0.00    -0.274 OA
HETATM    2  O5  UNK     1      19.147  -0.950  13.419  1.00  0.00    -0.259 OA
HETATM    3  C6  UNK     1      18.826   0.018  17.366  1.00  0.00     0.001 A 
HETATM    4  C8  UNK     1      18.702  -1.671  15.633  1.00  0.00     0.108 A 
HETATM    5  C9  UNK     1      19.154   0.981  16.419  1.00  0.00     0.089 A 
HETATM    6  C12 UNK     1      18.597  -1.351  16.928  1.00  0.00     0.037 A 
HETATM    7  C14 UNK     1      18.728   0.396  18.707  1.00  0.00     0.050 A 
HETATM    8  C15 UNK     1      19.386   2.309  16.772  1.00  0.00     0.041 A 
HETATM    9  C16 UNK     1      19.050  -0.662  14.607  1.00  0.00     0.304 A 
HETATM   10  C17 UNK     1      18.958   1.725  19.077  1.00  0.00     0.103 A 
HETATM   11  C18 UNK     1      19.286   2.678  18.111  1.00  0.00     0.039 A 
ENDROOT
BRANCH   4  12
HETATM   12  C13 UNK     1      18.452  -3.076  15.289  1.00  0.00     0.262 C 
HETATM   13  O4  UNK     1      17.494  -3.661  15.791  1.00  0.00    -0.267 OA
HETATM   14  N1  UNK     1      19.392  -3.564  14.393  1.00  0.00    -0.323 N 
HETATM   15  H9  UNK     1      20.144  -2.952  14.085  1.00  0.00     0.169 HD
BRANCH  14  16
HETATM   16  C3  UNK     1      19.436  -4.858  13.869  1.00  0.00     0.037 A 
HETATM   17  C11 UNK     1      18.258  -5.481  13.454  1.00  0.00     0.032 A 
HETATM   18  C10 UNK     1      18.298  -6.771  12.926  1.00  0.00     0.042 A 
HETATM   19  C2  UNK     1      19.518  -7.436  12.809  1.00  0.00     0.102 A 
HETATM   20  C1  UNK     1      20.694  -6.823  13.250  1.00  0.00     0.104 A 
HETATM   21  O2  UNK     1      19.496  -8.693  12.264  1.00  0.00    -0.346 OA
HETATM   22  O1  UNK     1      21.919  -7.436  13.194  1.00  0.00    -0.346 OA
HETATM   23  C7  UNK     1      20.655  -5.528  13.766  1.00  0.00     0.069 A 
HETATM   24  C4  UNK     1      21.799  -8.847  12.985  1.00  0.00     0.202 C 
HETATM   25  C5  UNK     1      20.802  -9.131  11.878  1.00  0.00     0.202 C 
ENDBRANCH  14  16
ENDBRANCH   4  12
BRANCH  10  26
HETATM   26  N2  UNK     1      18.856   2.106  20.442  1.00  0.00    -0.116 N 
HETATM   27  O6  UNK     1      19.895   2.458  21.048  1.00  0.00    -0.532 OA
HETATM   28  O7  UNK     1      17.731   2.076  20.993  1.00  0.00    -0.532 OA
ENDBRANCH  10  26
TORSDOF 3
ENDMDL
MODEL 4
REMARK VINA RESULT:      -9.3      6.669      9.871
REMARK  3 active torsions:
REMARK  status: ('A' for Active; 'I' for Inactive)
REMARK       I    between atoms: C13_22  and  N1_8 
REMARK    1  A    between atoms: C3_12  and  N1_8 
REMARK    2  A    between atoms: C17_26  and  N2_9 
REMARK    3  A    between atoms: C13_22  and  C8_17 
ROOT
HETATM    1  O3  UNK     1      27.976  -4.672  38.663  1.00  0.00    -0.274 OA
HETATM    2  O5  UNK     1      25.732  -4.999  38.945  1.00  0.00    -0.259 OA
HETATM    3  C6  UNK     1      29.448  -6.590  38.421  1.00  0.00     0.001 A 
HETATM    4  C8  UNK     1      27.070  -6.943  38.721  1.00  0.00     0.108 A 
HETATM    5  C9  UNK     1      29.263  -5.214  38.481  1.00  0.00     0.089 A 
HETATM    6  C12 UNK     1      28.291  -7.463  38.550  1.00  0.00     0.037 A 
HETATM    7  C14 UNK     1      30.740  -7.091  38.240  1.00  0.00     0.050 A 
HETATM    8  C15 UNK     1      30.329  -4.324  38.365  1.00  0.00     0.041 A 
HETATM    9  C16 UNK     1      26.849  -5.481  38.787  1.00  0.00     0.304 A 
HETATM   10  C17 UNK     1      31.820  -6.210  38.122  1.00  0.00     0.103 A 
HETATM   11  C18 UNK     1      31.614  -4.830  38.185  1.00  0.00     0.039 A 
ENDROOT
BRANCH   4  12
HETATM   12  C13 UNK     1      25.966  -7.903  38.841  1.00  0.00     0.262 C 
HETATM   13  O4  UNK     1      26.209  -9.071  39.137  1.00  0.00    -0.267 OA
HETATM   14  N1  UNK     1      24.737  -7.312  38.586  1.00  0.00    -0.323 N 
HETATM   15  H9  UNK     1      24.707  -6.328  38.330  1.00  0.00     0.169 HD
BRANCH  14  16
HETATM   16  C3  UNK     1      23.495  -7.949  38.616  1.00  0.00     0.037 A 
HETATM   17  C11 UNK     1      22.705  -7.878  39.764  1.00  0.00     0.032 A 
HETATM   18  C10 UNK     1      21.461  -8.508  39.798  1.00  0.00     0.042 A 
HETATM   19  C2  UNK     1      21.007  -9.207  38.681  1.00  0.00     0.102 A 
HETATM   20  C1  UNK     1      21.810  -9.302  37.541  1.00  0.00     0.104 A 
HETATM   21  O2  UNK     1      19.768  -9.789  38.766  1.00  0.00    -0.346 OA
HETATM   22  O1  UNK     1      21.435 -10.002  36.423  1.00  0.00    -0.346 OA
HETATM   23  C7  UNK     1      23.047  -8.660  37.503  1.00  0.00     0.069 A 
HETATM   24  C4  UNK     1      20.343 -10.887  36.690  1.00  0.00     0.202 C 
HETATM   25  C5  UNK     1      19.267 -10.169  37.482  1.00  0.00     0.202 C 
ENDBRANCH  14  16
ENDBRANCH   4  12
BRANCH  10  26
HETATM   26  N2  UNK     1      33.132  -6.722  37.939  1.00  0.00    -0.116 N 
HETATM   27  O6  UNK     1      34.097  -5.921  37.940  1.00  0.00    -0.532 OA
HETATM   28  O7  UNK     1      33.280  -7.956  37.782  1.00  0.00    -0.532 OA
ENDBRANCH  10  26
TORSDOF 3
ENDMDL
MODEL 5
REMARK VINA RESULT:      -9.3      8.625     14.512
REMARK  3 active torsions:
REMARK  status: ('A' for Active; 'I' for Inactive)
REMARK       I    between atoms: C13_22  and  N1_8 
REMARK    1  A    between atoms: C3_12  and  N1_8 
REMARK    2  A    between atoms: C17_26  and  N2_9 
REMARK    3  A    between atoms: C13_22  and  C8_17 
ROOT
HETATM    1  O3  UNK     1      19.211   7.978  33.397  1.00  0.00    -0.274 OA
HETATM    2  O5  UNK     1      20.501   6.164  32.879  1.00  0.00    -0.259 OA
HETATM    3  C6  UNK     1      16.790   7.764  33.414  1.00  0.00     0.001 A 
HETATM    4  C8  UNK     1      18.154   5.838  32.864  1.00  0.00     0.108 A 
HETATM    5  C9  UNK     1      17.933   8.538  33.585  1.00  0.00     0.089 A 
HETATM    6  C12 UNK     1      16.937   6.365  33.040  1.00  0.00     0.037 A 
HETATM    7  C14 UNK     1      15.539   8.355  33.609  1.00  0.00     0.050 A 
HETATM    8  C15 UNK     1      17.861   9.883  33.942  1.00  0.00     0.041 A 
HETATM    9  C16 UNK     1      19.383   6.643  33.040  1.00  0.00     0.304 A 
HETATM   10  C17 UNK     1      15.452   9.703  33.968  1.00  0.00     0.103 A 
HETATM   11  C18 UNK     1      16.611  10.465  34.134  1.00  0.00     0.039 A 
ENDROOT
BRANCH   4  12
HETATM   12  C13 UNK     1      18.199   4.420  32.487  1.00  0.00     0.262 C 
HETATM   13  O4  UNK     1      17.877   3.564  33.309  1.00  0.00    -0.267 OA
HETATM   14  N1  UNK     1      18.624   4.247  31.177  1.00  0.00    -0.323 N 
HETATM   15  H9  UNK     1      18.876   5.066  30.629  1.00  0.00     0.169 HD
BRANCH  14  16
HETATM   16  C3  UNK     1      18.775   3.027  30.515  1.00  0.00     0.037 A 
HETATM   17  C11 UNK     1      18.189   2.838  29.263  1.00  0.00     0.032 A 
HETATM   18  C10 UNK     1      18.341   1.623  28.595  1.00  0.00     0.042 A 
HETATM   19  C2  UNK     1      19.083   0.598  29.180  1.00  0.00     0.102 A 
HETATM   20  C1  UNK     1      19.647   0.777  30.446  1.00  0.00     0.104 A 
HETATM   21  O2  UNK     1      19.215  -0.566  28.467  1.00  0.00    -0.346 OA
HETATM   22  O1  UNK     1      20.359  -0.202  31.089  1.00  0.00    -0.346 OA
HETATM   23  C7  UNK     1      19.506   1.997  31.107  1.00  0.00     0.069 A 
HETATM   24  C4  UNK     1      20.149  -1.489  30.498  1.00  0.00     0.202 C 
HETATM   25  C5  UNK     1      20.256  -1.396  28.988  1.00  0.00     0.202 C 
ENDBRANCH  14  16
ENDBRANCH   4  12
BRANCH  10  26
HETATM   26  N2  UNK     1      14.179  10.301  34.164  1.00  0.00    -0.116 N 
HETATM   27  O6  UNK     1      13.401  10.396  33.186  1.00  0.00    -0.532 OA
HETATM   28  O7  UNK     1      13.877  10.714  35.309  1.00  0.00    -0.532 OA
ENDBRANCH  10  26
TORSDOF 3
ENDMDL
MODEL 6
REMARK VINA RESULT:      -9.3     19.277     22.368
REMARK  3 active torsions:
REMARK  status: ('A' for Active; 'I' for Inactive)
REMARK       I    between atoms: C13_22  and  N1_8 
REMARK    1  A    between atoms: C3_12  and  N1_8 
REMARK    2  A    between atoms: C17_26  and  N2_9 
REMARK    3  A    between atoms: C13_22  and  C8_17 
ROOT
HETATM    1  O3  UNK     1      19.315   0.938  15.087  1.00  0.00    -0.274 OA
HETATM    2  O5  UNK     1      19.456  -0.603  13.406  1.00  0.00    -0.259 OA
HETATM    3  C6  UNK     1      19.060   0.189  17.384  1.00  0.00     0.001 A 
HETATM    4  C8  UNK     1      19.209  -1.450  15.605  1.00  0.00     0.108 A 
HETATM    5  C9  UNK     1      19.179   1.220  16.460  1.00  0.00     0.089 A 
HETATM    6  C12 UNK     1      19.079  -1.187  16.911  1.00  0.00     0.037 A 
HETATM    7  C14 UNK     1      18.927   0.507  18.738  1.00  0.00     0.050 A 
HETATM    8  C15 UNK     1      19.168   2.559  16.848  1.00  0.00     0.041 A 
HETATM    9  C16 UNK     1      19.337  -0.368  14.603  1.00  0.00     0.304 A 
HETATM   10  C17 UNK     1      18.915   1.846  19.143  1.00  0.00     0.103 A 
HETATM   11  C18 UNK     1      19.035   2.869  18.199  1.00  0.00     0.039 A 
ENDROOT
BRANCH   4  12
HETATM   12  C13 UNK     1      19.216  -2.867  15.226  1.00  0.00     0.262 C 
HETATM   13  O4  UNK     1      20.264  -3.388  14.848  1.00  0.00    -0.267 OA
HETATM   14  N1  UNK     1      17.961  -3.445  15.358  1.00  0.00    -0.323 N 
HETATM   15  H9  UNK     1      17.183  -2.866  15.666  1.00  0.00     0.169 HD
BRANCH  14  16
HETATM   16  C3  UNK     1      17.631  -4.772  15.078  1.00  0.00     0.037 A 
HETATM   17  C11 UNK     1      17.082  -5.577  16.077  1.00  0.00     0.032 A 
HETATM   18  C10 UNK     1      16.746  -6.903  15.802  1.00  0.00     0.042 A 
HETATM   19  C2  UNK     1      16.958  -7.421  14.525  1.00  0.00     0.102 A 
HETATM   20  C1  UNK     1      17.533  -6.623  13.532  1.00  0.00     0.104 A 
HETATM   21  O2  UNK     1      16.590  -8.724  14.308  1.00  0.00    -0.346 OA
HETATM   22  O1  UNK     1      17.798  -7.083  12.268  1.00  0.00    -0.346 OA
HETATM   23  C7  UNK     1      17.856  -5.294  13.805  1.00  0.00     0.069 A 
HETATM   24  C4  UNK     1      17.758  -8.512  12.202  1.00  0.00     0.202 C 
HETATM   25  C5  UNK     1      16.526  -9.036  12.915  1.00  0.00     0.202 C 
ENDBRANCH  14  16
ENDBRANCH   4  12
BRANCH  10  26
HETATM   26  N2  UNK     1      18.779   2.167  20.519  1.00  0.00    -0.116 N 
HETATM   27  O6  UNK     1      17.644   2.093  21.046  1.00  0.00    -0.532 OA
HETATM   28  O7  UNK     1      19.798   2.513  21.161  1.00  0.00    -0.532 OA
ENDBRANCH  10  26
TORSDOF 3
ENDMDL
MODEL 7
REMARK VINA RESULT:      -9.2      3.104      9.055
REMARK  3 active torsions:
REMARK  status: ('A' for Active; 'I' for Inactive)
REMARK       I    between atoms: C13_22  and  N1_8 
REMARK    1  A    between atoms: C3_12  and  N1_8 
REMARK    2  A    between atoms: C17_26  and  N2_9 
REMARK    3  A    between atoms: C13_22  and  C8_17 
ROOT
HETATM    1  O3  UNK     1      18.748  -0.340  34.474  1.00  0.00    -0.274 OA
HETATM    2  O5  UNK     1      18.781  -1.330  36.533  1.00  0.00    -0.259 OA
HETATM    3  C6  UNK     1      19.859  -1.423  32.603  1.00  0.00     0.001 A 
HETATM    4  C8  UNK     1      19.897  -2.477  34.785  1.00  0.00     0.108 A 
HETATM    5  C9  UNK     1      19.116  -0.366  33.115  1.00  0.00     0.089 A 
HETATM    6  C12 UNK     1      20.251  -2.505  33.495  1.00  0.00     0.037 A 
HETATM    7  C14 UNK     1      20.205  -1.413  31.249  1.00  0.00     0.050 A 
HETATM    8  C15 UNK     1      18.710   0.701  32.314  1.00  0.00     0.041 A 
HETATM    9  C16 UNK     1      19.107  -1.361  35.351  1.00  0.00     0.304 A 
HETATM   10  C17 UNK     1      19.805  -0.350  30.434  1.00  0.00     0.103 A 
HETATM   11  C18 UNK     1      19.059   0.704  30.966  1.00  0.00     0.039 A 
ENDROOT
BRANCH   4  12
HETATM   12  C13 UNK     1      20.339  -3.612  35.604  1.00  0.00     0.262 C 
HETATM   13  O4  UNK     1      21.169  -3.431  36.492  1.00  0.00    -0.267 OA
HETATM   14  N1  UNK     1      19.715  -4.793  35.230  1.00  0.00    -0.323 N 
HETATM   15  H9  UNK     1      19.060  -4.779  34.451  1.00  0.00     0.169 HD
BRANCH  14  16
HETATM   16  C3  UNK     1      19.914  -6.048  35.808  1.00  0.00     0.037 A 
HETATM   17  C11 UNK     1      19.550  -6.268  37.137  1.00  0.00     0.032 A 
HETATM   18  C10 UNK     1      19.742  -7.522  37.717  1.00  0.00     0.042 A 
HETATM   19  C2  UNK     1      20.296  -8.557  36.965  1.00  0.00     0.102 A 
HETATM   20  C1  UNK     1      20.685  -8.330  35.643  1.00  0.00     0.104 A 
HETATM   21  O2  UNK     1      20.441  -9.772  37.584  1.00  0.00    -0.346 OA
HETATM   22  O1  UNK     1      21.266  -9.295  34.862  1.00  0.00    -0.346 OA
HETATM   23  C7  UNK     1      20.481  -7.080  35.059  1.00  0.00     0.069 A 
HETATM   24  C4  UNK     1      21.740 -10.398  35.642  1.00  0.00     0.202 C 
HETATM   25  C5  UNK     1      20.684 -10.822  36.645  1.00  0.00     0.202 C 
ENDBRANCH  14  16
ENDBRANCH   4  12
BRANCH  10  26
HETATM   26  N2  UNK     1      20.160  -0.342  29.059  1.00  0.00    -0.116 N 
HETATM   27  O6  UNK     1      21.251  -0.852  28.715  1.00  0.00    -0.532 OA
HETATM   28  O7  UNK     1      19.368   0.176  28.236  1.00  0.00    -0.532 OA
ENDBRANCH  10  26
TORSDOF 3
ENDMDL
MODEL 8
REMARK VINA RESULT:      -9.2      2.697      9.588
REMARK  3 active torsions:
REMARK  status: ('A' for Active; 'I' for Inactive)
REMARK       I    between atoms: C13_22  and  N1_8 
REMARK    1  A    between atoms: C3_12  and  N1_8 
REMARK    2  A    between atoms: C17_26  and  N2_9 
REMARK    3  A    between atoms: C13_22  and  C8_17 
ROOT
HETATM    1  O3  UNK     1      18.462  -0.140  37.321  1.00  0.00    -0.274 OA
HETATM    2  O5  UNK     1      18.915  -2.082  38.438  1.00  0.00    -0.259 OA
HETATM    3  C6  UNK     1      18.637  -0.080  34.898  1.00  0.00     0.001 A 
HETATM    4  C8  UNK     1      19.119  -2.141  36.077  1.00  0.00     0.108 A 
HETATM    5  C9  UNK     1      18.363   0.558  36.103  1.00  0.00     0.089 A 
HETATM    6  C12 UNK     1      19.027  -1.482  34.917  1.00  0.00     0.037 A 
HETATM    7  C14 UNK     1      18.528   0.646  33.709  1.00  0.00     0.050 A 
HETATM    8  C15 UNK     1      17.985   1.899  36.154  1.00  0.00     0.041 A 
HETATM    9  C16 UNK     1      18.832  -1.482  37.371  1.00  0.00     0.304 A 
HETATM   10  C17 UNK     1      18.149   1.992  33.745  1.00  0.00     0.103 A 
HETATM   11  C18 UNK     1      17.879   2.616  34.965  1.00  0.00     0.039 A 
ENDROOT
BRANCH   4  12
HETATM   12  C13 UNK     1      19.520  -3.550  35.994  1.00  0.00     0.262 C 
HETATM   13  O4  UNK     1      20.502  -3.862  35.322  1.00  0.00    -0.267 OA
HETATM   14  N1  UNK     1      18.680  -4.372  36.731  1.00  0.00    -0.323 N 
HETATM   15  H9  UNK     1      17.889  -3.957  37.219  1.00  0.00     0.169 HD
BRANCH  14  16
HETATM   16  C3  UNK     1      18.787  -5.758  36.858  1.00  0.00     0.037 A 
HETATM   17  C11 UNK     1      18.118  -6.593  35.962  1.00  0.00     0.032 A 
HETATM   18  C10 UNK     1      18.227  -7.978  36.082  1.00  0.00     0.042 A 
HETATM   19  C2  UNK     1      19.008  -8.528  37.098  1.00  0.00     0.102 A 
HETATM   20  C1  UNK     1      19.655  -7.693  38.012  1.00  0.00     0.104 A 
HETATM   21  O2  UNK     1      19.092  -9.895  37.152  1.00  0.00    -0.346 OA
HETATM   22  O1  UNK     1      20.410  -8.171  39.052  1.00  0.00    -0.346 OA
HETATM   23  C7  UNK     1      19.557  -6.307  37.883  1.00  0.00     0.069 A 
HETATM   24  C4  UNK     1      20.162  -9.559  39.295  1.00  0.00     0.202 C 
HETATM   25  C5  UNK     1      20.167 -10.330  37.989  1.00  0.00     0.202 C 
ENDBRANCH  14  16
ENDBRANCH   4  12
BRANCH  10  26
HETATM   26  N2  UNK     1      18.040   2.727  32.535  1.00  0.00    -0.116 N 
HETATM   27  O6  UNK     1      18.220   2.129  31.448  1.00  0.00    -0.532 OA
HETATM   28  O7  UNK     1      17.769   3.950  32.595  1.00  0.00    -0.532 OA
ENDBRANCH  10  26
TORSDOF 3
ENDMDL
MODEL 9
REMARK VINA RESULT:      -9.2      6.577     10.671
REMARK  3 active torsions:
REMARK  status: ('A' for Active; 'I' for Inactive)
REMARK       I    between atoms: C13_22  and  N1_8 
REMARK    1  A    between atoms: C3_12  and  N1_8 
REMARK    2  A    between atoms: C17_26  and  N2_9 
REMARK    3  A    between atoms: C13_22  and  C8_17 
ROOT
HETATM    1  O3  UNK     1      18.287   1.515  32.371  1.00  0.00    -0.274 OA
HETATM    2  O5  UNK     1      18.347   3.186  30.813  1.00  0.00    -0.259 OA
HETATM    3  C6  UNK     1      18.214   2.079  34.734  1.00  0.00     0.001 A 
HETATM    4  C8  UNK     1      18.279   3.854  33.086  1.00  0.00     0.108 A 
HETATM    5  C9  UNK     1      18.240   1.125  33.723  1.00  0.00     0.089 A 
HETATM    6  C12 UNK     1      18.236   3.488  34.372  1.00  0.00     0.037 A 
HETATM    7  C14 UNK     1      18.168   1.653  36.064  1.00  0.00     0.050 A 
HETATM    8  C15 UNK     1      18.222  -0.241  34.002  1.00  0.00     0.041 A 
HETATM    9  C16 UNK     1      18.307   2.856  31.994  1.00  0.00     0.304 A 
HETATM   10  C17 UNK     1      18.149   0.286  36.359  1.00  0.00     0.103 A 
HETATM   11  C18 UNK     1      18.177  -0.658  35.330  1.00  0.00     0.039 A 
ENDROOT
BRANCH   4  12
HETATM   12  C13 UNK     1      18.298   5.298  32.822  1.00  0.00     0.262 C 
HETATM   13  O4  UNK     1      18.156   5.705  31.671  1.00  0.00    -0.267 OA
HETATM   14  N1  UNK     1      18.485   6.034  33.983  1.00  0.00    -0.323 N 
HETATM   15  H9  UNK     1      18.609   5.540  34.864  1.00  0.00     0.169 HD
BRANCH  14  16
HETATM   16  C3  UNK     1      18.551   7.425  34.075  1.00  0.00     0.037 A 
HETATM   17  C11 UNK     1      19.788   8.054  34.224  1.00  0.00     0.032 A 
HETATM   18  C10 UNK     1      19.860   9.445  34.311  1.00  0.00     0.042 A 
HETATM   19  C2  UNK     1      18.693  10.205  34.245  1.00  0.00     0.102 A 
HETATM   20  C1  UNK     1      17.452   9.574  34.123  1.00  0.00     0.104 A 
HETATM   21  O2  UNK     1      18.828  11.567  34.316  1.00  0.00    -0.346 OA
HETATM   22  O1  UNK     1      16.267  10.262  34.087  1.00  0.00    -0.346 OA
HETATM   23  C7  UNK     1      17.382   8.184  34.023  1.00  0.00     0.069 A 
HETATM   24  C4  UNK     1      16.421  11.611  34.539  1.00  0.00     0.202 C 
HETATM   25  C5  UNK     1      17.641  12.244  33.897  1.00  0.00     0.202 C 
ENDBRANCH  14  16
ENDBRANCH   4  12
BRANCH  10  26
HETATM   26  N2  UNK     1      18.104  -0.144  37.712  1.00  0.00    -0.116 N 
HETATM   27  O6  UNK     1      17.957   0.715  38.612  1.00  0.00    -0.532 OA
HETATM   28  O7  UNK     1      18.212  -1.368  37.958  1.00  0.00    -0.532 OA
ENDBRANCH  10  26
TORSDOF 3
ENDMDL
MODEL 10
REMARK VINA RESULT:      -9.2      4.047      9.463
REMARK  3 active torsions:
REMARK  status: ('A' for Active; 'I' for Inactive)
REMARK       I    between atoms: C13_22  and  N1_8 
REMARK    1  A    between atoms: C3_12  and  N1_8 
REMARK    2  A    between atoms: C17_26  and  N2_9 
REMARK    3  A    between atoms: C13_22  and  C8_17 
ROOT
HETATM    1  O3  UNK     1      20.859  -2.735  30.449  1.00  0.00    -0.274 OA
HETATM    2  O5  UNK     1      21.551  -4.329  31.933  1.00  0.00    -0.259 OA
HETATM    3  C6  UNK     1      19.769  -0.724  31.270  1.00  0.00     0.001 A 
HETATM    4  C8  UNK     1      20.500  -2.412  32.847  1.00  0.00     0.108 A 
HETATM    5  C9  UNK     1      20.245  -1.490  30.212  1.00  0.00     0.089 A 
HETATM    6  C12 UNK     1      19.915  -1.228  32.627  1.00  0.00     0.037 A 
HETATM    7  C14 UNK     1      19.165   0.506  30.995  1.00  0.00     0.050 A 
HETATM    8  C15 UNK     1      20.136  -1.064  28.889  1.00  0.00     0.041 A 
HETATM    9  C16 UNK     1      21.014  -3.244  31.736  1.00  0.00     0.304 A 
HETATM   10  C17 UNK     1      19.049   0.947  29.672  1.00  0.00     0.103 A 
HETATM   11  C18 UNK     1      19.533   0.163  28.623  1.00  0.00     0.039 A 
ENDROOT
BRANCH   4  12
HETATM   12  C13 UNK     1      20.600  -2.835  34.248  1.00  0.00     0.262 C 
HETATM   13  O4  UNK     1      21.007  -2.041  35.094  1.00  0.00    -0.267 OA
HETATM   14  N1  UNK     1      20.196  -4.151  34.421  1.00  0.00    -0.323 N 
HETATM   15  H9  UNK     1      19.903  -4.688  33.607  1.00  0.00     0.169 HD
BRANCH  14  16
HETATM   16  C3  UNK     1      20.171  -4.854  35.627  1.00  0.00     0.037 A 
HETATM   17  C11 UNK     1      20.289  -4.166  36.835  1.00  0.00     0.032 A 
HETATM   18  C10 UNK     1      20.259  -4.862  38.044  1.00  0.00     0.042 A 
HETATM   19  C2  UNK     1      20.109  -6.248  38.041  1.00  0.00     0.102 A 
HETATM   20  C1  UNK     1      20.018  -6.940  36.831  1.00  0.00     0.104 A 
HETATM   21  O2  UNK     1      20.067  -6.875  39.260  1.00  0.00    -0.346 OA
HETATM   22  O1  UNK     1      19.902  -8.305  36.761  1.00  0.00    -0.346 OA
HETATM   23  C7  UNK     1      20.034  -6.242  35.624  1.00  0.00     0.069 A 
HETATM   24  C4  UNK     1      20.242  -8.933  38.001  1.00  0.00     0.202 C 
HETATM   25  C5  UNK     1      19.571  -8.212  39.155  1.00  0.00     0.202 C 
ENDBRANCH  14  16
ENDBRANCH   4  12
BRANCH  10  26
HETATM   26  N2  UNK     1      18.434   2.197  29.396  1.00  0.00    -0.116 N 
HETATM   27  O6  UNK     1      18.397   3.063  30.301  1.00  0.00    -0.532 OA
HETATM   28  O7  UNK     1      17.949   2.391  28.257  1.00  0.00    -0.532 OA
ENDBRANCH  10  26
TORSDOF 3
ENDMDL
