MODEL 1
REMARK VINA RESULT:      -8.7      0.000      0.000
REMARK  4 active torsions:
REMARK  status: ('A' for Active; 'I' for Inactive)
REMARK    1  A    between atoms: C15_22  and  O3_4 
REMARK    2  A    between atoms: C5_12  and  N1_6 
REMARK       I    between atoms: C7_14  and  N2_7 
REMARK    3  A    between atoms: C5_12  and  C6_13 
REMARK    4  A    between atoms: C10_17  and  C7_14 
ROOT
HETATM    1  O2  UNK     1       7.183   7.137   7.056  1.00  0.00    -0.267 OA
HETATM    2  N1  UNK     1      12.101   6.364   7.312  1.00  0.00     0.095 N 
HETATM    3  N2  UNK     1       9.270   6.342   7.748  1.00  0.00    -0.345 N 
HETATM    4  C1  UNK     1      11.557   6.547   8.665  1.00  0.00     0.292 C 
HETATM    5  C2  UNK     1      11.187   6.933   6.309  1.00  0.00     0.292 C 
HETATM    6  C3  UNK     1      10.183   5.885   8.801  1.00  0.00     0.156 C 
HETATM    7  C4  UNK     1       9.815   6.268   6.394  1.00  0.00     0.156 C 
HETATM    8  C7  UNK     1       7.950   6.754   7.939  1.00  0.00     0.253 C 
ENDROOT
BRANCH   2   9
HETATM    9  C5  UNK     1      13.425   6.974   7.204  1.00  0.00     0.312 C 
BRANCH   9  10
HETATM   10  C6  UNK     1      14.299   6.630   8.360  1.00  0.00    -0.011 A 
HETATM   11  C8  UNK     1      14.728   7.681   9.291  1.00  0.00     0.009 A 
HETATM   12  C11 UNK     1      15.548   7.329  10.365  1.00  0.00     0.090 A 
HETATM   13  C12 UNK     1      14.364   9.029   9.168  1.00  0.00     0.051 A 
HETATM   14  O1  UNK     1      15.959   5.995  10.561  1.00  0.00    -0.275 OA
HETATM   15  C14 UNK     1      16.001   8.265  11.297  1.00  0.00     0.041 A 
HETATM   16  C13 UNK     1      15.567   4.982   9.699  1.00  0.00     0.288 A 
HETATM   17  O4  UNK     1      15.919   3.819   9.861  1.00  0.00    -0.260 OA
HETATM   18  C9  UNK     1      14.704   5.370   8.570  1.00  0.00     0.092 A 
HETATM   19  C18 UNK     1      15.628   9.598  11.156  1.00  0.00     0.039 A 
HETATM   20  C15 UNK     1      14.810   9.979  10.094  1.00  0.00     0.069 A 
BRANCH  20  21
HETATM   21  O3  UNK     1      14.444  11.283   9.955  1.00  0.00    -0.356 OA
HETATM   22  C22 UNK     1      13.147  11.646  10.425  1.00  0.00     0.210 C 
ENDBRANCH  20  21
ENDBRANCH   9  10
ENDBRANCH   2   9
BRANCH   8  23
HETATM   23  C10 UNK     1       7.406   6.729   9.303  1.00  0.00     0.032 A 
HETATM   24  C16 UNK     1       7.027   5.517   9.882  1.00  0.00     0.018 A 
HETATM   25  C19 UNK     1       6.509   5.494  11.176  1.00  0.00     0.020 A 
HETATM   26  C21 UNK     1       6.368   6.682  11.893  1.00  0.00     0.011 A 
HETATM   27 Br1  UNK     1       5.663   6.650  13.646  1.00  0.00    -0.051 Br
HETATM   28  C20 UNK     1       6.745   7.894  11.314  1.00  0.00     0.020 A 
HETATM   29  C17 UNK     1       7.264   7.917  10.020  1.00  0.00     0.018 A 
ENDBRANCH   8  23
TORSDOF 4
ENDMDL
MODEL 2
REMARK VINA RESULT:      -8.5     23.828     26.004
REMARK  4 active torsions:
REMARK  status: ('A' for Active; 'I' for Inactive)
REMARK    1  A    between atoms: C15_22  and  O3_4 
REMARK    2  A    between atoms: C5_12  and  N1_6 
REMARK       I    between atoms: C7_14  and  N2_7 
REMARK    3  A    between atoms: C5_12  and  C6_13 
REMARK    4  A    between atoms: C10_17  and  C7_14 
ROOT
HETATM    1  O2  UNK     1      14.377   9.891  32.478  1.00  0.00    -0.267 OA
HETATM    2  N1  UNK     1      17.509   6.230  33.760  1.00  0.00     0.095 N 
HETATM    3  N2  UNK     1      15.647   8.407  33.763  1.00  0.00    -0.345 N 
HETATM    4  C1  UNK     1      17.738   7.401  34.617  1.00  0.00     0.292 C 
HETATM    5  C2  UNK     1      16.822   6.627  32.521  1.00  0.00     0.292 C 
HETATM    6  C3  UNK     1      16.418   8.093  34.971  1.00  0.00     0.156 C 
HETATM    7  C4  UNK     1      15.482   7.289  32.837  1.00  0.00     0.156 C 
HETATM    8  C7  UNK     1      15.025   9.627  33.490  1.00  0.00     0.253 C 
ENDROOT
BRANCH   2   9
HETATM    9  C5  UNK     1      18.772   5.562  33.455  1.00  0.00     0.312 C 
BRANCH   9  10
HETATM   10  C6  UNK     1      18.565   4.223  32.836  1.00  0.00    -0.011 A 
HETATM   11  C8  UNK     1      18.468   3.030  33.687  1.00  0.00     0.009 A 
HETATM   12  C11 UNK     1      18.275   1.788  33.078  1.00  0.00     0.090 A 
HETATM   13  C12 UNK     1      18.558   3.059  35.085  1.00  0.00     0.051 A 
HETATM   14  O1  UNK     1      18.173   1.672  31.677  1.00  0.00    -0.275 OA
HETATM   15  C14 UNK     1      18.171   0.605  33.812  1.00  0.00     0.041 A 
HETATM   16  C13 UNK     1      18.258   2.781  30.849  1.00  0.00     0.288 A 
HETATM   17  O4  UNK     1      18.170   2.690  29.630  1.00  0.00    -0.260 OA
HETATM   18  C9  UNK     1      18.464   4.083  31.507  1.00  0.00     0.092 A 
HETATM   19  C18 UNK     1      18.264   0.657  35.199  1.00  0.00     0.039 A 
HETATM   20  C15 UNK     1      18.456   1.882  35.834  1.00  0.00     0.069 A 
BRANCH  20  21
HETATM   21  O3  UNK     1      18.547   1.934  37.193  1.00  0.00    -0.356 OA
HETATM   22  C22 UNK     1      17.592   1.179  37.935  1.00  0.00     0.210 C 
ENDBRANCH  20  21
ENDBRANCH   9  10
ENDBRANCH   2   9
BRANCH   8  23
HETATM   23  C10 UNK     1      15.135  10.700  34.487  1.00  0.00     0.032 A 
HETATM   24  C16 UNK     1      16.218  11.579  34.451  1.00  0.00     0.018 A 
HETATM   25  C19 UNK     1      16.323  12.596  35.399  1.00  0.00     0.020 A 
HETATM   26  C21 UNK     1      15.346  12.735  36.385  1.00  0.00     0.011 A 
HETATM   27 Br1  UNK     1      15.490  14.113  37.670  1.00  0.00    -0.051 Br
HETATM   28  C20 UNK     1      14.263  11.856  36.422  1.00  0.00     0.020 A 
HETATM   29  C17 UNK     1      14.158  10.839  35.473  1.00  0.00     0.018 A 
ENDBRANCH   8  23
TORSDOF 4
ENDMDL
MODEL 3
REMARK VINA RESULT:      -8.5     32.767     35.854
REMARK  4 active torsions:
REMARK  status: ('A' for Active; 'I' for Inactive)
REMARK    1  A    between atoms: C15_22  and  O3_4 
REMARK    2  A    between atoms: C5_12  and  N1_6 
REMARK       I    between atoms: C7_14  and  N2_7 
REMARK    3  A    between atoms: C5_12  and  C6_13 
REMARK    4  A    between atoms: C10_17  and  C7_14 
ROOT
HETATM    1  O2  UNK     1      30.547  -9.172  38.368  1.00  0.00    -0.267 OA
HETATM    2  N1  UNK     1      25.608  -8.505  38.299  1.00  0.00     0.095 N 
HETATM    3  N2  UNK     1      28.420  -8.414  37.763  1.00  0.00    -0.345 N 
HETATM    4  C1  UNK     1      26.285  -7.215  38.104  1.00  0.00     0.292 C 
HETATM    5  C2  UNK     1      26.519  -9.474  38.926  1.00  0.00     0.292 C 
HETATM    6  C3  UNK     1      27.533  -7.374  37.232  1.00  0.00     0.156 C 
HETATM    7  C4  UNK     1      27.760  -9.683  38.062  1.00  0.00     0.156 C 
HETATM    8  C7  UNK     1      29.802  -8.300  37.923  1.00  0.00     0.253 C 
ENDROOT
BRANCH   2   9
HETATM    9  C5  UNK     1      24.402  -8.336  39.108  1.00  0.00     0.312 C 
BRANCH   9  10
HETATM   10  C6  UNK     1      23.247  -7.850  38.302  1.00  0.00    -0.011 A 
HETATM   11  C8  UNK     1      22.755  -8.649  37.172  1.00  0.00     0.009 A 
HETATM   12  C11 UNK     1      21.672  -8.168  36.434  1.00  0.00     0.090 A 
HETATM   13  C12 UNK     1      23.311  -9.875  36.783  1.00  0.00     0.051 A 
HETATM   14  O1  UNK     1      21.056  -6.942  36.760  1.00  0.00    -0.275 OA
HETATM   15  C14 UNK     1      21.142  -8.863  35.346  1.00  0.00     0.041 A 
HETATM   16  C13 UNK     1      21.497  -6.169  37.822  1.00  0.00     0.288 A 
HETATM   17  O4  UNK     1      20.967  -5.102  38.114  1.00  0.00    -0.260 OA
HETATM   18  C9  UNK     1      22.642  -6.690  38.589  1.00  0.00     0.092 A 
HETATM   19  C18 UNK     1      21.708 -10.079  34.977  1.00  0.00     0.039 A 
HETATM   20  C15 UNK     1      22.791 -10.584  35.695  1.00  0.00     0.069 A 
BRANCH  20  21
HETATM   21  O3  UNK     1      23.346 -11.775  35.334  1.00  0.00    -0.356 OA
HETATM   22  C22 UNK     1      24.594 -12.117  35.934  1.00  0.00     0.210 C 
ENDBRANCH  20  21
ENDBRANCH   9  10
ENDBRANCH   2   9
BRANCH   8  23
HETATM   23  C10 UNK     1      30.445  -7.040  37.525  1.00  0.00     0.032 A 
HETATM   24  C16 UNK     1      31.027  -6.921  36.263  1.00  0.00     0.018 A 
HETATM   25  C19 UNK     1      31.639  -5.726  35.887  1.00  0.00     0.020 A 
HETATM   26  C21 UNK     1      31.670  -4.649  36.773  1.00  0.00     0.011 A 
HETATM   27 Br1  UNK     1      32.501  -3.030  36.263  1.00  0.00    -0.051 Br
HETATM   28  C20 UNK     1      31.088  -4.768  38.035  1.00  0.00     0.020 A 
HETATM   29  C17 UNK     1      30.476  -5.963  38.411  1.00  0.00     0.018 A 
ENDBRANCH   8  23
TORSDOF 4
ENDMDL
MODEL 4
REMARK VINA RESULT:      -8.4     31.880     35.001
REMARK  4 active torsions:
REMARK  status: ('A' for Active; 'I' for Inactive)
REMARK    1  A    between atoms: C15_22  and  O3_4 
REMARK    2  A    between atoms: C5_12  and  N1_6 
REMARK       I    between atoms: C7_14  and  N2_7 
REMARK    3  A    between atoms: C5_12  and  C6_13 
REMARK    4  A    between atoms: C10_17  and  C7_14 
ROOT
HETATM    1  O2  UNK     1      29.638  -4.649  32.084  1.00  0.00    -0.267 OA
HETATM    2  N1  UNK     1      31.698  -6.873  36.042  1.00  0.00     0.095 N 
HETATM    3  N2  UNK     1      30.840  -6.159  33.404  1.00  0.00    -0.345 N 
HETATM    4  C1  UNK     1      31.115  -7.886  35.151  1.00  0.00     0.292 C 
HETATM    5  C2  UNK     1      31.097  -5.555  35.783  1.00  0.00     0.292 C 
HETATM    6  C3  UNK     1      31.326  -7.515  33.681  1.00  0.00     0.156 C 
HETATM    7  C4  UNK     1      31.321  -5.138  34.331  1.00  0.00     0.156 C 
HETATM    8  C7  UNK     1      30.045  -5.787  32.318  1.00  0.00     0.253 C 
ENDROOT
BRANCH   2   9
HETATM    9  C5  UNK     1      31.517  -7.253  37.442  1.00  0.00     0.312 C 
BRANCH   9  10
HETATM   10  C6  UNK     1      30.368  -6.547  38.073  1.00  0.00    -0.011 A 
HETATM   11  C8  UNK     1      29.034  -7.160  38.059  1.00  0.00     0.009 A 
HETATM   12  C11 UNK     1      27.975  -6.474  38.658  1.00  0.00     0.090 A 
HETATM   13  C12 UNK     1      28.752  -8.403  37.476  1.00  0.00     0.051 A 
HETATM   14  O1  UNK     1      28.174  -5.218  39.267  1.00  0.00    -0.275 OA
HETATM   15  C14 UNK     1      26.677  -6.984  38.689  1.00  0.00     0.041 A 
HETATM   16  C13 UNK     1      29.423  -4.616  39.298  1.00  0.00     0.288 A 
HETATM   17  O4  UNK     1      29.606  -3.525  39.826  1.00  0.00    -0.260 OA
HETATM   18  C9  UNK     1      30.528  -5.353  38.660  1.00  0.00     0.092 A 
HETATM   19  C18 UNK     1      26.419  -8.220  38.104  1.00  0.00     0.039 A 
HETATM   20  C15 UNK     1      27.456  -8.928  37.499  1.00  0.00     0.069 A 
BRANCH  20  21
HETATM   21  O3  UNK     1      27.205 -10.138  36.926  1.00  0.00    -0.356 OA
HETATM   22  C22 UNK     1      25.855 -10.414  36.559  1.00  0.00     0.210 C 
ENDBRANCH  20  21
ENDBRANCH   9  10
ENDBRANCH   2   9
BRANCH   8  23
HETATM   23  C10 UNK     1      29.656  -6.825  31.354  1.00  0.00     0.032 A 
HETATM   24  C16 UNK     1      28.525  -7.607  31.590  1.00  0.00     0.018 A 
HETATM   25  C19 UNK     1      28.157  -8.594  30.676  1.00  0.00     0.020 A 
HETATM   26  C21 UNK     1      28.920  -8.800  29.526  1.00  0.00     0.011 A 
HETATM   27 Br1  UNK     1      28.422 -10.139  28.289  1.00  0.00    -0.051 Br
HETATM   28  C20 UNK     1      30.052  -8.019  29.291  1.00  0.00     0.020 A 
HETATM   29  C17 UNK     1      30.419  -7.031  30.205  1.00  0.00     0.018 A 
ENDBRANCH   8  23
TORSDOF 4
ENDMDL
MODEL 5
REMARK VINA RESULT:      -8.3     32.492     35.469
REMARK  4 active torsions:
REMARK  status: ('A' for Active; 'I' for Inactive)
REMARK    1  A    between atoms: C15_22  and  O3_4 
REMARK    2  A    between atoms: C5_12  and  N1_6 
REMARK       I    between atoms: C7_14  and  N2_7 
REMARK    3  A    between atoms: C5_12  and  C6_13 
REMARK    4  A    between atoms: C10_17  and  C7_14 
ROOT
HETATM    1  O2  UNK     1      31.699  -8.873  31.524  1.00  0.00    -0.267 OA
HETATM    2  N1  UNK     1      30.796  -9.956  36.305  1.00  0.00     0.095 N 
HETATM    3  N2  UNK     1      30.590  -9.496  33.485  1.00  0.00    -0.345 N 
HETATM    4  C1  UNK     1      29.695  -9.147  35.763  1.00  0.00     0.292 C 
HETATM    5  C2  UNK     1      32.006  -9.792  35.485  1.00  0.00     0.292 C 
HETATM    6  C3  UNK     1      29.382  -9.538  34.317  1.00  0.00     0.156 C 
HETATM    7  C4  UNK     1      31.738 -10.209  34.041  1.00  0.00     0.156 C 
HETATM    8  C7  UNK     1      30.687  -8.908  32.222  1.00  0.00     0.253 C 
ENDROOT
BRANCH   2   9
HETATM    9  C5  UNK     1      31.064  -9.594  37.695  1.00  0.00     0.312 C 
BRANCH   9  10
HETATM   10  C6  UNK     1      29.967  -8.780  38.287  1.00  0.00    -0.011 A 
HETATM   11  C8  UNK     1      30.104  -7.321  38.377  1.00  0.00     0.009 A 
HETATM   12  C11 UNK     1      29.059  -6.584  38.938  1.00  0.00     0.090 A 
HETATM   13  C12 UNK     1      31.230  -6.614  37.933  1.00  0.00     0.051 A 
HETATM   14  O1  UNK     1      27.891  -7.218  39.408  1.00  0.00    -0.275 OA
HETATM   15  C14 UNK     1      29.108  -5.194  39.061  1.00  0.00     0.041 A 
HETATM   16  C13 UNK     1      27.733  -8.594  39.334  1.00  0.00     0.288 A 
HETATM   17  O4  UNK     1      26.722  -9.154  39.740  1.00  0.00    -0.260 OA
HETATM   18  C9  UNK     1      28.846  -9.356  38.742  1.00  0.00     0.092 A 
HETATM   19  C18 UNK     1      30.235  -4.512  38.613  1.00  0.00     0.039 A 
HETATM   20  C15 UNK     1      31.294  -5.222  38.049  1.00  0.00     0.069 A 
BRANCH  20  21
HETATM   21  O3  UNK     1      32.398  -4.555  37.611  1.00  0.00    -0.356 OA
HETATM   22  C22 UNK     1      32.269  -3.817  36.397  1.00  0.00     0.210 C 
ENDBRANCH  20  21
ENDBRANCH   9  10
ENDBRANCH   2   9
BRANCH   8  23
HETATM   23  C10 UNK     1      29.486  -8.279  31.655  1.00  0.00     0.032 A 
HETATM   24  C16 UNK     1      29.231  -6.927  31.887  1.00  0.00     0.018 A 
HETATM   25  C19 UNK     1      28.090  -6.332  31.350  1.00  0.00     0.020 A 
HETATM   26  C21 UNK     1      27.203  -7.087  30.583  1.00  0.00     0.011 A 
HETATM   27 Br1  UNK     1      25.656  -6.279  29.858  1.00  0.00    -0.051 Br
HETATM   28  C20 UNK     1      27.458  -8.439  30.352  1.00  0.00     0.020 A 
HETATM   29  C17 UNK     1      28.600  -9.035  30.888  1.00  0.00     0.018 A 
ENDBRANCH   8  23
TORSDOF 4
ENDMDL
MODEL 6
REMARK VINA RESULT:      -8.2     35.331     37.099
REMARK  4 active torsions:
REMARK  status: ('A' for Active; 'I' for Inactive)
REMARK    1  A    between atoms: C15_22  and  O3_4 
REMARK    2  A    between atoms: C5_12  and  N1_6 
REMARK       I    between atoms: C7_14  and  N2_7 
REMARK    3  A    between atoms: C5_12  and  C6_13 
REMARK    4  A    between atoms: C10_17  and  C7_14 
ROOT
HETATM    1  O2  UNK     1      35.781  -5.195  32.975  1.00  0.00    -0.267 OA
HETATM    2  N1  UNK     1      31.633  -5.927  35.640  1.00  0.00     0.095 N 
HETATM    3  N2  UNK     1      34.208  -6.162  34.409  1.00  0.00    -0.345 N 
HETATM    4  C1  UNK     1      32.033  -7.184  34.991  1.00  0.00     0.292 C 
HETATM    5  C2  UNK     1      32.238  -4.777  34.951  1.00  0.00     0.292 C 
HETATM    6  C3  UNK     1      33.556  -7.342  34.988  1.00  0.00     0.156 C 
HETATM    7  C4  UNK     1      33.762  -4.885  34.962  1.00  0.00     0.156 C 
HETATM    8  C7  UNK     1      35.233  -6.184  33.461  1.00  0.00     0.253 C 
ENDROOT
BRANCH   2   9
HETATM    9  C5  UNK     1      30.176  -5.803  35.664  1.00  0.00     0.312 C 
BRANCH   9  10
HETATM   10  C6  UNK     1      29.640  -5.734  37.051  1.00  0.00    -0.011 A 
HETATM   11  C8  UNK     1      28.832  -6.841  37.579  1.00  0.00     0.009 A 
HETATM   12  C11 UNK     1      28.342  -6.749  38.884  1.00  0.00     0.090 A 
HETATM   13  C12 UNK     1      28.519  -7.996  36.850  1.00  0.00     0.051 A 
HETATM   14  O1  UNK     1      28.613  -5.621  39.685  1.00  0.00    -0.275 OA
HETATM   15  C14 UNK     1      27.567  -7.755  39.463  1.00  0.00     0.041 A 
HETATM   16  C13 UNK     1      29.374  -4.562  39.213  1.00  0.00     0.288 A 
HETATM   17  O4  UNK     1      29.615  -3.577  39.903  1.00  0.00    -0.260 OA
HETATM   18  C9  UNK     1      29.881  -4.675  37.835  1.00  0.00     0.092 A 
HETATM   19  C18 UNK     1      27.268  -8.893  38.721  1.00  0.00     0.039 A 
HETATM   20  C15 UNK     1      27.744  -9.013  37.416  1.00  0.00     0.069 A 
BRANCH  20  21
HETATM   21  O3  UNK     1      27.451 -10.127  36.689  1.00  0.00    -0.356 OA
HETATM   22  C22 UNK     1      26.072 -10.457  36.535  1.00  0.00     0.210 C 
ENDBRANCH  20  21
ENDBRANCH   9  10
ENDBRANCH   2   9
BRANCH   8  23
HETATM   23  C10 UNK     1      35.721  -7.489  32.995  1.00  0.00     0.032 A 
HETATM   24  C16 UNK     1      35.155  -8.083  31.867  1.00  0.00     0.018 A 
HETATM   25  C19 UNK     1      35.616  -9.323  31.427  1.00  0.00     0.020 A 
HETATM   26  C21 UNK     1      36.643  -9.971  32.114  1.00  0.00     0.011 A 
HETATM   27 Br1  UNK     1      37.266 -11.652  31.518  1.00  0.00    -0.051 Br
HETATM   28  C20 UNK     1      37.208  -9.377  33.243  1.00  0.00     0.020 A 
HETATM   29  C17 UNK     1      36.747  -8.136  33.683  1.00  0.00     0.018 A 
ENDBRANCH   8  23
TORSDOF 4
ENDMDL
MODEL 7
REMARK VINA RESULT:      -8.2     32.644     35.619
REMARK  4 active torsions:
REMARK  status: ('A' for Active; 'I' for Inactive)
REMARK    1  A    between atoms: C15_22  and  O3_4 
REMARK    2  A    between atoms: C5_12  and  N1_6 
REMARK       I    between atoms: C7_14  and  N2_7 
REMARK    3  A    between atoms: C5_12  and  C6_13 
REMARK    4  A    between atoms: C10_17  and  C7_14 
ROOT
HETATM    1  O2  UNK     1      31.762  -8.996  31.627  1.00  0.00    -0.267 OA
HETATM    2  N1  UNK     1      31.067  -9.745  36.506  1.00  0.00     0.095 N 
HETATM    3  N2  UNK     1      30.736  -9.466  33.674  1.00  0.00    -0.345 N 
HETATM    4  C1  UNK     1      29.956  -8.951  35.963  1.00  0.00     0.292 C 
HETATM    5  C2  UNK     1      32.240  -9.659  35.622  1.00  0.00     0.292 C 
HETATM    6  C3  UNK     1      29.569  -9.429  34.561  1.00  0.00     0.156 C 
HETATM    7  C4  UNK     1      31.897 -10.164  34.222  1.00  0.00     0.156 C 
HETATM    8  C7  UNK     1      30.784  -8.965  32.372  1.00  0.00     0.253 C 
ENDROOT
BRANCH   2   9
HETATM    9  C5  UNK     1      31.407  -9.298  37.855  1.00  0.00     0.312 C 
BRANCH   9  10
HETATM   10  C6  UNK     1      31.914  -7.899  37.874  1.00  0.00    -0.011 A 
HETATM   11  C8  UNK     1      31.025  -6.802  38.279  1.00  0.00     0.009 A 
HETATM   12  C11 UNK     1      31.528  -5.500  38.286  1.00  0.00     0.090 A 
HETATM   13  C12 UNK     1      29.690  -6.983  38.664  1.00  0.00     0.051 A 
HETATM   14  O1  UNK     1      32.861  -5.233  37.913  1.00  0.00    -0.275 OA
HETATM   15  C14 UNK     1      30.752  -4.401  38.658  1.00  0.00     0.041 A 
HETATM   16  C13 UNK     1      33.724  -6.248  37.528  1.00  0.00     0.288 A 
HETATM   17  O4  UNK     1      34.885  -6.025  37.203  1.00  0.00    -0.260 OA
HETATM   18  C9  UNK     1      33.177  -7.615  37.525  1.00  0.00     0.092 A 
HETATM   19  C18 UNK     1      29.428  -4.603  39.036  1.00  0.00     0.039 A 
HETATM   20  C15 UNK     1      28.898  -5.892  39.039  1.00  0.00     0.069 A 
BRANCH  20  21
HETATM   21  O3  UNK     1      27.603  -6.091  39.410  1.00  0.00    -0.356 OA
HETATM   22  C22 UNK     1      26.600  -5.434  38.637  1.00  0.00     0.210 C 
ENDBRANCH  20  21
ENDBRANCH   9  10
ENDBRANCH   2   9
BRANCH   8  23
HETATM   23  C10 UNK     1      29.569  -8.350  31.820  1.00  0.00     0.032 A 
HETATM   24  C16 UNK     1      28.700  -9.106  31.032  1.00  0.00     0.018 A 
HETATM   25  C19 UNK     1      27.548  -8.522  30.507  1.00  0.00     0.020 A 
HETATM   26  C21 UNK     1      27.264  -7.181  30.769  1.00  0.00     0.011 A 
HETATM   27 Br1  UNK     1      25.703  -6.390  30.055  1.00  0.00    -0.051 Br
HETATM   28  C20 UNK     1      28.133  -6.425  31.556  1.00  0.00     0.020 A 
HETATM   29  C17 UNK     1      29.284  -7.010  32.082  1.00  0.00     0.018 A 
ENDBRANCH   8  23
TORSDOF 4
ENDMDL
MODEL 8
REMARK VINA RESULT:      -8.2     23.273     25.766
REMARK  4 active torsions:
REMARK  status: ('A' for Active; 'I' for Inactive)
REMARK    1  A    between atoms: C15_22  and  O3_4 
REMARK    2  A    between atoms: C5_12  and  N1_6 
REMARK       I    between atoms: C7_14  and  N2_7 
REMARK    3  A    between atoms: C5_12  and  C6_13 
REMARK    4  A    between atoms: C10_17  and  C7_14 
ROOT
HETATM    1  O2  UNK     1      20.407   6.775  33.056  1.00  0.00    -0.267 OA
HETATM    2  N1  UNK     1      16.119   9.217  33.765  1.00  0.00     0.095 N 
HETATM    3  N2  UNK     1      18.127   7.224  33.316  1.00  0.00    -0.345 N 
HETATM    4  C1  UNK     1      15.953   8.223  32.695  1.00  0.00     0.292 C 
HETATM    5  C2  UNK     1      17.543   9.536  33.952  1.00  0.00     0.292 C 
HETATM    6  C3  UNK     1      16.721   6.937  33.012  1.00  0.00     0.156 C 
HETATM    7  C4  UNK     1      18.334   8.279  34.306  1.00  0.00     0.156 C 
HETATM    8  C7  UNK     1      19.227   6.535  32.801  1.00  0.00     0.253 C 
ENDROOT
BRANCH   2   9
HETATM    9  C5  UNK     1      15.357  10.427  33.465  1.00  0.00     0.312 C 
BRANCH   9  10
HETATM   10  C6  UNK     1      15.093  11.242  34.683  1.00  0.00    -0.011 A 
HETATM   11  C8  UNK     1      15.609  12.614  34.772  1.00  0.00     0.009 A 
HETATM   12  C11 UNK     1      15.346  13.354  35.927  1.00  0.00     0.090 A 
HETATM   13  C12 UNK     1      16.356  13.234  33.762  1.00  0.00     0.051 A 
HETATM   14  O1  UNK     1      14.602  12.804  36.990  1.00  0.00    -0.275 OA
HETATM   15  C14 UNK     1      15.799  14.664  36.094  1.00  0.00     0.041 A 
HETATM   16  C13 UNK     1      14.100  11.513  36.933  1.00  0.00     0.288 A 
HETATM   17  O4  UNK     1      13.451  11.026  37.852  1.00  0.00    -0.260 OA
HETATM   18  C9  UNK     1      14.388  10.745  35.709  1.00  0.00     0.092 A 
HETATM   19  C18 UNK     1      16.539  15.260  35.078  1.00  0.00     0.039 A 
HETATM   20  C15 UNK     1      16.817  14.546  33.914  1.00  0.00     0.069 A 
BRANCH  20  21
HETATM   21  O3  UNK     1      17.541  15.129  32.918  1.00  0.00    -0.356 OA
HETATM   22  C22 UNK     1      18.711  14.441  32.479  1.00  0.00     0.210 C 
ENDBRANCH  20  21
ENDBRANCH   9  10
ENDBRANCH   2   9
BRANCH   8  23
HETATM   23  C10 UNK     1      18.977   5.419  31.878  1.00  0.00     0.032 A 
HETATM   24  C16 UNK     1      19.246   5.566  30.517  1.00  0.00     0.018 A 
HETATM   25  C19 UNK     1      19.006   4.507  29.641  1.00  0.00     0.020 A 
HETATM   26  C21 UNK     1      18.497   3.302  30.125  1.00  0.00     0.011 A 
HETATM   27 Br1  UNK     1      18.171   1.869  28.937  1.00  0.00    -0.051 Br
HETATM   28  C20 UNK     1      18.227   3.156  31.486  1.00  0.00     0.020 A 
HETATM   29  C17 UNK     1      18.468   4.215  32.362  1.00  0.00     0.018 A 
ENDBRANCH   8  23
TORSDOF 4
ENDMDL
MODEL 9
REMARK VINA RESULT:      -8.1      3.223      8.263
REMARK  4 active torsions:
REMARK  status: ('A' for Active; 'I' for Inactive)
REMARK    1  A    between atoms: C15_22  and  O3_4 
REMARK    2  A    between atoms: C5_12  and  N1_6 
REMARK       I    between atoms: C7_14  and  N2_7 
REMARK    3  A    between atoms: C5_12  and  C6_13 
REMARK    4  A    between atoms: C10_17  and  C7_14 
ROOT
HETATM    1  O2  UNK     1      14.572   5.174  10.618  1.00  0.00    -0.267 OA
HETATM    2  N1  UNK     1      10.855   6.020   7.406  1.00  0.00     0.095 N 
HETATM    3  N2  UNK     1      13.373   5.957   8.770  1.00  0.00    -0.345 N 
HETATM    4  C1  UNK     1      11.609   7.261   7.630  1.00  0.00     0.292 C 
HETATM    5  C2  UNK     1      11.083   5.074   8.509  1.00  0.00     0.292 C 
HETATM    6  C3  UNK     1      13.109   6.981   7.753  1.00  0.00     0.156 C 
HETATM    7  C4  UNK     1      12.568   4.744   8.638  1.00  0.00     0.156 C 
HETATM    8  C7  UNK     1      14.350   6.032   9.765  1.00  0.00     0.253 C 
ENDROOT
BRANCH   2   9
HETATM    9  C5  UNK     1       9.429   6.304   7.259  1.00  0.00     0.312 C 
BRANCH   9  10
HETATM   10  C6  UNK     1       8.847   6.911   8.488  1.00  0.00    -0.011 A 
HETATM   11  C8  UNK     1       7.893   6.146   9.302  1.00  0.00     0.009 A 
HETATM   12  C11 UNK     1       7.363   6.741  10.448  1.00  0.00     0.090 A 
HETATM   13  C12 UNK     1       7.478   4.843   8.997  1.00  0.00     0.051 A 
HETATM   14  O1  UNK     1       7.731   8.049  10.825  1.00  0.00    -0.275 OA
HETATM   15  C14 UNK     1       6.452   6.085  11.277  1.00  0.00     0.041 A 
HETATM   16  C13 UNK     1       8.630   8.794  10.077  1.00  0.00     0.288 A 
HETATM   17  O4  UNK     1       8.956   9.931  10.397  1.00  0.00    -0.260 OA
HETATM   18  C9  UNK     1       9.178   8.152   8.870  1.00  0.00     0.092 A 
HETATM   19  C18 UNK     1       6.053   4.791  10.956  1.00  0.00     0.039 A 
HETATM   20  C15 UNK     1       6.565   4.171   9.818  1.00  0.00     0.069 A 
BRANCH  20  21
HETATM   21  O3  UNK     1       6.175   2.905   9.503  1.00  0.00    -0.356 OA
HETATM   22  C22 UNK     1       5.516   2.157  10.524  1.00  0.00     0.210 C 
ENDBRANCH  20  21
ENDBRANCH   9  10
ENDBRANCH   2   9
BRANCH   8  23
HETATM   23  C10 UNK     1      15.202   7.228   9.812  1.00  0.00     0.032 A 
HETATM   24  C16 UNK     1      16.588   7.094   9.898  1.00  0.00     0.018 A 
HETATM   25  C19 UNK     1      17.397   8.229   9.944  1.00  0.00     0.020 A 
HETATM   26  C21 UNK     1      16.821   9.498   9.906  1.00  0.00     0.011 A 
HETATM   27 Br1  UNK     1      17.917  11.036   9.970  1.00  0.00    -0.051 Br
HETATM   28  C20 UNK     1      15.435   9.633   9.821  1.00  0.00     0.020 A 
HETATM   29  C17 UNK     1      14.626   8.497   9.773  1.00  0.00     0.018 A 
ENDBRANCH   8  23
TORSDOF 4
ENDMDL
MODEL 10
REMARK VINA RESULT:      -8.1     31.232     34.457
REMARK  4 active torsions:
REMARK  status: ('A' for Active; 'I' for Inactive)
REMARK    1  A    between atoms: C15_22  and  O3_4 
REMARK    2  A    between atoms: C5_12  and  N1_6 
REMARK       I    between atoms: C7_14  and  N2_7 
REMARK    3  A    between atoms: C5_12  and  C6_13 
REMARK    4  A    between atoms: C10_17  and  C7_14 
ROOT
HETATM    1  O2  UNK     1      31.843  -6.028  37.807  1.00  0.00    -0.267 OA
HETATM    2  N1  UNK     1      30.584  -5.988  32.985  1.00  0.00     0.095 N 
HETATM    3  N2  UNK     1      30.570  -6.076  35.848  1.00  0.00    -0.345 N 
HETATM    4  C1  UNK     1      29.805  -7.014  33.692  1.00  0.00     0.292 C 
HETATM    5  C2  UNK     1      31.793  -5.643  33.748  1.00  0.00     0.292 C 
HETATM    6  C3  UNK     1      29.401  -6.536  35.089  1.00  0.00     0.156 C 
HETATM    7  C4  UNK     1      31.424  -5.127  35.137  1.00  0.00     0.156 C 
HETATM    8  C7  UNK     1      30.864  -6.414  37.170  1.00  0.00     0.253 C 
ENDROOT
BRANCH   2   9
HETATM    9  C5  UNK     1      30.937  -6.445  31.642  1.00  0.00     0.312 C 
BRANCH   9  10
HETATM   10  C6  UNK     1      29.796  -7.114  30.957  1.00  0.00    -0.011 A 
HETATM   11  C8  UNK     1      30.015  -8.369  30.226  1.00  0.00     0.009 A 
HETATM   12  C11 UNK     1      28.927  -8.973  29.593  1.00  0.00     0.090 A 
HETATM   13  C12 UNK     1      31.260  -9.004  30.122  1.00  0.00     0.051 A 
HETATM   14  O1  UNK     1      27.641  -8.399  29.650  1.00  0.00    -0.275 OA
HETATM   15  C14 UNK     1      29.048 -10.166  28.878  1.00  0.00     0.041 A 
HETATM   16  C13 UNK     1      27.404  -7.217  30.335  1.00  0.00     0.288 A 
HETATM   17  O4  UNK     1      26.289  -6.710  30.391  1.00  0.00    -0.260 OA
HETATM   18  C9  UNK     1      28.563  -6.591  30.995  1.00  0.00     0.092 A 
HETATM   19  C18 UNK     1      30.293 -10.780  28.787  1.00  0.00     0.039 A 
HETATM   20  C15 UNK     1      31.397 -10.199  29.408  1.00  0.00     0.069 A 
BRANCH  20  21
HETATM   21  O3  UNK     1      32.617 -10.800  29.320  1.00  0.00    -0.356 OA
HETATM   22  C22 UNK     1      32.811 -11.988  30.084  1.00  0.00     0.210 C 
ENDBRANCH  20  21
ENDBRANCH   9  10
ENDBRANCH   2   9
BRANCH   8  23
HETATM   23  C10 UNK     1      29.933  -7.298  37.884  1.00  0.00     0.032 A 
HETATM   24  C16 UNK     1      28.892  -6.755  38.637  1.00  0.00     0.018 A 
HETATM   25  C19 UNK     1      28.010  -7.595  39.316  1.00  0.00     0.020 A 
HETATM   26  C21 UNK     1      28.169  -8.979  39.244  1.00  0.00     0.011 A 
HETATM   27 Br1  UNK     1      26.975 -10.117  40.166  1.00  0.00    -0.051 Br
HETATM   28  C20 UNK     1      29.211  -9.523  38.492  1.00  0.00     0.020 A 
HETATM   29  C17 UNK     1      30.092  -8.682  37.812  1.00  0.00     0.018 A 
ENDBRANCH   8  23
TORSDOF 4
ENDMDL
