MODEL 1
REMARK VINA RESULT:     -10.0      0.000      0.000
REMARK  6 active torsions:
REMARK  status: ('A' for Active; 'I' for Inactive)
REMARK    1  A    between atoms: C5_12  and  N1_5 
REMARK    2  A    between atoms: C6_13  and  N2_6 
REMARK    3  A    between atoms: C18_25  and  N3_7 
REMARK       I    between atoms: C9_16  and  N3_7 
REMARK    4  A    between atoms: C5_12  and  C7_14 
REMARK    5  A    between atoms: C6_13  and  C9_16 
REMARK    6  A    between atoms: C13_20  and  C17_24 
ROOT
HETATM    1  N1  UNK     1      19.268  -3.661  36.447  1.00  0.00     0.096 N 
HETATM    2  N2  UNK     1      18.949  -0.895  35.669  1.00  0.00     0.100 N 
HETATM    3  C1  UNK     1      18.396  -2.752  37.202  1.00  0.00     0.303 C 
HETATM    4  C2  UNK     1      20.364  -2.916  35.817  1.00  0.00     0.303 C 
HETATM    5  C3  UNK     1      17.852  -1.641  36.298  1.00  0.00     0.303 C 
HETATM    6  C4  UNK     1      19.819  -1.805  34.913  1.00  0.00     0.303 C 
ENDROOT
BRANCH   1   7
HETATM    7  C5  UNK     1      19.789  -4.718  37.312  1.00  0.00     0.312 C 
BRANCH   7   8
HETATM    8  C7  UNK     1      19.264  -6.061  36.938  1.00  0.00    -0.011 A 
HETATM    9  C10 UNK     1      18.272  -6.191  36.045  1.00  0.00     0.092 A 
HETATM   10  C14 UNK     1      17.720  -7.496  35.643  1.00  0.00     0.288 A 
HETATM   11  O1  UNK     1      18.277  -8.618  36.237  1.00  0.00    -0.275 OA
HETATM   12  O3  UNK     1      16.814  -7.577  34.822  1.00  0.00    -0.260 OA
HETATM   13  C11 UNK     1      19.321  -8.511  37.178  1.00  0.00     0.090 A 
HETATM   14  C8  UNK     1      19.834  -7.268  37.550  1.00  0.00     0.007 A 
HETATM   15  C15 UNK     1      19.805  -9.708  37.712  1.00  0.00     0.039 A 
HETATM   16  C12 UNK     1      20.871  -7.248  38.493  1.00  0.00     0.022 A 
HETATM   17  C13 UNK     1      21.366  -8.438  39.036  1.00  0.00    -0.058 A 
HETATM   18  C16 UNK     1      20.835  -9.666  38.647  1.00  0.00     0.010 A 
BRANCH  17  19
HETATM   19  C17 UNK     1      22.471  -8.392  40.040  1.00  0.00     0.034 C 
HETATM   20  C19 UNK     1      23.786  -7.914  39.431  1.00  0.00     0.010 C 
ENDBRANCH  17  19
ENDBRANCH   7   8
ENDBRANCH   1   7
BRANCH   2  21
HETATM   21  C6  UNK     1      18.428   0.163  34.805  1.00  0.00     0.375 C 
BRANCH  21  22
HETATM   22  C9  UNK     1      18.288  -0.364  33.388  1.00  0.00     0.250 C 
HETATM   23  O2  UNK     1      17.401  -1.144  33.057  1.00  0.00    -0.271 OA
HETATM   24  N3  UNK     1      19.286   0.170  32.575  1.00  0.00    -0.323 N 
HETATM   25  H16 UNK     1      19.948   0.816  32.997  1.00  0.00     0.169 HD
BRANCH  24  26
HETATM   26  C18 UNK     1      19.498  -0.072  31.197  1.00  0.00     0.073 A 
HETATM   27  C20 UNK     1      20.164  -1.226  30.782  1.00  0.00     0.143 A 
HETATM   28  F1  UNK     1      20.608  -2.115  31.682  1.00  0.00    -0.204 F 
HETATM   29  C22 UNK     1      20.370  -1.463  29.423  1.00  0.00     0.044 A 
HETATM   30  C24 UNK     1      19.909  -0.546  28.478  1.00  0.00     0.003 A 
HETATM   31  C23 UNK     1      19.244   0.609  28.892  1.00  0.00     0.002 A 
HETATM   32  C21 UNK     1      19.038   0.846  30.251  1.00  0.00     0.033 A 
ENDBRANCH  24  26
ENDBRANCH  21  22
ENDBRANCH   2  21
TORSDOF 6
ENDMDL
MODEL 2
REMARK VINA RESULT:     -10.0      6.899     12.747
REMARK  6 active torsions:
REMARK  status: ('A' for Active; 'I' for Inactive)
REMARK    1  A    between atoms: C5_12  and  N1_5 
REMARK    2  A    between atoms: C6_13  and  N2_6 
REMARK    3  A    between atoms: C18_25  and  N3_7 
REMARK       I    between atoms: C9_16  and  N3_7 
REMARK    4  A    between atoms: C5_12  and  C7_14 
REMARK    5  A    between atoms: C6_13  and  C9_16 
REMARK    6  A    between atoms: C13_20  and  C17_24 
ROOT
HETATM    1  N1  UNK     1      18.485   5.685  32.873  1.00  0.00     0.096 N 
HETATM    2  N2  UNK     1      18.927   4.026  30.548  1.00  0.00     0.100 N 
HETATM    3  C1  UNK     1      19.493   6.038  31.866  1.00  0.00     0.303 C 
HETATM    4  C2  UNK     1      18.303   4.230  32.930  1.00  0.00     0.303 C 
HETATM    5  C3  UNK     1      19.108   5.481  30.490  1.00  0.00     0.303 C 
HETATM    6  C4  UNK     1      17.918   3.674  31.554  1.00  0.00     0.303 C 
ENDROOT
BRANCH   1   7
HETATM    7  C5  UNK     1      18.855   6.213  34.184  1.00  0.00     0.312 C 
BRANCH   7   8
HETATM    8  C7  UNK     1      18.843   7.702  34.215  1.00  0.00    -0.011 A 
HETATM    9  C10 UNK     1      19.974   8.399  34.397  1.00  0.00     0.092 A 
HETATM   10  C14 UNK     1      20.012   9.871  34.435  1.00  0.00     0.288 A 
HETATM   11  O1  UNK     1      18.804  10.530  34.270  1.00  0.00    -0.275 OA
HETATM   12  O3  UNK     1      21.066  10.475  34.602  1.00  0.00    -0.260 OA
HETATM   13  C11 UNK     1      17.600   9.824  34.076  1.00  0.00     0.090 A 
HETATM   14  C8  UNK     1      17.579   8.429  34.044  1.00  0.00     0.007 A 
HETATM   15  C15 UNK     1      16.444  10.592  33.922  1.00  0.00     0.039 A 
HETATM   16  C12 UNK     1      16.340   7.803  33.847  1.00  0.00     0.022 A 
HETATM   17  C13 UNK     1      15.173   8.558  33.691  1.00  0.00    -0.058 A 
HETATM   18  C16 UNK     1      15.225   9.950  33.728  1.00  0.00     0.010 A 
BRANCH  17  19
HETATM   19  C17 UNK     1      13.865   7.869  33.484  1.00  0.00     0.034 C 
HETATM   20  C19 UNK     1      13.786   7.174  32.127  1.00  0.00     0.010 C 
ENDBRANCH  17  19
ENDBRANCH   7   8
ENDBRANCH   1   7
BRANCH   2  21
HETATM   21  C6  UNK     1      18.559   3.497  29.236  1.00  0.00     0.375 C 
BRANCH  21  22
HETATM   22  C9  UNK     1      18.466   1.983  29.309  1.00  0.00     0.250 C 
HETATM   23  O2  UNK     1      17.506   1.357  28.870  1.00  0.00    -0.271 OA
HETATM   24  N3  UNK     1      19.602   1.459  29.922  1.00  0.00    -0.323 N 
HETATM   25  H16 UNK     1      20.322   2.111  30.225  1.00  0.00     0.169 HD
BRANCH  24  26
HETATM   26  C18 UNK     1      19.896   0.099  30.177  1.00  0.00     0.073 A 
HETATM   27  C20 UNK     1      19.581  -0.466  31.413  1.00  0.00     0.143 A 
HETATM   28  F1  UNK     1      18.999   0.272  32.370  1.00  0.00    -0.204 F 
HETATM   29  C22 UNK     1      19.871  -1.808  31.661  1.00  0.00     0.044 A 
HETATM   30  C24 UNK     1      20.474  -2.585  30.673  1.00  0.00     0.003 A 
HETATM   31  C23 UNK     1      20.790  -2.021  29.436  1.00  0.00     0.002 A 
HETATM   32  C21 UNK     1      20.501  -0.679  29.188  1.00  0.00     0.033 A 
ENDBRANCH  24  26
ENDBRANCH  21  22
ENDBRANCH   2  21
TORSDOF 6
ENDMDL
MODEL 3
REMARK VINA RESULT:      -9.7      2.331      2.845
REMARK  6 active torsions:
REMARK  status: ('A' for Active; 'I' for Inactive)
REMARK    1  A    between atoms: C5_12  and  N1_5 
REMARK    2  A    between atoms: C6_13  and  N2_6 
REMARK    3  A    between atoms: C18_25  and  N3_7 
REMARK       I    between atoms: C9_16  and  N3_7 
REMARK    4  A    between atoms: C5_12  and  C7_14 
REMARK    5  A    between atoms: C6_13  and  C9_16 
REMARK    6  A    between atoms: C13_20  and  C17_24 
ROOT
HETATM    1  N1  UNK     1      19.233  -3.125  36.152  1.00  0.00     0.096 N 
HETATM    2  N2  UNK     1      18.318  -0.491  35.387  1.00  0.00     0.100 N 
HETATM    3  C1  UNK     1      18.506  -2.266  37.096  1.00  0.00     0.303 C 
HETATM    4  C2  UNK     1      19.980  -2.310  35.187  1.00  0.00     0.303 C 
HETATM    5  C3  UNK     1      17.570  -1.307  36.351  1.00  0.00     0.303 C 
HETATM    6  C4  UNK     1      19.043  -1.351  34.443  1.00  0.00     0.303 C 
ENDROOT
BRANCH   1   7
HETATM    7  C5  UNK     1      20.127  -4.036  36.863  1.00  0.00     0.312 C 
BRANCH   7   8
HETATM    8  C7  UNK     1      19.712  -5.459  36.717  1.00  0.00    -0.011 A 
HETATM    9  C10 UNK     1      18.590  -5.789  36.062  1.00  0.00     0.092 A 
HETATM   10  C14 UNK     1      18.139  -7.180  35.891  1.00  0.00     0.288 A 
HETATM   11  O1  UNK     1      18.938  -8.167  36.446  1.00  0.00    -0.275 OA
HETATM   12  O3  UNK     1      17.107  -7.444  35.284  1.00  0.00    -0.260 OA
HETATM   13  C11 UNK     1      20.124  -7.850  37.139  1.00  0.00     0.090 A 
HETATM   14  C8  UNK     1      20.538  -6.527  37.294  1.00  0.00     0.007 A 
HETATM   15  C15 UNK     1      20.850  -8.925  37.657  1.00  0.00     0.039 A 
HETATM   16  C12 UNK     1      21.729  -6.297  37.998  1.00  0.00     0.022 A 
HETATM   17  C13 UNK     1      22.467  -7.363  38.522  1.00  0.00    -0.058 A 
HETATM   18  C16 UNK     1      22.029  -8.675  38.352  1.00  0.00     0.010 A 
BRANCH  17  19
HETATM   19  C17 UNK     1      23.731  -7.095  39.269  1.00  0.00     0.034 C 
HETATM   20  C19 UNK     1      24.891  -7.954  38.771  1.00  0.00     0.010 C 
ENDBRANCH  17  19
ENDBRANCH   7   8
ENDBRANCH   1   7
BRANCH   2  21
HETATM   21  C6  UNK     1      17.424   0.422  34.677  1.00  0.00     0.375 C 
BRANCH  21  22
HETATM   22  C9  UNK     1      18.191   1.669  34.274  1.00  0.00     0.250 C 
HETATM   23  O2  UNK     1      19.097   2.137  34.955  1.00  0.00    -0.271 OA
HETATM   24  N3  UNK     1      17.715   2.156  33.058  1.00  0.00    -0.323 N 
HETATM   25  H16 UNK     1      16.959   1.647  32.606  1.00  0.00     0.169 HD
BRANCH  24  26
HETATM   26  C18 UNK     1      18.165   3.294  32.348  1.00  0.00     0.073 A 
HETATM   27  C20 UNK     1      18.566   3.176  31.018  1.00  0.00     0.143 A 
HETATM   28  F1  UNK     1      18.531   1.987  30.399  1.00  0.00    -0.204 F 
HETATM   29  C22 UNK     1      19.008   4.301  30.320  1.00  0.00     0.044 A 
HETATM   30  C24 UNK     1      19.047   5.543  30.952  1.00  0.00     0.003 A 
HETATM   31  C23 UNK     1      18.645   5.661  32.283  1.00  0.00     0.002 A 
HETATM   32  C21 UNK     1      18.204   4.537  32.981  1.00  0.00     0.033 A 
ENDBRANCH  24  26
ENDBRANCH  21  22
ENDBRANCH   2  21
TORSDOF 6
ENDMDL
MODEL 4
REMARK VINA RESULT:      -9.6      7.849     13.784
REMARK  6 active torsions:
REMARK  status: ('A' for Active; 'I' for Inactive)
REMARK    1  A    between atoms: C5_12  and  N1_5 
REMARK    2  A    between atoms: C6_13  and  N2_6 
REMARK    3  A    between atoms: C18_25  and  N3_7 
REMARK       I    between atoms: C9_16  and  N3_7 
REMARK    4  A    between atoms: C5_12  and  C7_14 
REMARK    5  A    between atoms: C6_13  and  C9_16 
REMARK    6  A    between atoms: C13_20  and  C17_24 
ROOT
HETATM    1  N1  UNK     1      17.971   6.476  32.800  1.00  0.00     0.096 N 
HETATM    2  N2  UNK     1      18.217   4.609  30.607  1.00  0.00     0.100 N 
HETATM    3  C1  UNK     1      17.645   5.054  32.969  1.00  0.00     0.303 C 
HETATM    4  C2  UNK     1      17.738   6.895  31.413  1.00  0.00     0.303 C 
HETATM    5  C3  UNK     1      18.452   4.190  31.993  1.00  0.00     0.303 C 
HETATM    6  C4  UNK     1      18.545   6.030  30.439  1.00  0.00     0.303 C 
ENDROOT
BRANCH   1   7
HETATM    7  C5  UNK     1      17.198   7.299  33.728  1.00  0.00     0.312 C 
BRANCH   7   8
HETATM    8  C7  UNK     1      17.835   8.625  33.968  1.00  0.00    -0.011 A 
HETATM    9  C10 UNK     1      19.154   8.729  34.185  1.00  0.00     0.092 A 
HETATM   10  C14 UNK     1      19.829  10.015  34.426  1.00  0.00     0.288 A 
HETATM   11  O1  UNK     1      19.030  11.148  34.421  1.00  0.00    -0.275 OA
HETATM   12  O3  UNK     1      21.038  10.073  34.620  1.00  0.00    -0.260 OA
HETATM   13  C11 UNK     1      17.641  11.070  34.194  1.00  0.00     0.090 A 
HETATM   14  C8  UNK     1      17.016   9.843  33.968  1.00  0.00     0.007 A 
HETATM   15  C15 UNK     1      16.937  12.275  34.211  1.00  0.00     0.039 A 
HETATM   16  C12 UNK     1      15.630   9.850  33.752  1.00  0.00     0.022 A 
HETATM   17  C13 UNK     1      14.911  11.050  33.766  1.00  0.00    -0.058 A 
HETATM   18  C16 UNK     1      15.562  12.260  33.995  1.00  0.00     0.010 A 
BRANCH  17  19
HETATM   19  C17 UNK     1      13.436  11.033  33.535  1.00  0.00     0.034 C 
HETATM   20  C19 UNK     1      12.732  12.211  34.204  1.00  0.00     0.010 C 
ENDBRANCH  17  19
ENDBRANCH   7   8
ENDBRANCH   1   7
BRANCH   2  21
HETATM   21  C6  UNK     1      18.988   3.784  29.678  1.00  0.00     0.375 C 
BRANCH  21  22
HETATM   22  C9  UNK     1      18.628   2.323  29.881  1.00  0.00     0.250 C 
HETATM   23  O2  UNK     1      17.500   1.885  29.677  1.00  0.00    -0.271 OA
HETATM   24  N3  UNK     1      19.743   1.607  30.311  1.00  0.00    -0.323 N 
HETATM   25  H16 UNK     1      20.618   2.113  30.425  1.00  0.00     0.169 HD
BRANCH  24  26
HETATM   26  C18 UNK     1      19.821   0.226  30.608  1.00  0.00     0.073 A 
HETATM   27  C20 UNK     1      20.404  -0.656  29.698  1.00  0.00     0.143 A 
HETATM   28  F1  UNK     1      20.896  -0.205  28.535  1.00  0.00    -0.204 F 
HETATM   29  C22 UNK     1      20.480  -2.017  29.996  1.00  0.00     0.044 A 
HETATM   30  C24 UNK     1      19.974  -2.496  31.204  1.00  0.00     0.003 A 
HETATM   31  C23 UNK     1      19.390  -1.614  32.114  1.00  0.00     0.002 A 
HETATM   32  C21 UNK     1      19.314  -0.254  31.817  1.00  0.00     0.033 A 
ENDBRANCH  24  26
ENDBRANCH  21  22
ENDBRANCH   2  21
TORSDOF 6
ENDMDL
MODEL 5
REMARK VINA RESULT:      -9.6      7.490     13.325
REMARK  6 active torsions:
REMARK  status: ('A' for Active; 'I' for Inactive)
REMARK    1  A    between atoms: C5_12  and  N1_5 
REMARK    2  A    between atoms: C6_13  and  N2_6 
REMARK    3  A    between atoms: C18_25  and  N3_7 
REMARK       I    between atoms: C9_16  and  N3_7 
REMARK    4  A    between atoms: C5_12  and  C7_14 
REMARK    5  A    between atoms: C6_13  and  C9_16 
REMARK    6  A    between atoms: C13_20  and  C17_24 
ROOT
HETATM    1  N1  UNK     1      18.447   6.548  32.990  1.00  0.00     0.096 N 
HETATM    2  N2  UNK     1      18.257   4.787  30.706  1.00  0.00     0.100 N 
HETATM    3  C1  UNK     1      18.100   5.129  33.148  1.00  0.00     0.303 C 
HETATM    4  C2  UNK     1      18.002   7.043  31.682  1.00  0.00     0.303 C 
HETATM    5  C3  UNK     1      18.702   4.292  32.013  1.00  0.00     0.303 C 
HETATM    6  C4  UNK     1      18.605   6.204  30.549  1.00  0.00     0.303 C 
ENDROOT
BRANCH   1   7
HETATM    7  C5  UNK     1      17.869   7.345  34.070  1.00  0.00     0.312 C 
BRANCH   7   8
HETATM    8  C7  UNK     1      16.541   7.911  33.702  1.00  0.00    -0.011 A 
HETATM    9  C10 UNK     1      15.535   7.116  33.309  1.00  0.00     0.092 A 
HETATM   10  C14 UNK     1      14.206   7.628  32.936  1.00  0.00     0.288 A 
HETATM   11  O1  UNK     1      14.024   9.000  33.007  1.00  0.00    -0.275 OA
HETATM   12  O3  UNK     1      13.309   6.870  32.582  1.00  0.00    -0.260 OA
HETATM   13  C11 UNK     1      15.062   9.860  33.418  1.00  0.00     0.090 A 
HETATM   14  C8  UNK     1      16.317   9.361  33.767  1.00  0.00     0.007 A 
HETATM   15  C15 UNK     1      14.765  11.224  33.452  1.00  0.00     0.039 A 
HETATM   16  C12 UNK     1      17.296  10.283  34.164  1.00  0.00     0.022 A 
HETATM   17  C13 UNK     1      17.014  11.653  34.203  1.00  0.00    -0.058 A 
HETATM   18  C16 UNK     1      15.751  12.123  33.848  1.00  0.00     0.010 A 
BRANCH  17  19
HETATM   19  C17 UNK     1      18.072  12.616  34.628  1.00  0.00     0.034 C 
HETATM   20  C19 UNK     1      18.479  13.562  33.501  1.00  0.00     0.010 C 
ENDBRANCH  17  19
ENDBRANCH   7   8
ENDBRANCH   1   7
BRANCH   2  21
HETATM   21  C6  UNK     1      18.833   3.988  29.625  1.00  0.00     0.375 C 
BRANCH  21  22
HETATM   22  C9  UNK     1      18.516   2.521  29.857  1.00  0.00     0.250 C 
HETATM   23  O2  UNK     1      17.372   2.079  29.830  1.00  0.00    -0.271 OA
HETATM   24  N3  UNK     1      19.689   1.805  30.088  1.00  0.00    -0.323 N 
HETATM   25  H16 UNK     1      20.569   2.315  30.069  1.00  0.00     0.169 HD
BRANCH  24  26
HETATM   26  C18 UNK     1      19.819   0.419  30.344  1.00  0.00     0.073 A 
HETATM   27  C20 UNK     1      19.404  -0.109  31.567  1.00  0.00     0.143 A 
HETATM   28  F1  UNK     1      18.879   0.689  32.509  1.00  0.00    -0.204 F 
HETATM   29  C22 UNK     1      19.531  -1.475  31.817  1.00  0.00     0.044 A 
HETATM   30  C24 UNK     1      20.073  -2.314  30.843  1.00  0.00     0.003 A 
HETATM   31  C23 UNK     1      20.489  -1.786  29.620  1.00  0.00     0.002 A 
HETATM   32  C21 UNK     1      20.361  -0.420  29.370  1.00  0.00     0.033 A 
ENDBRANCH  24  26
ENDBRANCH  21  22
ENDBRANCH   2  21
TORSDOF 6
ENDMDL
MODEL 6
REMARK VINA RESULT:      -9.6      6.383     10.149
REMARK  6 active torsions:
REMARK  status: ('A' for Active; 'I' for Inactive)
REMARK    1  A    between atoms: C5_12  and  N1_5 
REMARK    2  A    between atoms: C6_13  and  N2_6 
REMARK    3  A    between atoms: C18_25  and  N3_7 
REMARK       I    between atoms: C9_16  and  N3_7 
REMARK    4  A    between atoms: C5_12  and  C7_14 
REMARK    5  A    between atoms: C6_13  and  C9_16 
REMARK    6  A    between atoms: C13_20  and  C17_24 
ROOT
HETATM    1  N1  UNK     1      18.897   3.629  31.352  1.00  0.00     0.096 N 
HETATM    2  N2  UNK     1      19.233   6.296  32.415  1.00  0.00     0.100 N 
HETATM    3  C1  UNK     1      19.316   4.744  30.494  1.00  0.00     0.303 C 
HETATM    4  C2  UNK     1      18.069   4.116  32.461  1.00  0.00     0.303 C 
HETATM    5  C3  UNK     1      20.063   5.807  31.307  1.00  0.00     0.303 C 
HETATM    6  C4  UNK     1      18.817   5.180  33.273  1.00  0.00     0.303 C 
ENDROOT
BRANCH   1   7
HETATM    7  C5  UNK     1      18.182   2.618  30.576  1.00  0.00     0.312 C 
BRANCH   7   8
HETATM    8  C7  UNK     1      18.919   1.324  30.523  1.00  0.00    -0.011 A 
HETATM    9  C10 UNK     1      19.581   0.950  29.418  1.00  0.00     0.092 A 
HETATM   10  C14 UNK     1      20.323  -0.318  29.317  1.00  0.00     0.288 A 
HETATM   11  O1  UNK     1      20.315  -1.135  30.437  1.00  0.00    -0.275 OA
HETATM   12  O3  UNK     1      20.918  -0.626  28.291  1.00  0.00    -0.260 OA
HETATM   13  C11 UNK     1      19.630  -0.767  31.612  1.00  0.00     0.090 A 
HETATM   14  C8  UNK     1      18.929   0.437  31.692  1.00  0.00     0.007 A 
HETATM   15  C15 UNK     1      19.690  -1.668  32.677  1.00  0.00     0.039 A 
HETATM   16  C12 UNK     1      18.273   0.727  32.897  1.00  0.00     0.022 A 
HETATM   17  C13 UNK     1      18.324  -0.165  33.973  1.00  0.00    -0.058 A 
HETATM   18  C16 UNK     1      19.031  -1.361  33.864  1.00  0.00     0.010 A 
BRANCH  17  19
HETATM   19  C17 UNK     1      17.616   0.165  35.245  1.00  0.00     0.034 C 
HETATM   20  C19 UNK     1      16.101   0.224  35.067  1.00  0.00     0.010 C 
ENDBRANCH  17  19
ENDBRANCH   7   8
ENDBRANCH   1   7
BRANCH   2  21
HETATM   21  C6  UNK     1      19.947   7.308  33.191  1.00  0.00     0.375 C 
BRANCH  21  22
HETATM   22  C9  UNK     1      18.977   8.004  34.129  1.00  0.00     0.250 C 
HETATM   23  O2  UNK     1      19.104   7.978  35.349  1.00  0.00    -0.271 OA
HETATM   24  N3  UNK     1      17.977   8.645  33.401  1.00  0.00    -0.323 N 
HETATM   25  H16 UNK     1      18.014   8.582  32.386  1.00  0.00     0.169 HD
BRANCH  24  26
HETATM   26  C18 UNK     1      16.891   9.399  33.904  1.00  0.00     0.073 A 
HETATM   27  C20 UNK     1      15.647   8.796  34.093  1.00  0.00     0.143 A 
HETATM   28  F1  UNK     1      15.468   7.500  33.800  1.00  0.00    -0.204 F 
HETATM   29  C22 UNK     1      14.578   9.542  34.591  1.00  0.00     0.044 A 
HETATM   30  C24 UNK     1      14.754  10.891  34.901  1.00  0.00     0.003 A 
HETATM   31  C23 UNK     1      15.998  11.494  34.712  1.00  0.00     0.002 A 
HETATM   32  C21 UNK     1      17.066  10.748  34.213  1.00  0.00     0.033 A 
ENDBRANCH  24  26
ENDBRANCH  21  22
ENDBRANCH   2  21
TORSDOF 6
ENDMDL
MODEL 7
REMARK VINA RESULT:      -9.3      3.192      9.246
REMARK  6 active torsions:
REMARK  status: ('A' for Active; 'I' for Inactive)
REMARK    1  A    between atoms: C5_12  and  N1_5 
REMARK    2  A    between atoms: C6_13  and  N2_6 
REMARK    3  A    between atoms: C18_25  and  N3_7 
REMARK       I    between atoms: C9_16  and  N3_7 
REMARK    4  A    between atoms: C5_12  and  C7_14 
REMARK    5  A    between atoms: C6_13  and  C9_16 
REMARK    6  A    between atoms: C13_20  and  C17_24 
ROOT
HETATM    1  N1  UNK     1      19.938  -4.674  36.787  1.00  0.00     0.096 N 
HETATM    2  N2  UNK     1      20.045  -7.561  36.676  1.00  0.00     0.100 N 
HETATM    3  C1  UNK     1      19.945  -5.389  35.504  1.00  0.00     0.303 C 
HETATM    4  C2  UNK     1      20.650  -5.450  37.810  1.00  0.00     0.303 C 
HETATM    5  C3  UNK     1      19.332  -6.786  35.654  1.00  0.00     0.303 C 
HETATM    6  C4  UNK     1      20.036  -6.847  37.959  1.00  0.00     0.303 C 
ENDROOT
BRANCH   1   7
HETATM    7  C5  UNK     1      20.526  -3.344  36.642  1.00  0.00     0.312 C 
BRANCH   7   8
HETATM    8  C7  UNK     1      19.508  -2.314  36.294  1.00  0.00    -0.011 A 
HETATM    9  C10 UNK     1      18.690  -1.806  37.227  1.00  0.00     0.092 A 
HETATM   10  C14 UNK     1      17.670  -0.787  36.932  1.00  0.00     0.288 A 
HETATM   11  O1  UNK     1      17.580  -0.358  35.617  1.00  0.00    -0.275 OA
HETATM   12  O3  UNK     1      16.940  -0.344  37.812  1.00  0.00    -0.260 OA
HETATM   13  C11 UNK     1      18.427  -0.873  34.615  1.00  0.00     0.090 A 
HETATM   14  C8  UNK     1      19.389  -1.839  34.910  1.00  0.00     0.007 A 
HETATM   15  C15 UNK     1      18.246  -0.368  33.326  1.00  0.00     0.039 A 
HETATM   16  C12 UNK     1      20.190  -2.301  33.856  1.00  0.00     0.022 A 
HETATM   17  C13 UNK     1      20.022  -1.804  32.559  1.00  0.00    -0.058 A 
HETATM   18  C16 UNK     1      19.052  -0.839  32.294  1.00  0.00     0.010 A 
BRANCH  17  19
HETATM   19  C17 UNK     1      20.886  -2.311  31.452  1.00  0.00     0.034 C 
HETATM   20  C19 UNK     1      20.177  -2.274  30.101  1.00  0.00     0.010 C 
ENDBRANCH  17  19
ENDBRANCH   7   8
ENDBRANCH   1   7
BRANCH   2  21
HETATM   21  C6  UNK     1      19.458  -8.892  36.820  1.00  0.00     0.375 C 
BRANCH  21  22
HETATM   22  C9  UNK     1      20.561  -9.907  37.066  1.00  0.00     0.250 C 
HETATM   23  O2  UNK     1      20.434 -10.846  37.844  1.00  0.00    -0.271 OA
HETATM   24  N3  UNK     1      21.678  -9.602  36.291  1.00  0.00    -0.323 N 
HETATM   25  H16 UNK     1      21.627  -8.789  35.681  1.00  0.00     0.169 HD
BRANCH  24  26
HETATM   26  C18 UNK     1      22.907 -10.302  36.234  1.00  0.00     0.073 A 
HETATM   27  C20 UNK     1      24.081  -9.694  36.678  1.00  0.00     0.143 A 
HETATM   28  F1  UNK     1      24.058  -8.443  37.162  1.00  0.00    -0.204 F 
HETATM   29  C22 UNK     1      25.290 -10.387  36.622  1.00  0.00     0.044 A 
HETATM   30  C24 UNK     1      25.325 -11.689  36.123  1.00  0.00     0.003 A 
HETATM   31  C23 UNK     1      24.151 -12.298  35.679  1.00  0.00     0.002 A 
HETATM   32  C21 UNK     1      22.942 -11.605  35.734  1.00  0.00     0.033 A 
ENDBRANCH  24  26
ENDBRANCH  21  22
ENDBRANCH   2  21
TORSDOF 6
ENDMDL
MODEL 8
REMARK VINA RESULT:      -9.1      4.148     10.693
REMARK  6 active torsions:
REMARK  status: ('A' for Active; 'I' for Inactive)
REMARK    1  A    between atoms: C5_12  and  N1_5 
REMARK    2  A    between atoms: C6_13  and  N2_6 
REMARK    3  A    between atoms: C18_25  and  N3_7 
REMARK       I    between atoms: C9_16  and  N3_7 
REMARK    4  A    between atoms: C5_12  and  C7_14 
REMARK    5  A    between atoms: C6_13  and  C9_16 
REMARK    6  A    between atoms: C13_20  and  C17_24 
ROOT
HETATM    1  N1  UNK     1      17.936   1.578  35.280  1.00  0.00     0.096 N 
HETATM    2  N2  UNK     1      18.344  -0.973  36.576  1.00  0.00     0.100 N 
HETATM    3  C1  UNK     1      18.952   0.633  34.799  1.00  0.00     0.303 C 
HETATM    4  C2  UNK     1      17.724   1.414  36.723  1.00  0.00     0.303 C 
HETATM    5  C3  UNK     1      18.555  -0.809  35.133  1.00  0.00     0.303 C 
HETATM    6  C4  UNK     1      17.327  -0.029  37.055  1.00  0.00     0.303 C 
ENDROOT
BRANCH   1   7
HETATM    7  C5  UNK     1      18.318   2.954  34.965  1.00  0.00     0.312 C 
BRANCH   7   8
HETATM    8  C7  UNK     1      18.321   3.215  33.498  1.00  0.00    -0.011 A 
HETATM    9  C10 UNK     1      18.292   2.205  32.616  1.00  0.00     0.092 A 
HETATM   10  C14 UNK     1      18.294   2.412  31.159  1.00  0.00     0.288 A 
HETATM   11  O1  UNK     1      18.328   3.726  30.716  1.00  0.00    -0.275 OA
HETATM   12  O3  UNK     1      18.265   1.465  30.381  1.00  0.00    -0.260 OA
HETATM   13  C11 UNK     1      18.357   4.807  31.619  1.00  0.00     0.090 A 
HETATM   14  C8  UNK     1      18.356   4.595  32.998  1.00  0.00     0.007 A 
HETATM   15  C15 UNK     1      18.390   6.086  31.061  1.00  0.00     0.039 A 
HETATM   16  C12 UNK     1      18.389   5.724  33.829  1.00  0.00     0.022 A 
HETATM   17  C13 UNK     1      18.422   7.012  33.285  1.00  0.00    -0.058 A 
HETATM   18  C16 UNK     1      18.422   7.193  31.903  1.00  0.00     0.010 A 
BRANCH  17  19
HETATM   19  C17 UNK     1      18.456   8.199  34.189  1.00  0.00     0.034 C 
HETATM   20  C19 UNK     1      19.881   8.656  34.490  1.00  0.00     0.010 C 
ENDBRANCH  17  19
ENDBRANCH   7   8
ENDBRANCH   1   7
BRANCH   2  21
HETATM   21  C6  UNK     1      17.965  -2.349  36.892  1.00  0.00     0.375 C 
BRANCH  21  22
HETATM   22  C9  UNK     1      19.184  -3.248  36.780  1.00  0.00     0.250 C 
HETATM   23  O2  UNK     1      20.330  -2.823  36.876  1.00  0.00    -0.271 OA
HETATM   24  N3  UNK     1      18.791  -4.568  36.566  1.00  0.00    -0.323 N 
HETATM   25  H16 UNK     1      17.794  -4.766  36.519  1.00  0.00     0.169 HD
BRANCH  24  26
HETATM   26  C18 UNK     1      19.623  -5.701  36.409  1.00  0.00     0.073 A 
HETATM   27  C20 UNK     1      20.314  -6.220  37.504  1.00  0.00     0.143 A 
HETATM   28  F1  UNK     1      20.197  -5.652  38.714  1.00  0.00    -0.204 F 
HETATM   29  C22 UNK     1      21.132  -7.339  37.347  1.00  0.00     0.044 A 
HETATM   30  C24 UNK     1      21.259  -7.940  36.095  1.00  0.00     0.003 A 
HETATM   31  C23 UNK     1      20.569  -7.421  34.999  1.00  0.00     0.002 A 
HETATM   32  C21 UNK     1      19.751  -6.302  35.156  1.00  0.00     0.033 A 
ENDBRANCH  24  26
ENDBRANCH  21  22
ENDBRANCH   2  21
TORSDOF 6
ENDMDL
MODEL 9
REMARK VINA RESULT:      -9.0      8.178     13.734
REMARK  6 active torsions:
REMARK  status: ('A' for Active; 'I' for Inactive)
REMARK    1  A    between atoms: C5_12  and  N1_5 
REMARK    2  A    between atoms: C6_13  and  N2_6 
REMARK    3  A    between atoms: C18_25  and  N3_7 
REMARK       I    between atoms: C9_16  and  N3_7 
REMARK    4  A    between atoms: C5_12  and  C7_14 
REMARK    5  A    between atoms: C6_13  and  C9_16 
REMARK    6  A    between atoms: C13_20  and  C17_24 
ROOT
HETATM    1  N1  UNK     1      16.336   7.387  33.541  1.00  0.00     0.096 N 
HETATM    2  N2  UNK     1      17.555   5.281  31.982  1.00  0.00     0.100 N 
HETATM    3  C1  UNK     1      16.902   6.194  34.183  1.00  0.00     0.303 C 
HETATM    4  C2  UNK     1      15.861   7.067  32.190  1.00  0.00     0.303 C 
HETATM    5  C3  UNK     1      18.031   5.601  33.332  1.00  0.00     0.303 C 
HETATM    6  C4  UNK     1      16.991   6.475  31.341  1.00  0.00     0.303 C 
ENDROOT
BRANCH   1   7
HETATM    7  C5  UNK     1      15.257   7.949  34.351  1.00  0.00     0.312 C 
BRANCH   7   8
HETATM    8  C7  UNK     1      15.133   9.423  34.179  1.00  0.00    -0.011 A 
HETATM    9  C10 UNK     1      13.933  10.006  34.047  1.00  0.00     0.092 A 
HETATM   10  C14 UNK     1      13.760  11.458  33.875  1.00  0.00     0.288 A 
HETATM   11  O1  UNK     1      14.914  12.225  33.853  1.00  0.00    -0.275 OA
HETATM   12  O3  UNK     1      12.646  11.956  33.760  1.00  0.00    -0.260 OA
HETATM   13  C11 UNK     1      16.189  11.640  33.990  1.00  0.00     0.090 A 
HETATM   14  C8  UNK     1      16.338  10.263  34.151  1.00  0.00     0.007 A 
HETATM   15  C15 UNK     1      17.281  12.509  33.952  1.00  0.00     0.039 A 
HETATM   16  C12 UNK     1      17.641   9.760  34.279  1.00  0.00     0.022 A 
HETATM   17  C13 UNK     1      18.745  10.618  34.244  1.00  0.00    -0.058 A 
HETATM   18  C16 UNK     1      18.566  11.990  34.081  1.00  0.00     0.010 A 
BRANCH  17  19
HETATM   19  C17 UNK     1      20.122  10.060  34.381  1.00  0.00     0.034 C 
HETATM   20  C19 UNK     1      20.144   8.538  34.273  1.00  0.00     0.010 C 
ENDBRANCH  17  19
ENDBRANCH   7   8
ENDBRANCH   1   7
BRANCH   2  21
HETATM   21  C6  UNK     1      18.634   4.717  31.172  1.00  0.00     0.375 C 
BRANCH  21  22
HETATM   22  C9  UNK     1      18.343   3.253  30.891  1.00  0.00     0.250 C 
HETATM   23  O2  UNK     1      17.290   2.714  31.215  1.00  0.00    -0.271 OA
HETATM   24  N3  UNK     1      19.422   2.665  30.233  1.00  0.00    -0.323 N 
HETATM   25  H16 UNK     1      20.227   3.251  30.023  1.00  0.00     0.169 HD
BRANCH  24  26
HETATM   26  C18 UNK     1      19.541   1.324  29.799  1.00  0.00     0.073 A 
HETATM   27  C20 UNK     1      18.872   0.896  28.652  1.00  0.00     0.143 A 
HETATM   28  F1  UNK     1      18.110   1.749  27.951  1.00  0.00    -0.204 F 
HETATM   29  C22 UNK     1      18.993  -0.426  28.226  1.00  0.00     0.044 A 
HETATM   30  C24 UNK     1      19.785  -1.321  28.945  1.00  0.00     0.003 A 
HETATM   31  C23 UNK     1      20.454  -0.894  30.093  1.00  0.00     0.002 A 
HETATM   32  C21 UNK     1      20.333   0.429  30.519  1.00  0.00     0.033 A 
ENDBRANCH  24  26
ENDBRANCH  21  22
ENDBRANCH   2  21
TORSDOF 6
ENDMDL
MODEL 10
REMARK VINA RESULT:      -8.7      7.950     11.429
REMARK  6 active torsions:
REMARK  status: ('A' for Active; 'I' for Inactive)
REMARK    1  A    between atoms: C5_12  and  N1_5 
REMARK    2  A    between atoms: C6_13  and  N2_6 
REMARK    3  A    between atoms: C18_25  and  N3_7 
REMARK       I    between atoms: C9_16  and  N3_7 
REMARK    4  A    between atoms: C5_12  and  C7_14 
REMARK    5  A    between atoms: C6_13  and  C9_16 
REMARK    6  A    between atoms: C13_20  and  C17_24 
ROOT
HETATM    1  N1  UNK     1      26.861  -9.394  37.512  1.00  0.00     0.096 N 
HETATM    2  N2  UNK     1      29.716  -9.049  37.796  1.00  0.00     0.100 N 
HETATM    3  C1  UNK     1      27.658  -8.745  36.464  1.00  0.00     0.303 C 
HETATM    4  C2  UNK     1      27.475  -9.185  38.828  1.00  0.00     0.303 C 
HETATM    5  C3  UNK     1      29.102  -9.259  36.480  1.00  0.00     0.303 C 
HETATM    6  C4  UNK     1      28.919  -9.699  38.843  1.00  0.00     0.303 C 
ENDROOT
BRANCH   1   7
HETATM    7  C5  UNK     1      25.485  -8.900  37.498  1.00  0.00     0.312 C 
BRANCH   7   8
HETATM    8  C7  UNK     1      24.562  -9.826  36.783  1.00  0.00    -0.011 A 
HETATM    9  C10 UNK     1      25.008 -10.976  36.256  1.00  0.00     0.092 A 
HETATM   10  C14 UNK     1      24.135 -11.923  35.542  1.00  0.00     0.288 A 
HETATM   11  O1  UNK     1      22.798 -11.575  35.431  1.00  0.00    -0.275 OA
HETATM   12  O3  UNK     1      24.577 -12.966  35.074  1.00  0.00    -0.260 OA
HETATM   13  C11 UNK     1      22.301 -10.374  35.976  1.00  0.00     0.090 A 
HETATM   14  C8  UNK     1      23.140  -9.486  36.649  1.00  0.00     0.007 A 
HETATM   15  C15 UNK     1      20.937 -10.128  35.804  1.00  0.00     0.039 A 
HETATM   16  C12 UNK     1      22.568  -8.313  37.161  1.00  0.00     0.022 A 
HETATM   17  C13 UNK     1      21.204  -8.052  36.996  1.00  0.00    -0.058 A 
HETATM   18  C16 UNK     1      20.389  -8.957  36.319  1.00  0.00     0.010 A 
BRANCH  17  19
HETATM   19  C17 UNK     1      20.616  -6.796  37.549  1.00  0.00     0.034 C 
HETATM   20  C19 UNK     1      20.366  -6.886  39.052  1.00  0.00     0.010 C 
ENDBRANCH  17  19
ENDBRANCH   7   8
ENDBRANCH   1   7
BRANCH   2  21
HETATM   21  C6  UNK     1      31.093  -9.541  37.811  1.00  0.00     0.375 C 
BRANCH  21  22
HETATM   22  C9  UNK     1      31.917  -8.766  36.798  1.00  0.00     0.250 C 
HETATM   23  O2  UNK     1      32.479  -9.305  35.851  1.00  0.00    -0.271 OA
HETATM   24  N3  UNK     1      31.918  -7.408  37.114  1.00  0.00    -0.323 N 
HETATM   25  H16 UNK     1      31.392  -7.111  37.933  1.00  0.00     0.169 HD
BRANCH  24  26
HETATM   26  C18 UNK     1      32.566  -6.360  36.420  1.00  0.00     0.073 A 
HETATM   27  C20 UNK     1      33.929  -6.132  36.610  1.00  0.00     0.143 A 
HETATM   28  F1  UNK     1      34.637  -6.901  37.451  1.00  0.00    -0.204 F 
HETATM   29  C22 UNK     1      34.566  -5.099  35.922  1.00  0.00     0.044 A 
HETATM   30  C24 UNK     1      33.841  -4.295  35.044  1.00  0.00     0.003 A 
HETATM   31  C23 UNK     1      32.477  -4.522  34.853  1.00  0.00     0.002 A 
HETATM   32  C21 UNK     1      31.840  -5.555  35.541  1.00  0.00     0.033 A 
ENDBRANCH  24  26
ENDBRANCH  21  22
ENDBRANCH   2  21
TORSDOF 6
ENDMDL
