MODEL 1
REMARK VINA RESULT:      -9.4      0.000      0.000
REMARK  4 active torsions:
REMARK  status: ('A' for Active; 'I' for Inactive)
REMARK       I    between atoms: C13_18  and  N1_5 
REMARK    1  A    between atoms: C7_12  and  N1_5 
REMARK    2  A    between atoms: C1_6  and  C2_7 
REMARK    3  A    between atoms: C6_11  and  C7_12 
REMARK    4  A    between atoms: C13_18  and  C14_19 
ROOT
HETATM    1  O2  UNK     1      21.319  -2.073  35.252  1.00  0.00    -0.267 OA
HETATM    2  N1  UNK     1      19.956  -3.911  34.806  1.00  0.00    -0.348 N 
HETATM    3  C13 UNK     1      20.655  -2.764  34.480  1.00  0.00     0.258 C 
HETATM    4  H18 UNK     1      19.390  -4.368  34.097  1.00  0.00     0.163 HD
ENDROOT
BRANCH   2   5
HETATM    5  C7  UNK     1      19.919  -4.459  36.143  1.00  0.00     0.114 C 
HETATM    6  C12 UNK     1      18.521  -4.324  36.741  1.00  0.00     0.037 C 
BRANCH   5   7
HETATM    7  C6  UNK     1      20.423  -5.886  36.166  1.00  0.00    -0.036 A 
HETATM    8  C10 UNK     1      20.188  -6.702  35.072  1.00  0.00     0.010 A 
HETATM    9  C8  UNK     1      20.651  -8.017  35.092  1.00  0.00     0.008 A 
HETATM   10  C2  UNK     1      21.341  -8.496  36.206  1.00  0.00    -0.051 A 
HETATM   11  C9  UNK     1      21.567  -7.660  37.299  1.00  0.00     0.008 A 
HETATM   12  C11 UNK     1      21.105  -6.345  37.278  1.00  0.00     0.010 A 
BRANCH  10  13
HETATM   13  C1  UNK     1      21.836  -9.904  36.228  1.00  0.00    -0.024 C 
HETATM   14  C3  UNK     1      21.058 -10.760  37.274  1.00  0.00     0.019 C 
HETATM   15  C4  UNK     1      23.349  -9.965  36.602  1.00  0.00     0.019 C 
HETATM   16  C5  UNK     1      21.709 -10.681  34.877  1.00  0.00     0.019 C 
ENDBRANCH  10  13
ENDBRANCH   5   7
ENDBRANCH   2   5
BRANCH   3  17
HETATM   17  C14 UNK     1      20.542  -2.409  33.061  1.00  0.00     0.108 A 
HETATM   18  C15 UNK     1      19.977  -1.228  32.789  1.00  0.00     0.037 A 
HETATM   19  C16 UNK     1      19.822  -0.788  31.410  1.00  0.00     0.000 A 
HETATM   20  C17 UNK     1      20.271  -1.616  30.386  1.00  0.00     0.089 A 
HETATM   21  C19 UNK     1      19.235   0.436  31.080  1.00  0.00     0.033 A 
HETATM   22  O1  UNK     1      20.867  -2.858  30.678  1.00  0.00    -0.274 OA
HETATM   23  C20 UNK     1      20.152  -1.255  29.045  1.00  0.00     0.039 A 
HETATM   24  C18 UNK     1      21.028  -3.306  31.987  1.00  0.00     0.304 A 
HETATM   25  O3  UNK     1      21.548  -4.389  32.233  1.00  0.00    -0.259 OA
HETATM   26  C22 UNK     1      19.567  -0.032  28.725  1.00  0.00     0.022 A 
HETATM   27  C21 UNK     1      19.109   0.812  29.740  1.00  0.00     0.011 A 
HETATM   28 Br1  UNK     1      18.317   2.471  29.297  1.00  0.00    -0.051 Br
ENDBRANCH   3  17
TORSDOF 4
ENDMDL
MODEL 2
REMARK VINA RESULT:      -8.6      8.890     12.248
REMARK  4 active torsions:
REMARK  status: ('A' for Active; 'I' for Inactive)
REMARK       I    between atoms: C13_18  and  N1_5 
REMARK    1  A    between atoms: C7_12  and  N1_5 
REMARK    2  A    between atoms: C1_6  and  C2_7 
REMARK    3  A    between atoms: C6_11  and  C7_12 
REMARK    4  A    between atoms: C13_18  and  C14_19 
ROOT
HETATM    1  O2  UNK     1      16.769   7.907  30.851  1.00  0.00    -0.267 OA
HETATM    2  N1  UNK     1      17.594   6.663  32.641  1.00  0.00    -0.348 N 
HETATM    3  C13 UNK     1      16.879   7.691  32.057  1.00  0.00     0.258 C 
HETATM    4  H18 UNK     1      17.667   6.617  33.653  1.00  0.00     0.163 HD
ENDROOT
BRANCH   2   5
HETATM    5  C7  UNK     1      18.325   5.677  31.876  1.00  0.00     0.114 C 
HETATM    6  C12 UNK     1      19.758   6.141  31.632  1.00  0.00     0.037 C 
BRANCH   5   7
HETATM    7  C6  UNK     1      18.262   4.314  32.534  1.00  0.00    -0.036 A 
HETATM    8  C10 UNK     1      18.231   4.233  33.915  1.00  0.00     0.010 A 
HETATM    9  C8  UNK     1      18.174   2.978  34.521  1.00  0.00     0.008 A 
HETATM   10  C2  UNK     1      18.149   1.825  33.736  1.00  0.00    -0.051 A 
HETATM   11  C9  UNK     1      18.181   1.927  32.346  1.00  0.00     0.008 A 
HETATM   12  C11 UNK     1      18.238   3.182  31.740  1.00  0.00     0.010 A 
BRANCH  10  13
HETATM   13  C1  UNK     1      18.088   0.482  34.384  1.00  0.00    -0.024 C 
HETATM   14  C3  UNK     1      18.584  -0.636  33.416  1.00  0.00     0.019 C 
HETATM   15  C4  UNK     1      16.630   0.125  34.809  1.00  0.00     0.019 C 
HETATM   16  C5  UNK     1      18.950   0.323  35.680  1.00  0.00     0.019 C 
ENDBRANCH  10  13
ENDBRANCH   5   7
ENDBRANCH   2   5
BRANCH   3  17
HETATM   17  C14 UNK     1      16.221   8.560  33.040  1.00  0.00     0.108 A 
HETATM   18  C15 UNK     1      15.197   9.294  32.591  1.00  0.00     0.037 A 
HETATM   19  C16 UNK     1      14.481  10.185  33.492  1.00  0.00     0.000 A 
HETATM   20  C17 UNK     1      14.881  10.258  34.822  1.00  0.00     0.089 A 
HETATM   21  C19 UNK     1      13.408  10.970  33.065  1.00  0.00     0.033 A 
HETATM   22  O1  UNK     1      15.959   9.483  35.290  1.00  0.00    -0.274 OA
HETATM   23  C20 UNK     1      14.239  11.092  35.736  1.00  0.00     0.039 A 
HETATM   24  C18 UNK     1      16.663   8.622  34.453  1.00  0.00     0.304 A 
HETATM   25  O3  UNK     1      17.601   7.951  34.868  1.00  0.00    -0.259 OA
HETATM   26  C22 UNK     1      13.168  11.871  35.303  1.00  0.00     0.022 A 
HETATM   27  C21 UNK     1      12.753  11.811  33.970  1.00  0.00     0.011 A 
HETATM   28 Br1  UNK     1      11.299  12.871  33.389  1.00  0.00    -0.051 Br
ENDBRANCH   3  17
TORSDOF 4
ENDMDL
MODEL 3
REMARK VINA RESULT:      -8.4      4.506     10.758
REMARK  4 active torsions:
REMARK  status: ('A' for Active; 'I' for Inactive)
REMARK       I    between atoms: C13_18  and  N1_5 
REMARK    1  A    between atoms: C7_12  and  N1_5 
REMARK    2  A    between atoms: C1_6  and  C2_7 
REMARK    3  A    between atoms: C6_11  and  C7_12 
REMARK    4  A    between atoms: C13_18  and  C14_19 
ROOT
HETATM    1  O2  UNK     1      19.721  -0.190  29.230  1.00  0.00    -0.267 OA
HETATM    2  N1  UNK     1      19.258   1.437  30.832  1.00  0.00    -0.348 N 
HETATM    3  C13 UNK     1      19.589   0.167  30.399  1.00  0.00     0.258 C 
HETATM    4  H18 UNK     1      19.114   1.605  31.824  1.00  0.00     0.163 HD
ENDROOT
BRANCH   2   5
HETATM    5  C7  UNK     1      19.020   2.541  29.930  1.00  0.00     0.114 C 
HETATM    6  C12 UNK     1      17.978   2.163  28.880  1.00  0.00     0.037 C 
BRANCH   5   7
HETATM    7  C6  UNK     1      18.649   3.799  30.686  1.00  0.00    -0.036 A 
HETATM    8  C10 UNK     1      18.894   5.032  30.106  1.00  0.00     0.010 A 
HETATM    9  C8  UNK     1      18.554   6.191  30.802  1.00  0.00     0.008 A 
HETATM   10  C2  UNK     1      17.973   6.099  32.067  1.00  0.00    -0.051 A 
HETATM   11  C9  UNK     1      17.734   4.849  32.636  1.00  0.00     0.008 A 
HETATM   12  C11 UNK     1      18.074   3.690  31.940  1.00  0.00     0.010 A 
BRANCH  10  13
HETATM   13  C1  UNK     1      17.608   7.340  32.813  1.00  0.00    -0.024 C 
HETATM   14  C3  UNK     1      16.810   7.005  34.111  1.00  0.00     0.019 C 
HETATM   15  C4  UNK     1      16.720   8.282  31.943  1.00  0.00     0.019 C 
HETATM   16  C5  UNK     1      18.814   8.219  33.282  1.00  0.00     0.019 C 
ENDBRANCH  10  13
ENDBRANCH   5   7
ENDBRANCH   2   5
BRANCH   3  17
HETATM   17  C14 UNK     1      19.783  -0.781  31.502  1.00  0.00     0.108 A 
HETATM   18  C15 UNK     1      19.229  -0.447  32.674  1.00  0.00     0.037 A 
HETATM   19  C16 UNK     1      19.366  -1.325  33.827  1.00  0.00     0.000 A 
HETATM   20  C17 UNK     1      20.080  -2.511  33.688  1.00  0.00     0.089 A 
HETATM   21  C19 UNK     1      18.807  -1.015  35.069  1.00  0.00     0.033 A 
HETATM   22  O1  UNK     1      20.660  -2.857  32.452  1.00  0.00    -0.274 OA
HETATM   23  C20 UNK     1      20.250  -3.394  34.752  1.00  0.00     0.039 A 
HETATM   24  C18 UNK     1      20.546  -2.038  31.332  1.00  0.00     0.304 A 
HETATM   25  O3  UNK     1      21.054  -2.347  30.260  1.00  0.00    -0.259 OA
HETATM   26  C22 UNK     1      19.687  -3.078  35.987  1.00  0.00     0.022 A 
HETATM   27  C21 UNK     1      18.967  -1.892  36.146  1.00  0.00     0.011 A 
HETATM   28 Br1  UNK     1      18.207  -1.470  37.825  1.00  0.00    -0.051 Br
ENDBRANCH   3  17
TORSDOF 4
ENDMDL
MODEL 4
REMARK VINA RESULT:      -8.3     26.816     28.728
REMARK  4 active torsions:
REMARK  status: ('A' for Active; 'I' for Inactive)
REMARK       I    between atoms: C13_18  and  N1_5 
REMARK    1  A    between atoms: C7_12  and  N1_5 
REMARK    2  A    between atoms: C1_6  and  C2_7 
REMARK    3  A    between atoms: C6_11  and  C7_12 
REMARK    4  A    between atoms: C13_18  and  C14_19 
ROOT
HETATM    1  O2  UNK     1      10.394   9.002   9.434  1.00  0.00    -0.267 OA
HETATM    2  N1  UNK     1      10.449   6.934   8.361  1.00  0.00    -0.348 N 
HETATM    3  C13 UNK     1      10.985   7.981   9.086  1.00  0.00     0.258 C 
HETATM    4  H18 UNK     1      11.049   6.166   8.075  1.00  0.00     0.163 HD
ENDROOT
BRANCH   2   5
HETATM    5  C7  UNK     1       9.076   6.910   7.908  1.00  0.00     0.114 C 
HETATM    6  C12 UNK     1       8.938   6.049   6.655  1.00  0.00     0.037 C 
BRANCH   5   7
HETATM    7  C6  UNK     1       8.140   6.474   9.016  1.00  0.00    -0.036 A 
HETATM    8  C10 UNK     1       8.258   5.196   9.534  1.00  0.00     0.010 A 
HETATM    9  C8  UNK     1       7.395   4.793  10.553  1.00  0.00     0.008 A 
HETATM   10  C2  UNK     1       6.430   5.675  11.038  1.00  0.00    -0.051 A 
HETATM   11  C9  UNK     1       6.326   6.959  10.504  1.00  0.00     0.008 A 
HETATM   12  C11 UNK     1       7.189   7.362   9.485  1.00  0.00     0.010 A 
BRANCH  10  13
HETATM   13  C1  UNK     1       5.507   5.245  12.129  1.00  0.00    -0.024 C 
HETATM   14  C3  UNK     1       4.640   4.025  11.688  1.00  0.00     0.019 C 
HETATM   15  C4  UNK     1       4.532   6.394  12.532  1.00  0.00     0.019 C 
HETATM   16  C5  UNK     1       6.201   4.802  13.459  1.00  0.00     0.019 C 
ENDBRANCH  10  13
ENDBRANCH   5   7
ENDBRANCH   2   5
BRANCH   3  17
HETATM   17  C14 UNK     1      12.397   7.774   9.431  1.00  0.00     0.108 A 
HETATM   18  C15 UNK     1      13.224   8.794   9.179  1.00  0.00     0.037 A 
HETATM   19  C16 UNK     1      14.642   8.683   9.488  1.00  0.00     0.000 A 
HETATM   20  C17 UNK     1      15.117   7.501  10.048  1.00  0.00     0.089 A 
HETATM   21  C19 UNK     1      15.542   9.722   9.240  1.00  0.00     0.033 A 
HETATM   22  O1  UNK     1      14.241   6.431  10.312  1.00  0.00    -0.274 OA
HETATM   23  C20 UNK     1      16.463   7.330  10.367  1.00  0.00     0.039 A 
HETATM   24  C18 UNK     1      12.881   6.507  10.027  1.00  0.00     0.304 A 
HETATM   25  O3  UNK     1      12.125   5.570  10.260  1.00  0.00    -0.259 OA
HETATM   26  C22 UNK     1      17.354   8.372  10.118  1.00  0.00     0.022 A 
HETATM   27  C21 UNK     1      16.895   9.566   9.556  1.00  0.00     0.011 A 
HETATM   28 Br1  UNK     1      18.110  10.975   9.220  1.00  0.00    -0.051 Br
ENDBRANCH   3  17
TORSDOF 4
ENDMDL
MODEL 5
REMARK VINA RESULT:      -8.2     26.741     29.223
REMARK  4 active torsions:
REMARK  status: ('A' for Active; 'I' for Inactive)
REMARK       I    between atoms: C13_18  and  N1_5 
REMARK    1  A    between atoms: C7_12  and  N1_5 
REMARK    2  A    between atoms: C1_6  and  C2_7 
REMARK    3  A    between atoms: C6_11  and  C7_12 
REMARK    4  A    between atoms: C13_18  and  C14_19 
ROOT
HETATM    1  O2  UNK     1       8.672   5.538   6.972  1.00  0.00    -0.267 OA
HETATM    2  N1  UNK     1      10.330   6.238   8.454  1.00  0.00    -0.348 N 
HETATM    3  C13 UNK     1       9.044   5.879   8.094  1.00  0.00     0.258 C 
HETATM    4  H18 UNK     1      10.511   6.562   9.399  1.00  0.00     0.163 HD
ENDROOT
BRANCH   2   5
HETATM    5  C7  UNK     1      11.434   6.256   7.521  1.00  0.00     0.114 C 
HETATM    6  C12 UNK     1      11.084   7.089   6.291  1.00  0.00     0.037 C 
BRANCH   5   7
HETATM    7  C6  UNK     1      12.711   6.719   8.190  1.00  0.00    -0.036 A 
HETATM    8  C10 UNK     1      12.913   8.073   8.394  1.00  0.00     0.010 A 
HETATM    9  C8  UNK     1      14.089   8.501   9.009  1.00  0.00     0.008 A 
HETATM   10  C2  UNK     1      15.045   7.567   9.411  1.00  0.00    -0.051 A 
HETATM   11  C9  UNK     1      14.824   6.207   9.196  1.00  0.00     0.008 A 
HETATM   12  C11 UNK     1      13.648   5.779   8.582  1.00  0.00     0.010 A 
BRANCH  10  13
HETATM   13  C1  UNK     1      16.304   8.024  10.069  1.00  0.00    -0.024 C 
HETATM   14  C3  UNK     1      17.459   6.998   9.853  1.00  0.00     0.019 C 
HETATM   15  C4  UNK     1      16.108   8.197  11.606  1.00  0.00     0.019 C 
HETATM   16  C5  UNK     1      16.865   9.394   9.564  1.00  0.00     0.019 C 
ENDBRANCH  10  13
ENDBRANCH   5   7
ENDBRANCH   2   5
BRANCH   3  17
HETATM   17  C14 UNK     1       8.100   5.936   9.215  1.00  0.00     0.108 A 
HETATM   18  C15 UNK     1       7.370   7.053   9.318  1.00  0.00     0.037 A 
HETATM   19  C16 UNK     1       6.405   7.202  10.398  1.00  0.00     0.000 A 
HETATM   20  C17 UNK     1       6.257   6.167  11.315  1.00  0.00     0.089 A 
HETATM   21  C19 UNK     1       5.624   8.351  10.545  1.00  0.00     0.033 A 
HETATM   22  O1  UNK     1       7.027   4.993  11.201  1.00  0.00    -0.274 OA
HETATM   23  C20 UNK     1       5.352   6.247  12.372  1.00  0.00     0.039 A 
HETATM   24  C18 UNK     1       7.958   4.822  10.181  1.00  0.00     0.304 A 
HETATM   25  O3  UNK     1       8.625   3.797  10.089  1.00  0.00    -0.259 OA
HETATM   26  C22 UNK     1       4.576   7.396  12.510  1.00  0.00     0.022 A 
HETATM   27  C21 UNK     1       4.711   8.445  11.599  1.00  0.00     0.011 A 
HETATM   28 Br1  UNK     1       3.654  10.001  11.793  1.00  0.00    -0.051 Br
ENDBRANCH   3  17
TORSDOF 4
ENDMDL
MODEL 6
REMARK VINA RESULT:      -8.1     26.947     28.792
REMARK  4 active torsions:
REMARK  status: ('A' for Active; 'I' for Inactive)
REMARK       I    between atoms: C13_18  and  N1_5 
REMARK    1  A    between atoms: C7_12  and  N1_5 
REMARK    2  A    between atoms: C1_6  and  C2_7 
REMARK    3  A    between atoms: C6_11  and  C7_12 
REMARK    4  A    between atoms: C13_18  and  C14_19 
ROOT
HETATM    1  O2  UNK     1      11.049   7.298   6.534  1.00  0.00    -0.267 OA
HETATM    2  N1  UNK     1      10.215   6.794   8.652  1.00  0.00    -0.348 N 
HETATM    3  C13 UNK     1      11.212   7.014   7.719  1.00  0.00     0.258 C 
HETATM    4  H18 UNK     1      10.467   6.503   9.592  1.00  0.00     0.163 HD
ENDROOT
BRANCH   2   5
HETATM    5  C7  UNK     1       8.807   6.876   8.334  1.00  0.00     0.114 C 
HETATM    6  C12 UNK     1       8.431   5.833   7.285  1.00  0.00     0.037 C 
BRANCH   5   7
HETATM    7  C6  UNK     1       7.956   6.774   9.583  1.00  0.00    -0.036 A 
HETATM    8  C10 UNK     1       7.393   7.923  10.111  1.00  0.00     0.010 A 
HETATM    9  C8  UNK     1       6.610   7.829  11.261  1.00  0.00     0.008 A 
HETATM   10  C2  UNK     1       6.402   6.589  11.864  1.00  0.00    -0.051 A 
HETATM   11  C9  UNK     1       6.978   5.442  11.318  1.00  0.00     0.008 A 
HETATM   12  C11 UNK     1       7.761   5.535  10.168  1.00  0.00     0.010 A 
BRANCH  10  13
HETATM   13  C1  UNK     1       5.564   6.489  13.095  1.00  0.00    -0.024 C 
HETATM   14  C3  UNK     1       5.908   7.625  14.107  1.00  0.00     0.019 C 
HETATM   15  C4  UNK     1       5.788   5.127  13.823  1.00  0.00     0.019 C 
HETATM   16  C5  UNK     1       4.020   6.589  12.866  1.00  0.00     0.019 C 
ENDBRANCH  10  13
ENDBRANCH   5   7
ENDBRANCH   2   5
BRANCH   3  17
HETATM   17  C14 UNK     1      12.561   6.875   8.281  1.00  0.00     0.108 A 
HETATM   18  C15 UNK     1      13.240   8.011   8.477  1.00  0.00     0.037 A 
HETATM   19  C16 UNK     1      14.585   7.974   9.031  1.00  0.00     0.000 A 
HETATM   20  C17 UNK     1      15.148   6.743   9.351  1.00  0.00     0.089 A 
HETATM   21  C19 UNK     1      15.332   9.135   9.251  1.00  0.00     0.033 A 
HETATM   22  O1  UNK     1      14.428   5.551   9.143  1.00  0.00    -0.274 OA
HETATM   23  C20 UNK     1      16.432   6.639   9.884  1.00  0.00     0.039 A 
HETATM   24  C18 UNK     1      13.140   5.553   8.615  1.00  0.00     0.304 A 
HETATM   25  O3  UNK     1      12.519   4.511   8.437  1.00  0.00    -0.259 OA
HETATM   26  C22 UNK     1      17.169   7.801  10.101  1.00  0.00     0.022 A 
HETATM   27  C21 UNK     1      16.620   9.046   9.785  1.00  0.00     0.011 A 
HETATM   28 Br1  UNK     1      17.627  10.619  10.082  1.00  0.00    -0.051 Br
ENDBRANCH   3  17
TORSDOF 4
ENDMDL
MODEL 7
REMARK VINA RESULT:      -8.0     26.794     29.007
REMARK  4 active torsions:
REMARK  status: ('A' for Active; 'I' for Inactive)
REMARK       I    between atoms: C13_18  and  N1_5 
REMARK    1  A    between atoms: C7_12  and  N1_5 
REMARK    2  A    between atoms: C1_6  and  C2_7 
REMARK    3  A    between atoms: C6_11  and  C7_12 
REMARK    4  A    between atoms: C13_18  and  C14_19 
ROOT
HETATM    1  O2  UNK     1       8.583   5.373   7.357  1.00  0.00    -0.267 OA
HETATM    2  N1  UNK     1      10.233   6.387   8.655  1.00  0.00    -0.348 N 
HETATM    3  C13 UNK     1       8.956   5.927   8.390  1.00  0.00     0.258 C 
HETATM    4  H18 UNK     1      10.413   6.886   9.520  1.00  0.00     0.163 HD
ENDROOT
BRANCH   2   5
HETATM    5  C7  UNK     1      11.324   6.267   7.715  1.00  0.00     0.114 C 
HETATM    6  C12 UNK     1      11.001   7.005   6.418  1.00  0.00     0.037 C 
BRANCH   5   7
HETATM    7  C6  UNK     1      12.631   6.723   8.329  1.00  0.00    -0.036 A 
HETATM    8  C10 UNK     1      13.613   5.785   8.600  1.00  0.00     0.010 A 
HETATM    9  C8  UNK     1      14.816   6.205   9.167  1.00  0.00     0.008 A 
HETATM   10  C2  UNK     1      15.018   7.555   9.454  1.00  0.00    -0.051 A 
HETATM   11  C9  UNK     1      14.018   8.485   9.174  1.00  0.00     0.008 A 
HETATM   12  C11 UNK     1      12.815   8.066   8.607  1.00  0.00     0.010 A 
BRANCH  10  13
HETATM   13  C1  UNK     1      16.306   8.004  10.060  1.00  0.00    -0.024 C 
HETATM   14  C3  UNK     1      17.440   6.961   9.817  1.00  0.00     0.019 C 
HETATM   15  C4  UNK     1      16.167   8.198  11.602  1.00  0.00     0.019 C 
HETATM   16  C5  UNK     1      16.866   9.361   9.519  1.00  0.00     0.019 C 
ENDBRANCH  10  13
ENDBRANCH   5   7
ENDBRANCH   2   5
BRANCH   3  17
HETATM   17  C14 UNK     1       8.023   6.161   9.498  1.00  0.00     0.108 A 
HETATM   18  C15 UNK     1       7.437   5.077  10.018  1.00  0.00     0.037 A 
HETATM   19  C16 UNK     1       6.497   5.208  11.121  1.00  0.00     0.000 A 
HETATM   20  C17 UNK     1       6.221   6.477  11.621  1.00  0.00     0.089 A 
HETATM   21  C19 UNK     1       5.860   4.104  11.693  1.00  0.00     0.033 A 
HETATM   22  O1  UNK     1       6.842   7.615  11.071  1.00  0.00    -0.274 OA
HETATM   23  C20 UNK     1       5.330   6.672  12.675  1.00  0.00     0.039 A 
HETATM   24  C18 UNK     1       7.745   7.521  10.015  1.00  0.00     0.304 A 
HETATM   25  O3  UNK     1       8.281   8.516   9.542  1.00  0.00    -0.259 OA
HETATM   26  C22 UNK     1       4.701   5.565  13.241  1.00  0.00     0.022 A 
HETATM   27  C21 UNK     1       4.965   4.284  12.751  1.00  0.00     0.011 A 
HETATM   28 Br1  UNK     1       4.107   2.786  13.524  1.00  0.00    -0.051 Br
ENDBRANCH   3  17
TORSDOF 4
ENDMDL
MODEL 8
REMARK VINA RESULT:      -7.9     16.858     20.561
REMARK  4 active torsions:
REMARK  status: ('A' for Active; 'I' for Inactive)
REMARK       I    between atoms: C13_18  and  N1_5 
REMARK    1  A    between atoms: C7_12  and  N1_5 
REMARK    2  A    between atoms: C1_6  and  C2_7 
REMARK    3  A    between atoms: C6_11  and  C7_12 
REMARK    4  A    between atoms: C13_18  and  C14_19 
ROOT
HETATM    1  O2  UNK     1      17.654  -3.447  14.971  1.00  0.00    -0.267 OA
HETATM    2  N1  UNK     1      19.980  -3.600  14.996  1.00  0.00    -0.348 N 
HETATM    3  C13 UNK     1      18.767  -2.953  15.145  1.00  0.00     0.258 C 
HETATM    4  H18 UNK     1      20.842  -3.075  15.105  1.00  0.00     0.163 HD
ENDROOT
BRANCH   2   5
HETATM    5  C7  UNK     1      20.090  -4.987  14.605  1.00  0.00     0.114 C 
HETATM    6  C12 UNK     1      19.363  -5.886  15.602  1.00  0.00     0.037 C 
BRANCH   5   7
HETATM    7  C6  UNK     1      19.614  -5.197  13.183  1.00  0.00    -0.036 A 
HETATM    8  C10 UNK     1      20.026  -4.317  12.197  1.00  0.00     0.010 A 
HETATM    9  C8  UNK     1      19.587  -4.508  10.887  1.00  0.00     0.008 A 
HETATM   10  C2  UNK     1      18.744  -5.578  10.584  1.00  0.00    -0.051 A 
HETATM   11  C9  UNK     1      18.340  -6.454  11.590  1.00  0.00     0.008 A 
HETATM   12  C11 UNK     1      18.778  -6.262  12.900  1.00  0.00     0.010 A 
BRANCH  10  13
HETATM   13  C1  UNK     1      18.275  -5.783   9.182  1.00  0.00    -0.024 C 
HETATM   14  C3  UNK     1      17.748  -7.236   8.970  1.00  0.00     0.019 C 
HETATM   15  C4  UNK     1      19.428  -5.546   8.159  1.00  0.00     0.019 C 
HETATM   16  C5  UNK     1      17.109  -4.847   8.721  1.00  0.00     0.019 C 
ENDBRANCH  10  13
ENDBRANCH   5   7
ENDBRANCH   2   5
BRANCH   3  17
HETATM   17  C14 UNK     1      18.914  -1.550  15.550  1.00  0.00     0.108 A 
HETATM   18  C15 UNK     1      18.856  -1.304  16.863  1.00  0.00     0.037 A 
HETATM   19  C16 UNK     1      18.992   0.057  17.361  1.00  0.00     0.000 A 
HETATM   20  C17 UNK     1      19.182   1.090  16.450  1.00  0.00     0.089 A 
HETATM   21  C19 UNK     1      18.936   0.360  18.724  1.00  0.00     0.033 A 
HETATM   22  O1  UNK     1      19.243   0.825  15.068  1.00  0.00    -0.274 OA
HETATM   23  C20 UNK     1      19.318   2.415  16.861  1.00  0.00     0.039 A 
HETATM   24  C18 UNK     1      19.115  -0.465  14.562  1.00  0.00     0.304 A 
HETATM   25  O3  UNK     1      19.169  -0.688  13.357  1.00  0.00    -0.259 OA
HETATM   26  C22 UNK     1      19.263   2.709  18.222  1.00  0.00     0.022 A 
HETATM   27  C21 UNK     1      19.073   1.684  19.152  1.00  0.00     0.011 A 
HETATM   28 Br1  UNK     1      18.999   2.090  20.997  1.00  0.00    -0.051 Br
ENDBRANCH   3  17
TORSDOF 4
ENDMDL
MODEL 9
REMARK VINA RESULT:      -7.9     10.879     13.266
REMARK  4 active torsions:
REMARK  status: ('A' for Active; 'I' for Inactive)
REMARK       I    between atoms: C13_18  and  N1_5 
REMARK    1  A    between atoms: C7_12  and  N1_5 
REMARK    2  A    between atoms: C1_6  and  C2_7 
REMARK    3  A    between atoms: C6_11  and  C7_12 
REMARK    4  A    between atoms: C13_18  and  C14_19 
ROOT
HETATM    1  O2  UNK     1      33.856  -5.841  38.196  1.00  0.00    -0.267 OA
HETATM    2  N1  UNK     1      31.930  -5.347  36.980  1.00  0.00    -0.348 N 
HETATM    3  C13 UNK     1      33.250  -5.728  37.132  1.00  0.00     0.258 C 
HETATM    4  H18 UNK     1      31.549  -5.226  36.046  1.00  0.00     0.163 HD
ENDROOT
BRANCH   2   5
HETATM    5  C7  UNK     1      31.069  -5.026  38.096  1.00  0.00     0.114 C 
HETATM    6  C12 UNK     1      30.464  -3.635  37.925  1.00  0.00     0.037 C 
BRANCH   5   7
HETATM    7  C6  UNK     1      30.015  -6.094  38.302  1.00  0.00    -0.036 A 
HETATM    8  C10 UNK     1      28.872  -5.784  39.018  1.00  0.00     0.010 A 
HETATM    9  C8  UNK     1      27.902  -6.767  39.210  1.00  0.00     0.008 A 
HETATM   10  C2  UNK     1      28.090  -8.044  38.681  1.00  0.00    -0.051 A 
HETATM   11  C9  UNK     1      29.248  -8.338  37.962  1.00  0.00     0.008 A 
HETATM   12  C11 UNK     1      30.218  -7.355  37.771  1.00  0.00     0.010 A 
BRANCH  10  13
HETATM   13  C1  UNK     1      27.051  -9.097  38.885  1.00  0.00    -0.024 C 
HETATM   14  C3  UNK     1      25.637  -8.466  39.072  1.00  0.00     0.019 C 
HETATM   15  C4  UNK     1      27.357  -9.954  40.152  1.00  0.00     0.019 C 
HETATM   16  C5  UNK     1      26.897 -10.123  37.715  1.00  0.00     0.019 C 
ENDBRANCH  10  13
ENDBRANCH   5   7
ENDBRANCH   2   5
BRANCH   3  17
HETATM   17  C14 UNK     1      33.916  -6.003  35.853  1.00  0.00     0.108 A 
HETATM   18  C15 UNK     1      34.005  -7.290  35.497  1.00  0.00     0.037 A 
HETATM   19  C16 UNK     1      34.648  -7.662  34.246  1.00  0.00     0.000 A 
HETATM   20  C17 UNK     1      35.164  -6.659  33.431  1.00  0.00     0.089 A 
HETATM   21  C19 UNK     1      34.766  -8.992  33.835  1.00  0.00     0.033 A 
HETATM   22  O1  UNK     1      35.066  -5.307  33.810  1.00  0.00    -0.274 OA
HETATM   23  C20 UNK     1      35.792  -6.948  32.221  1.00  0.00     0.039 A 
HETATM   24  C18 UNK     1      34.458  -4.920  35.001  1.00  0.00     0.304 A 
HETATM   25  O3  UNK     1      34.377  -3.740  35.324  1.00  0.00    -0.259 OA
HETATM   26  C22 UNK     1      35.904  -8.277  31.818  1.00  0.00     0.022 A 
HETATM   27  C21 UNK     1      35.392  -9.297  32.624  1.00  0.00     0.011 A 
HETATM   28 Br1  UNK     1      35.547 -11.099  32.071  1.00  0.00    -0.051 Br
ENDBRANCH   3  17
TORSDOF 4
ENDMDL
MODEL 10
REMARK VINA RESULT:      -7.9     26.663     29.342
REMARK  4 active torsions:
REMARK  status: ('A' for Active; 'I' for Inactive)
REMARK       I    between atoms: C13_18  and  N1_5 
REMARK    1  A    between atoms: C7_12  and  N1_5 
REMARK    2  A    between atoms: C1_6  and  C2_7 
REMARK    3  A    between atoms: C6_11  and  C7_12 
REMARK    4  A    between atoms: C13_18  and  C14_19 
ROOT
HETATM    1  O2  UNK     1      14.188   7.652  10.611  1.00  0.00    -0.267 OA
HETATM    2  N1  UNK     1      15.075   6.616   8.721  1.00  0.00    -0.348 N 
HETATM    3  C13 UNK     1      14.941   7.641   9.639  1.00  0.00     0.258 C 
HETATM    4  H18 UNK     1      15.684   6.742   7.918  1.00  0.00     0.163 HD
ENDROOT
BRANCH   2   5
HETATM    5  C7  UNK     1      14.319   5.386   8.798  1.00  0.00     0.114 C 
HETATM    6  C12 UNK     1      14.602   4.662  10.111  1.00  0.00     0.037 C 
BRANCH   5   7
HETATM    7  C6  UNK     1      12.841   5.635   8.581  1.00  0.00    -0.036 A 
HETATM    8  C10 UNK     1      12.435   6.370   7.481  1.00  0.00     0.010 A 
HETATM    9  C8  UNK     1      11.074   6.601   7.281  1.00  0.00     0.008 A 
HETATM   10  C2  UNK     1      10.141   6.092   8.185  1.00  0.00    -0.051 A 
HETATM   11  C9  UNK     1      10.569   5.354   9.288  1.00  0.00     0.008 A 
HETATM   12  C11 UNK     1      11.930   5.123   9.487  1.00  0.00     0.010 A 
BRANCH  10  13
HETATM   13  C1  UNK     1       8.685   6.338   7.972  1.00  0.00    -0.024 C 
HETATM   14  C3  UNK     1       7.830   5.128   8.458  1.00  0.00     0.019 C 
HETATM   15  C4  UNK     1       8.365   6.566   6.463  1.00  0.00     0.019 C 
HETATM   16  C5  UNK     1       8.100   7.585   8.714  1.00  0.00     0.019 C 
ENDBRANCH  10  13
ENDBRANCH   5   7
ENDBRANCH   2   5
BRANCH   3  17
HETATM   17  C14 UNK     1      15.815   8.784   9.350  1.00  0.00     0.108 A 
HETATM   18  C15 UNK     1      15.245   9.824   8.732  1.00  0.00     0.037 A 
HETATM   19  C16 UNK     1      16.032  11.004   8.405  1.00  0.00     0.000 A 
HETATM   20  C17 UNK     1      17.380  11.030   8.747  1.00  0.00     0.089 A 
HETATM   21  C19 UNK     1      15.479  12.112   7.757  1.00  0.00     0.033 A 
HETATM   22  O1  UNK     1      17.974   9.932   9.399  1.00  0.00    -0.274 OA
HETATM   23  C20 UNK     1      18.188  12.128   8.461  1.00  0.00     0.039 A 
HETATM   24  C18 UNK     1      17.248   8.790   9.724  1.00  0.00     0.304 A 
HETATM   25  O3  UNK     1      17.773   7.839  10.292  1.00  0.00    -0.259 OA
HETATM   26  C22 UNK     1      17.629  13.229   7.816  1.00  0.00     0.022 A 
HETATM   27  C21 UNK     1      16.277  13.222   7.465  1.00  0.00     0.011 A 
HETATM   28 Br1  UNK     1      15.524  14.719   6.591  1.00  0.00    -0.051 Br
ENDBRANCH   3  17
TORSDOF 4
ENDMDL
