MODEL 1
REMARK VINA RESULT:      -8.1      0.000      0.000
REMARK  3 active torsions:
REMARK  status: ('A' for Active; 'I' for Inactive)
REMARK    1  A    between atoms: C14_19  and  O3_3 
REMARK    2  A    between atoms: C8_13  and  O3_3 
REMARK    3  A    between atoms: C3_8  and  C9_14 
ROOT
HETATM    1  N1  UNK     1      20.925  -0.314  31.156  1.00  0.00    -0.195 NA
HETATM    2  C14 UNK     1      19.459   0.724  29.244  1.00  0.00     0.299 C 
HETATM    3  C15 UNK     1      20.276   0.145  30.311  1.00  0.00     0.085 C 
ENDROOT
BRANCH   2   4
HETATM    4  O3  UNK     1      18.297   1.348  29.789  1.00  0.00    -0.338 OA
BRANCH   4   5
HETATM    5  C8  UNK     1      18.451   2.594  30.314  1.00  0.00     0.071 A 
HETATM    6  C10 UNK     1      18.775   3.665  29.479  1.00  0.00     0.039 A 
HETATM    7  C7  UNK     1      18.933   4.945  30.010  1.00  0.00     0.041 A 
HETATM    8  C2  UNK     1      18.767   5.152  31.381  1.00  0.00     0.090 A 
HETATM    9  C1  UNK     1      18.442   4.081  32.213  1.00  0.00     0.051 A 
HETATM   10  O1  UNK     1      18.935   6.432  31.845  1.00  0.00    -0.307 OA
HETATM   11  C4  UNK     1      18.275   4.328  33.653  1.00  0.00     0.187 A 
HETATM   12  C5  UNK     1      18.283   2.799  31.684  1.00  0.00     0.055 A 
HETATM   13  O4  UNK     1      17.993   3.436  34.441  1.00  0.00    -0.287 OA
HETATM   14  C6  UNK     1      18.465   5.722  34.103  1.00  0.00     0.095 A 
HETATM   15  C3  UNK     1      18.770   6.669  33.201  1.00  0.00     0.113 A 
BRANCH  15  16
HETATM   16  C9  UNK     1      18.982   8.077  33.594  1.00  0.00     0.108 A 
HETATM   17  C11 UNK     1      20.060   8.611  34.278  1.00  0.00     0.042 A 
HETATM   18  C12 UNK     1      19.802   9.996  34.418  1.00  0.00     0.027 A 
HETATM   19  C13 UNK     1      18.588  10.222  33.813  1.00  0.00     0.142 A 
HETATM   20  O2  UNK     1      18.082   9.064  33.311  1.00  0.00    -0.320 OA
ENDBRANCH  15  16
ENDBRANCH   4   5
ENDBRANCH   2   4
TORSDOF 3
ENDMDL
MODEL 2
REMARK VINA RESULT:      -8.0      6.154      9.429
REMARK  3 active torsions:
REMARK  status: ('A' for Active; 'I' for Inactive)
REMARK    1  A    between atoms: C14_19  and  O3_3 
REMARK    2  A    between atoms: C8_13  and  O3_3 
REMARK    3  A    between atoms: C3_8  and  C9_14 
ROOT
HETATM    1  N1  UNK     1      18.134   1.898  28.322  1.00  0.00    -0.195 NA
HETATM    2  C14 UNK     1      19.440   0.433  30.062  1.00  0.00     0.299 C 
HETATM    3  C15 UNK     1      18.711   1.251  29.093  1.00  0.00     0.085 C 
ENDROOT
BRANCH   2   4
HETATM    4  O3  UNK     1      18.732   0.378  31.300  1.00  0.00    -0.338 OA
BRANCH   4   5
HETATM    5  C8  UNK     1      19.149  -0.543  32.212  1.00  0.00     0.071 A 
HETATM    6  C10 UNK     1      20.101  -1.497  31.850  1.00  0.00     0.039 A 
HETATM    7  C7  UNK     1      20.533  -2.443  32.779  1.00  0.00     0.041 A 
HETATM    8  C2  UNK     1      20.010  -2.433  34.073  1.00  0.00     0.090 A 
HETATM    9  C1  UNK     1      19.059  -1.479  34.432  1.00  0.00     0.051 A 
HETATM   10  O1  UNK     1      20.473  -3.388  34.942  1.00  0.00    -0.307 OA
HETATM   11  C4  UNK     1      18.523  -1.494  35.802  1.00  0.00     0.187 A 
HETATM   12  C5  UNK     1      18.625  -0.531  33.505  1.00  0.00     0.055 A 
HETATM   13  O4  UNK     1      17.685  -0.689  36.185  1.00  0.00    -0.287 OA
HETATM   14  C6  UNK     1      19.054  -2.539  36.700  1.00  0.00     0.095 A 
HETATM   15  C3  UNK     1      19.975  -3.399  36.237  1.00  0.00     0.113 A 
BRANCH  15  16
HETATM   16  C9  UNK     1      20.533  -4.471  37.085  1.00  0.00     0.108 A 
HETATM   17  C11 UNK     1      19.847  -5.491  37.722  1.00  0.00     0.042 A 
HETATM   18  C12 UNK     1      20.815  -6.258  38.412  1.00  0.00     0.027 A 
HETATM   19  C13 UNK     1      22.029  -5.664  38.156  1.00  0.00     0.142 A 
HETATM   20  O2  UNK     1      21.868  -4.579  37.353  1.00  0.00    -0.320 OA
ENDBRANCH  15  16
ENDBRANCH   4   5
ENDBRANCH   2   4
TORSDOF 3
ENDMDL
MODEL 3
REMARK VINA RESULT:      -7.8      2.958      6.985
REMARK  3 active torsions:
REMARK  status: ('A' for Active; 'I' for Inactive)
REMARK    1  A    between atoms: C14_19  and  O3_3 
REMARK    2  A    between atoms: C8_13  and  O3_3 
REMARK    3  A    between atoms: C3_8  and  C9_14 
ROOT
HETATM    1  N1  UNK     1      14.269   6.973  31.742  1.00  0.00    -0.195 NA
HETATM    2  C14 UNK     1      16.245   7.567  33.361  1.00  0.00     0.299 C 
HETATM    3  C15 UNK     1      15.144   7.235  32.458  1.00  0.00     0.085 C 
ENDROOT
BRANCH   2   4
HETATM    4  O3  UNK     1      17.480   7.611  32.647  1.00  0.00    -0.338 OA
BRANCH   4   5
HETATM    5  C8  UNK     1      17.886   6.462  32.040  1.00  0.00     0.071 A 
HETATM    6  C10 UNK     1      18.378   6.503  30.734  1.00  0.00     0.039 A 
HETATM    7  C7  UNK     1      18.797   5.330  30.106  1.00  0.00     0.041 A 
HETATM    8  C2  UNK     1      18.722   4.115  30.788  1.00  0.00     0.090 A 
HETATM    9  C1  UNK     1      18.231   4.076  32.092  1.00  0.00     0.051 A 
HETATM   10  O1  UNK     1      19.148   2.995  30.119  1.00  0.00    -0.307 OA
HETATM   11  C4  UNK     1      18.162   2.781  32.785  1.00  0.00     0.187 A 
HETATM   12  C5  UNK     1      17.812   5.249  32.723  1.00  0.00     0.055 A 
HETATM   13  O4  UNK     1      17.740   2.673  33.929  1.00  0.00    -0.287 OA
HETATM   14  C6  UNK     1      18.633   1.607  32.024  1.00  0.00     0.095 A 
HETATM   15  C3  UNK     1      19.092   1.774  30.773  1.00  0.00     0.113 A 
BRANCH  15  16
HETATM   16  C9  UNK     1      19.566   0.635  29.960  1.00  0.00     0.108 A 
HETATM   17  C11 UNK     1      20.530  -0.299  30.294  1.00  0.00     0.042 A 
HETATM   18  C12 UNK     1      20.632  -1.183  29.194  1.00  0.00     0.027 A 
HETATM   19  C13 UNK     1      19.727  -0.738  28.260  1.00  0.00     0.142 A 
HETATM   20  O2  UNK     1      19.075   0.365  28.715  1.00  0.00    -0.320 OA
ENDBRANCH  15  16
ENDBRANCH   4   5
ENDBRANCH   2   4
TORSDOF 3
ENDMDL
MODEL 4
REMARK VINA RESULT:      -7.7      2.622      7.072
REMARK  3 active torsions:
REMARK  status: ('A' for Active; 'I' for Inactive)
REMARK    1  A    between atoms: C14_19  and  O3_3 
REMARK    2  A    between atoms: C8_13  and  O3_3 
REMARK    3  A    between atoms: C3_8  and  C9_14 
ROOT
HETATM    1  N1  UNK     1      20.597   9.441  34.511  1.00  0.00    -0.195 NA
HETATM    2  C14 UNK     1      18.522   7.837  34.478  1.00  0.00     0.299 C 
HETATM    3  C15 UNK     1      19.679   8.732  34.496  1.00  0.00     0.085 C 
ENDROOT
BRANCH   2   4
HETATM    4  O3  UNK     1      17.957   7.778  33.169  1.00  0.00    -0.338 OA
BRANCH   4   5
HETATM    5  C8  UNK     1      18.217   6.664  32.432  1.00  0.00     0.071 A 
HETATM    6  C10 UNK     1      18.640   6.790  31.107  1.00  0.00     0.039 A 
HETATM    7  C7  UNK     1      18.908   5.652  30.346  1.00  0.00     0.041 A 
HETATM    8  C2  UNK     1      18.753   4.386  30.914  1.00  0.00     0.090 A 
HETATM    9  C1  UNK     1      18.331   4.263  32.237  1.00  0.00     0.051 A 
HETATM   10  O1  UNK     1      19.032   3.305  30.116  1.00  0.00    -0.307 OA
HETATM   11  C4  UNK     1      18.173   2.916  32.808  1.00  0.00     0.187 A 
HETATM   12  C5  UNK     1      18.062   5.399  33.001  1.00  0.00     0.055 A 
HETATM   13  O4  UNK     1      17.804   2.734  33.960  1.00  0.00    -0.287 OA
HETATM   14  C6  UNK     1      18.487   1.786  31.911  1.00  0.00     0.095 A 
HETATM   15  C3  UNK     1      18.892   2.034  30.655  1.00  0.00     0.113 A 
BRANCH  15  16
HETATM   16  C9  UNK     1      19.209   0.944  29.710  1.00  0.00     0.108 A 
HETATM   17  C11 UNK     1      18.578   0.651  28.514  1.00  0.00     0.042 A 
HETATM   18  C12 UNK     1      19.239  -0.480  27.977  1.00  0.00     0.027 A 
HETATM   19  C13 UNK     1      20.229  -0.806  28.874  1.00  0.00     0.142 A 
HETATM   20  O2  UNK     1      20.219   0.051  29.929  1.00  0.00    -0.320 OA
ENDBRANCH  15  16
ENDBRANCH   4   5
ENDBRANCH   2   4
TORSDOF 3
ENDMDL
MODEL 5
REMARK VINA RESULT:      -7.6      5.320      8.254
REMARK  3 active torsions:
REMARK  status: ('A' for Active; 'I' for Inactive)
REMARK    1  A    between atoms: C14_19  and  O3_3 
REMARK    2  A    between atoms: C8_13  and  O3_3 
REMARK    3  A    between atoms: C3_8  and  C9_14 
ROOT
HETATM    1  N1  UNK     1      22.545  -5.352  38.349  1.00  0.00    -0.195 NA
HETATM    2  C14 UNK     1      20.243  -4.874  37.186  1.00  0.00     0.299 C 
HETATM    3  C15 UNK     1      21.527  -5.140  37.835  1.00  0.00     0.085 C 
ENDROOT
BRANCH   2   4
HETATM    4  O3  UNK     1      19.816  -3.539  37.453  1.00  0.00    -0.338 OA
BRANCH   4   5
HETATM    5  C8  UNK     1      19.586  -2.736  36.378  1.00  0.00     0.071 A 
HETATM    6  C10 UNK     1      18.723  -1.645  36.499  1.00  0.00     0.039 A 
HETATM    7  C7  UNK     1      18.483  -0.817  35.402  1.00  0.00     0.041 A 
HETATM    8  C2  UNK     1      19.109  -1.083  34.183  1.00  0.00     0.090 A 
HETATM    9  C1  UNK     1      19.971  -2.172  34.065  1.00  0.00     0.051 A 
HETATM   10  O1  UNK     1      18.834  -0.234  33.141  1.00  0.00    -0.307 OA
HETATM   11  C4  UNK     1      20.615  -2.430  32.768  1.00  0.00     0.187 A 
HETATM   12  C5  UNK     1      20.213  -3.003  35.161  1.00  0.00     0.055 A 
HETATM   13  O4  UNK     1      21.379  -3.369  32.592  1.00  0.00    -0.287 OA
HETATM   14  C6  UNK     1      20.288  -1.487  31.679  1.00  0.00     0.095 A 
HETATM   15  C3  UNK     1      19.446  -0.469  31.919  1.00  0.00     0.113 A 
BRANCH  15  16
HETATM   16  C9  UNK     1      19.075   0.497  30.866  1.00  0.00     0.108 A 
HETATM   17  C11 UNK     1      19.228   0.357  29.497  1.00  0.00     0.042 A 
HETATM   18  C12 UNK     1      18.729   1.546  28.913  1.00  0.00     0.027 A 
HETATM   19  C13 UNK     1      18.302   2.335  29.955  1.00  0.00     0.142 A 
HETATM   20  O2  UNK     1      18.509   1.708  31.144  1.00  0.00    -0.320 OA
ENDBRANCH  15  16
ENDBRANCH   4   5
ENDBRANCH   2   4
TORSDOF 3
ENDMDL
MODEL 6
REMARK VINA RESULT:      -7.3      2.860      4.603
REMARK  3 active torsions:
REMARK  status: ('A' for Active; 'I' for Inactive)
REMARK    1  A    between atoms: C14_19  and  O3_3 
REMARK    2  A    between atoms: C8_13  and  O3_3 
REMARK    3  A    between atoms: C3_8  and  C9_14 
ROOT
HETATM    1  N1  UNK     1      18.094   2.465  30.792  1.00  0.00    -0.195 NA
HETATM    2  C14 UNK     1      19.151   4.790  30.197  1.00  0.00     0.299 C 
HETATM    3  C15 UNK     1      18.561   3.493  30.530  1.00  0.00     0.085 C 
ENDROOT
BRANCH   2   4
HETATM    4  O3  UNK     1      19.863   5.316  31.316  1.00  0.00    -0.338 OA
BRANCH   4   5
HETATM    5  C8  UNK     1      19.257   6.306  32.027  1.00  0.00     0.071 A 
HETATM    6  C10 UNK     1      19.918   6.888  33.110  1.00  0.00     0.039 A 
HETATM    7  C7  UNK     1      19.303   7.903  33.843  1.00  0.00     0.041 A 
HETATM    8  C2  UNK     1      18.023   8.335  33.490  1.00  0.00     0.090 A 
HETATM    9  C1  UNK     1      17.365   7.752  32.408  1.00  0.00     0.051 A 
HETATM   10  O1  UNK     1      17.469   9.336  34.248  1.00  0.00    -0.307 OA
HETATM   11  C4  UNK     1      16.016   8.225  32.060  1.00  0.00     0.187 A 
HETATM   12  C5  UNK     1      17.978   6.736  31.672  1.00  0.00     0.055 A 
HETATM   13  O4  UNK     1      15.380   7.757  31.126  1.00  0.00    -0.287 OA
HETATM   14  C6  UNK     1      15.465   9.304  32.904  1.00  0.00     0.095 A 
HETATM   15  C3  UNK     1      16.201   9.789  33.917  1.00  0.00     0.113 A 
BRANCH  15  16
HETATM   16  C9  UNK     1      15.697  10.860  34.800  1.00  0.00     0.108 A 
HETATM   17  C11 UNK     1      14.410  11.025  35.280  1.00  0.00     0.042 A 
HETATM   18  C12 UNK     1      14.425  12.193  36.080  1.00  0.00     0.027 A 
HETATM   19  C13 UNK     1      15.716  12.667  36.040  1.00  0.00     0.142 A 
HETATM   20  O2  UNK     1      16.495  11.866  35.266  1.00  0.00    -0.320 OA
ENDBRANCH  15  16
ENDBRANCH   4   5
ENDBRANCH   2   4
TORSDOF 3
ENDMDL
MODEL 7
REMARK VINA RESULT:      -7.2      9.740     12.168
REMARK  3 active torsions:
REMARK  status: ('A' for Active; 'I' for Inactive)
REMARK    1  A    between atoms: C14_19  and  O3_3 
REMARK    2  A    between atoms: C8_13  and  O3_3 
REMARK    3  A    between atoms: C3_8  and  C9_14 
ROOT
HETATM    1  N1  UNK     1      22.580 -10.861  35.203  1.00  0.00    -0.195 NA
HETATM    2  C14 UNK     1      20.657 -10.978  36.984  1.00  0.00     0.299 C 
HETATM    3  C15 UNK     1      21.730 -10.912  35.991  1.00  0.00     0.085 C 
ENDROOT
BRANCH   2   4
HETATM    4  O3  UNK     1      20.829  -9.964  37.972  1.00  0.00    -0.338 OA
BRANCH   4   5
HETATM    5  C8  UNK     1      20.389  -8.714  37.660  1.00  0.00     0.071 A 
HETATM    6  C10 UNK     1      19.125  -8.543  37.095  1.00  0.00     0.039 A 
HETATM    7  C7  UNK     1      18.667  -7.266  36.773  1.00  0.00     0.041 A 
HETATM    8  C2  UNK     1      19.479  -6.157  37.018  1.00  0.00     0.090 A 
HETATM    9  C1  UNK     1      20.742  -6.329  37.583  1.00  0.00     0.051 A 
HETATM   10  O1  UNK     1      18.975  -4.926  36.681  1.00  0.00    -0.307 OA
HETATM   11  C4  UNK     1      21.576  -5.143  37.829  1.00  0.00     0.187 A 
HETATM   12  C5  UNK     1      21.202  -7.607  37.907  1.00  0.00     0.055 A 
HETATM   13  O4  UNK     1      22.695  -5.221  38.319  1.00  0.00    -0.287 OA
HETATM   14  C6  UNK     1      20.989  -3.842  37.450  1.00  0.00     0.095 A 
HETATM   15  C3  UNK     1      19.757  -3.805  36.918  1.00  0.00     0.113 A 
BRANCH  15  16
HETATM   16  C9  UNK     1      19.124  -2.535  36.511  1.00  0.00     0.108 A 
HETATM   17  C11 UNK     1      18.178  -1.801  37.205  1.00  0.00     0.042 A 
HETATM   18  C12 UNK     1      17.882  -0.669  36.408  1.00  0.00     0.027 A 
HETATM   19  C13 UNK     1      18.663  -0.780  35.281  1.00  0.00     0.142 A 
HETATM   20  O2  UNK     1      19.419  -1.909  35.334  1.00  0.00    -0.320 OA
ENDBRANCH  15  16
ENDBRANCH   4   5
ENDBRANCH   2   4
TORSDOF 3
ENDMDL
MODEL 8
REMARK VINA RESULT:      -7.2      3.638      5.098
REMARK  3 active torsions:
REMARK  status: ('A' for Active; 'I' for Inactive)
REMARK    1  A    between atoms: C14_19  and  O3_3 
REMARK    2  A    between atoms: C8_13  and  O3_3 
REMARK    3  A    between atoms: C3_8  and  C9_14 
ROOT
HETATM    1  N1  UNK     1      17.573   2.426  30.757  1.00  0.00    -0.195 NA
HETATM    2  C14 UNK     1      18.862   4.694  31.035  1.00  0.00     0.299 C 
HETATM    3  C15 UNK     1      18.143   3.429  30.881  1.00  0.00     0.085 C 
ENDROOT
BRANCH   2   4
HETATM    4  O3  UNK     1      19.101   4.966  32.415  1.00  0.00    -0.338 OA
BRANCH   4   5
HETATM    5  C8  UNK     1      18.374   5.966  32.984  1.00  0.00     0.071 A 
HETATM    6  C10 UNK     1      18.943   6.755  33.986  1.00  0.00     0.039 A 
HETATM    7  C7  UNK     1      18.204   7.782  34.573  1.00  0.00     0.041 A 
HETATM    8  C2  UNK     1      16.893   8.019  34.156  1.00  0.00     0.090 A 
HETATM    9  C1  UNK     1      16.328   7.230  33.155  1.00  0.00     0.051 A 
HETATM   10  O1  UNK     1      16.217   9.042  34.770  1.00  0.00    -0.307 OA
HETATM   11  C4  UNK     1      14.944   7.501  32.737  1.00  0.00     0.187 A 
HETATM   12  C5  UNK     1      17.065   6.202  32.565  1.00  0.00     0.055 A 
HETATM   13  O4  UNK     1      14.384   6.847  31.867  1.00  0.00    -0.287 OA
HETATM   14  C6  UNK     1      14.259   8.613  33.426  1.00  0.00     0.095 A 
HETATM   15  C3  UNK     1      14.914   9.305  34.372  1.00  0.00     0.113 A 
BRANCH  15  16
HETATM   16  C9  UNK     1      14.277  10.419  35.102  1.00  0.00     0.108 A 
HETATM   17  C11 UNK     1      13.464  11.413  34.586  1.00  0.00     0.042 A 
HETATM   18  C12 UNK     1      13.105  12.245  35.673  1.00  0.00     0.027 A 
HETATM   19  C13 UNK     1      13.717  11.710  36.782  1.00  0.00     0.142 A 
HETATM   20  O2  UNK     1      14.431  10.603  36.446  1.00  0.00    -0.320 OA
ENDBRANCH  15  16
ENDBRANCH   4   5
ENDBRANCH   2   4
TORSDOF 3
ENDMDL
MODEL 9
REMARK VINA RESULT:      -7.2      3.229      4.472
REMARK  3 active torsions:
REMARK  status: ('A' for Active; 'I' for Inactive)
REMARK    1  A    between atoms: C14_19  and  O3_3 
REMARK    2  A    between atoms: C8_13  and  O3_3 
REMARK    3  A    between atoms: C3_8  and  C9_14 
ROOT
HETATM    1  N1  UNK     1      21.687  -1.909  35.533  1.00  0.00    -0.195 NA
HETATM    2  C14 UNK     1      19.174  -2.136  36.252  1.00  0.00     0.299 C 
HETATM    3  C15 UNK     1      20.575  -2.009  35.851  1.00  0.00     0.085 C 
ENDROOT
BRANCH   2   4
HETATM    4  O3  UNK     1      18.315  -1.638  35.228  1.00  0.00    -0.338 OA
BRANCH   4   5
HETATM    5  C8  UNK     1      18.307  -0.292  35.025  1.00  0.00     0.071 A 
HETATM    6  C10 UNK     1      18.302   0.575  36.119  1.00  0.00     0.039 A 
HETATM    7  C7  UNK     1      18.296   1.955  35.919  1.00  0.00     0.041 A 
HETATM    8  C2  UNK     1      18.293   2.467  34.620  1.00  0.00     0.090 A 
HETATM    9  C1  UNK     1      18.298   1.599  33.529  1.00  0.00     0.051 A 
HETATM   10  O1  UNK     1      18.286   3.833  34.486  1.00  0.00    -0.307 OA
HETATM   11  C4  UNK     1      18.293   2.166  32.172  1.00  0.00     0.187 A 
HETATM   12  C5  UNK     1      18.306   0.217  33.727  1.00  0.00     0.055 A 
HETATM   13  O4  UNK     1      18.295   1.464  31.170  1.00  0.00    -0.287 OA
HETATM   14  C6  UNK     1      18.287   3.640  32.081  1.00  0.00     0.095 A 
HETATM   15  C3  UNK     1      18.290   4.370  33.208  1.00  0.00     0.113 A 
BRANCH  15  16
HETATM   16  C9  UNK     1      18.273   5.847  33.177  1.00  0.00     0.108 A 
HETATM   17  C11 UNK     1      19.229   6.714  33.676  1.00  0.00     0.042 A 
HETATM   18  C12 UNK     1      18.763   8.023  33.410  1.00  0.00     0.027 A 
HETATM   19  C13 UNK     1      17.556   7.877  32.767  1.00  0.00     0.142 A 
HETATM   20  O2  UNK     1      17.250   6.560  32.622  1.00  0.00    -0.320 OA
ENDBRANCH  15  16
ENDBRANCH   4   5
ENDBRANCH   2   4
TORSDOF 3
ENDMDL
MODEL 10
REMARK VINA RESULT:      -7.0      5.666      7.475
REMARK  3 active torsions:
REMARK  status: ('A' for Active; 'I' for Inactive)
REMARK    1  A    between atoms: C14_19  and  O3_3 
REMARK    2  A    between atoms: C8_13  and  O3_3 
REMARK    3  A    between atoms: C3_8  and  C9_14 
ROOT
HETATM    1  N1  UNK     1      22.749  -5.385  38.453  1.00  0.00    -0.195 NA
HETATM    2  C14 UNK     1      20.407  -5.248  37.281  1.00  0.00     0.299 C 
HETATM    3  C15 UNK     1      21.713  -5.324  37.935  1.00  0.00     0.085 C 
ENDROOT
BRANCH   2   4
HETATM    4  O3  UNK     1      19.683  -4.108  37.742  1.00  0.00    -0.338 OA
BRANCH   4   5
HETATM    5  C8  UNK     1      19.514  -3.083  36.862  1.00  0.00     0.071 A 
HETATM    6  C10 UNK     1      20.038  -3.182  35.572  1.00  0.00     0.039 A 
HETATM    7  C7  UNK     1      19.868  -2.137  34.664  1.00  0.00     0.041 A 
HETATM    8  C2  UNK     1      19.171  -0.991  35.050  1.00  0.00     0.090 A 
HETATM    9  C1  UNK     1      18.647  -0.894  36.338  1.00  0.00     0.051 A 
HETATM   10  O1  UNK     1      19.035   0.003  34.114  1.00  0.00    -0.307 OA
HETATM   11  C4  UNK     1      17.919   0.326  36.718  1.00  0.00     0.187 A 
HETATM   12  C5  UNK     1      18.816  -1.939  37.249  1.00  0.00     0.055 A 
HETATM   13  O4  UNK     1      17.436   0.479  37.832  1.00  0.00    -0.287 OA
HETATM   14  C6  UNK     1      17.799   1.365  35.676  1.00  0.00     0.095 A 
HETATM   15  C3  UNK     1      18.342   1.152  34.467  1.00  0.00     0.113 A 
BRANCH  15  16
HETATM   16  C9  UNK     1      18.263   2.159  33.390  1.00  0.00     0.108 A 
HETATM   17  C11 UNK     1      18.199   3.535  33.523  1.00  0.00     0.042 A 
HETATM   18  C12 UNK     1      18.134   4.063  32.211  1.00  0.00     0.027 A 
HETATM   19  C13 UNK     1      18.163   2.982  31.361  1.00  0.00     0.142 A 
HETATM   20  O2  UNK     1      18.240   1.823  32.067  1.00  0.00    -0.320 OA
ENDBRANCH  15  16
ENDBRANCH   4   5
ENDBRANCH   2   4
TORSDOF 3
ENDMDL
