MODEL 1
REMARK VINA RESULT:      -7.4      0.000      0.000
REMARK  2 active torsions:
REMARK  status: ('A' for Active; 'I' for Inactive)
REMARK    1  A    between atoms: C12_16  and  O2_2 
REMARK    2  A    between atoms: C5_9  and  O2_2 
ROOT
HETATM    1  O1  UNK     1      19.279  -0.368  32.849  1.00  0.00    -0.274 OA
HETATM    2  O3  UNK     1      20.110  -2.461  33.252  1.00  0.00    -0.260 OA
HETATM    3  C1  UNK     1      19.421   0.560  30.595  1.00  0.00     0.005 A 
HETATM    4  C2  UNK     1      19.042   0.675  31.932  1.00  0.00     0.099 A 
HETATM    5  C3  UNK     1      18.411   1.815  32.433  1.00  0.00     0.007 A 
HETATM    6  C4  UNK     1      20.080  -0.677  30.153  1.00  0.00    -0.043 A 
HETATM    7  C5  UNK     1      18.149   2.877  31.575  1.00  0.00     0.087 A 
HETATM    8  C6  UNK     1      19.148   1.642  29.746  1.00  0.00     0.017 A 
HETATM    9  C7  UNK     1      18.517   2.791  30.234  1.00  0.00     0.039 A 
HETATM   10  C8  UNK     1      18.019   1.899  33.873  1.00  0.00     0.054 C 
HETATM   11  C9  UNK     1      20.294  -1.652  31.048  1.00  0.00     0.090 A 
HETATM   12  C10 UNK     1      20.501  -0.832  28.722  1.00  0.00     0.049 C 
HETATM   13  C11 UNK     1      19.899  -1.547  32.462  1.00  0.00     0.288 A 
ENDROOT
BRANCH   7  14
HETATM   14  O2  UNK     1      17.536   4.008  32.027  1.00  0.00    -0.279 OA
BRANCH  14  15
HETATM   15  C12 UNK     1      18.351   5.150  32.000  1.00  0.00     0.260 C 
HETATM   16  O4  UNK     1      18.573   5.850  31.021  1.00  0.00    -0.265 OA
HETATM   17  C13 UNK     1      18.927   5.402  33.363  1.00  0.00     0.126 C 
ENDBRANCH  14  15
ENDBRANCH   7  14
TORSDOF 2
ENDMDL
MODEL 2
REMARK VINA RESULT:      -7.2      2.102      5.220
REMARK  2 active torsions:
REMARK  status: ('A' for Active; 'I' for Inactive)
REMARK    1  A    between atoms: C12_16  and  O2_2 
REMARK    2  A    between atoms: C5_9  and  O2_2 
ROOT
HETATM    1  O1  UNK     1      18.472   1.181  31.731  1.00  0.00    -0.274 OA
HETATM    2  O3  UNK     1      18.045   2.781  30.154  1.00  0.00    -0.260 OA
HETATM    3  C1  UNK     1      19.896  -0.717  31.152  1.00  0.00     0.005 A 
HETATM    4  C2  UNK     1      19.111  -0.027  32.076  1.00  0.00     0.099 A 
HETATM    5  C3  UNK     1      18.916  -0.486  33.380  1.00  0.00     0.007 A 
HETATM    6  C4  UNK     1      20.047  -0.160  29.800  1.00  0.00    -0.043 A 
HETATM    7  C5  UNK     1      19.523  -1.672  33.778  1.00  0.00     0.087 A 
HETATM    8  C6  UNK     1      20.498  -1.910  31.573  1.00  0.00     0.017 A 
HETATM    9  C7  UNK     1      20.312  -2.383  32.877  1.00  0.00     0.039 A 
HETATM   10  C8  UNK     1      18.068   0.282  34.340  1.00  0.00     0.054 C 
HETATM   11  C9  UNK     1      19.426   0.990  29.500  1.00  0.00     0.090 A 
HETATM   12  C10 UNK     1      20.884  -0.877  28.783  1.00  0.00     0.049 C 
HETATM   13  C11 UNK     1      18.595   1.731  30.464  1.00  0.00     0.288 A 
ENDROOT
BRANCH   7  14
HETATM   14  O2  UNK     1      19.356  -2.154  35.042  1.00  0.00    -0.279 OA
BRANCH  14  15
HETATM   15  C12 UNK     1      20.534  -2.183  35.804  1.00  0.00     0.260 C 
HETATM   16  O4  UNK     1      21.498  -1.443  35.661  1.00  0.00    -0.265 OA
HETATM   17  C13 UNK     1      20.451  -3.268  36.837  1.00  0.00     0.126 C 
ENDBRANCH  14  15
ENDBRANCH   7  14
TORSDOF 2
ENDMDL
MODEL 3
REMARK VINA RESULT:      -7.1      1.757      2.839
REMARK  2 active torsions:
REMARK  status: ('A' for Active; 'I' for Inactive)
REMARK    1  A    between atoms: C12_16  and  O2_2 
REMARK    2  A    between atoms: C5_9  and  O2_2 
ROOT
HETATM    1  O1  UNK     1      19.610   0.946  29.439  1.00  0.00    -0.274 OA
HETATM    2  O3  UNK     1      20.577  -0.733  28.223  1.00  0.00    -0.260 OA
HETATM    3  C1  UNK     1      19.072   0.562  31.790  1.00  0.00     0.005 A 
HETATM    4  C2  UNK     1      19.090   1.394  30.670  1.00  0.00     0.099 A 
HETATM    5  C3  UNK     1      18.603   2.701  30.703  1.00  0.00     0.007 A 
HETATM    6  C4  UNK     1      19.607  -0.801  31.664  1.00  0.00    -0.043 A 
HETATM    7  C5  UNK     1      18.078   3.199  31.891  1.00  0.00     0.087 A 
HETATM    8  C6  UNK     1      18.539   1.082  32.977  1.00  0.00     0.017 A 
HETATM    9  C7  UNK     1      18.046   2.391  33.026  1.00  0.00     0.039 A 
HETATM   10  C8  UNK     1      18.640   3.561  29.482  1.00  0.00     0.054 C 
HETATM   11  C9  UNK     1      20.094  -1.199  30.480  1.00  0.00     0.090 A 
HETATM   12  C10 UNK     1      19.602  -1.720  32.850  1.00  0.00     0.049 C 
HETATM   13  C11 UNK     1      20.122  -0.334  29.289  1.00  0.00     0.288 A 
ENDROOT
BRANCH   7  14
HETATM   14  O2  UNK     1      17.591   4.470  31.964  1.00  0.00    -0.279 OA
BRANCH  14  15
HETATM   15  C12 UNK     1      18.257   5.286  32.891  1.00  0.00     0.260 C 
HETATM   16  O4  UNK     1      17.882   5.531  34.030  1.00  0.00    -0.265 OA
HETATM   17  C13 UNK     1      19.517   5.829  32.284  1.00  0.00     0.126 C 
ENDBRANCH  14  15
ENDBRANCH   7  14
TORSDOF 2
ENDMDL
MODEL 4
REMARK VINA RESULT:      -7.0      1.524      5.485
REMARK  2 active torsions:
REMARK  status: ('A' for Active; 'I' for Inactive)
REMARK    1  A    between atoms: C12_16  and  O2_2 
REMARK    2  A    between atoms: C5_9  and  O2_2 
ROOT
HETATM    1  O1  UNK     1      17.945   4.118  33.478  1.00  0.00    -0.274 OA
HETATM    2  O3  UNK     1      17.526   6.165  34.408  1.00  0.00    -0.260 OA
HETATM    3  C1  UNK     1      18.580   3.983  31.123  1.00  0.00     0.005 A 
HETATM    4  C2  UNK     1      18.309   3.364  32.343  1.00  0.00     0.099 A 
HETATM    5  C3  UNK     1      18.383   1.980  32.511  1.00  0.00     0.007 A 
HETATM    6  C4  UNK     1      18.479   5.447  31.037  1.00  0.00    -0.043 A 
HETATM    7  C5  UNK     1      18.737   1.184  31.428  1.00  0.00     0.087 A 
HETATM    8  C6  UNK     1      18.936   3.163  30.044  1.00  0.00     0.017 A 
HETATM    9  C7  UNK     1      19.013   1.774  30.196  1.00  0.00     0.039 A 
HETATM   10  C8  UNK     1      18.085   1.356  33.835  1.00  0.00     0.054 C 
HETATM   11  C9  UNK     1      18.129   6.138  32.132  1.00  0.00     0.090 A 
HETATM   12  C10 UNK     1      18.764   6.142  29.739  1.00  0.00     0.049 C 
HETATM   13  C11 UNK     1      17.841   5.500  33.427  1.00  0.00     0.288 A 
ENDROOT
BRANCH   7  14
HETATM   14  O2  UNK     1      18.819  -0.171  31.551  1.00  0.00    -0.279 OA
BRANCH  14  15
HETATM   15  C12 UNK     1      20.074  -0.701  31.216  1.00  0.00     0.260 C 
HETATM   16  O4  UNK     1      21.146  -0.117  31.303  1.00  0.00    -0.265 OA
HETATM   17  C13 UNK     1      19.921  -2.110  30.723  1.00  0.00     0.126 C 
ENDBRANCH  14  15
ENDBRANCH   7  14
TORSDOF 2
ENDMDL
MODEL 5
REMARK VINA RESULT:      -6.8      2.323      5.264
REMARK  2 active torsions:
REMARK  status: ('A' for Active; 'I' for Inactive)
REMARK    1  A    between atoms: C12_16  and  O2_2 
REMARK    2  A    between atoms: C5_9  and  O2_2 
ROOT
HETATM    1  O1  UNK     1      18.730   0.792  30.715  1.00  0.00    -0.274 OA
HETATM    2  O3  UNK     1      18.776   1.539  28.554  1.00  0.00    -0.260 OA
HETATM    3  C1  UNK     1      18.348   2.389  32.523  1.00  0.00     0.005 A 
HETATM    4  C2  UNK     1      18.583   1.086  32.086  1.00  0.00     0.099 A 
HETATM    5  C3  UNK     1      18.682   0.009  32.969  1.00  0.00     0.007 A 
HETATM    6  C4  UNK     1      18.256   3.462  31.523  1.00  0.00    -0.043 A 
HETATM    7  C5  UNK     1      18.544   0.237  34.334  1.00  0.00     0.087 A 
HETATM    8  C6  UNK     1      18.211   2.597  33.903  1.00  0.00     0.017 A 
HETATM    9  C7  UNK     1      18.309   1.528  34.800  1.00  0.00     0.039 A 
HETATM   10  C8  UNK     1      18.935  -1.373  32.461  1.00  0.00     0.054 C 
HETATM   11  C9  UNK     1      18.402   3.154  30.227  1.00  0.00     0.090 A 
HETATM   12  C10 UNK     1      18.004   4.875  31.961  1.00  0.00     0.049 C 
HETATM   13  C11 UNK     1      18.650   1.783  29.749  1.00  0.00     0.288 A 
ENDROOT
BRANCH   7  14
HETATM   14  O2  UNK     1      18.637  -0.788  35.228  1.00  0.00    -0.279 OA
BRANCH  14  15
HETATM   15  C12 UNK     1      17.433  -1.083  35.887  1.00  0.00     0.260 C 
HETATM   16  O4  UNK     1      16.352  -1.282  35.349  1.00  0.00    -0.265 OA
HETATM   17  C13 UNK     1      17.656  -1.120  37.370  1.00  0.00     0.126 C 
ENDBRANCH  14  15
ENDBRANCH   7  14
TORSDOF 2
ENDMDL
MODEL 6
REMARK VINA RESULT:      -6.8      1.860      3.520
REMARK  2 active torsions:
REMARK  status: ('A' for Active; 'I' for Inactive)
REMARK    1  A    between atoms: C12_16  and  O2_2 
REMARK    2  A    between atoms: C5_9  and  O2_2 
ROOT
HETATM    1  O1  UNK     1      18.542   0.565  32.006  1.00  0.00    -0.274 OA
HETATM    2  O3  UNK     1      18.723  -1.693  32.323  1.00  0.00    -0.260 OA
HETATM    3  C1  UNK     1      18.327   2.031  33.948  1.00  0.00     0.005 A 
HETATM    4  C2  UNK     1      18.405   1.851  32.567  1.00  0.00     0.099 A 
HETATM    5  C3  UNK     1      18.356   2.921  31.671  1.00  0.00     0.007 A 
HETATM    6  C4  UNK     1      18.389   0.848  34.817  1.00  0.00    -0.043 A 
HETATM    7  C5  UNK     1      18.222   4.213  32.165  1.00  0.00     0.087 A 
HETATM    8  C6  UNK     1      18.193   3.342  34.426  1.00  0.00     0.017 A 
HETATM    9  C7  UNK     1      18.141   4.424  33.540  1.00  0.00     0.039 A 
HETATM   10  C8  UNK     1      18.443   2.686  30.198  1.00  0.00     0.054 C 
HETATM   11  C9  UNK     1      18.518  -0.363  34.256  1.00  0.00     0.090 A 
HETATM   12  C10 UNK     1      18.307   1.007  36.306  1.00  0.00     0.049 C 
HETATM   13  C11 UNK     1      18.603  -0.570  32.800  1.00  0.00     0.288 A 
ENDROOT
BRANCH   7  14
HETATM   14  O2  UNK     1      18.168   5.284  31.323  1.00  0.00    -0.279 OA
BRANCH  14  15
HETATM   15  C12 UNK     1      19.291   6.123  31.392  1.00  0.00     0.260 C 
HETATM   16  O4  UNK     1      19.524   6.937  32.275  1.00  0.00    -0.265 OA
HETATM   17  C13 UNK     1      20.184   5.883  30.210  1.00  0.00     0.126 C 
ENDBRANCH  14  15
ENDBRANCH   7  14
TORSDOF 2
ENDMDL
MODEL 7
REMARK VINA RESULT:      -6.8      2.372      4.766
REMARK  2 active torsions:
REMARK  status: ('A' for Active; 'I' for Inactive)
REMARK    1  A    between atoms: C12_16  and  O2_2 
REMARK    2  A    between atoms: C5_9  and  O2_2 
ROOT
HETATM    1  O1  UNK     1      18.616   1.672  31.184  1.00  0.00    -0.274 OA
HETATM    2  O3  UNK     1      18.680   2.677  29.131  1.00  0.00    -0.260 OA
HETATM    3  C1  UNK     1      19.504  -0.590  31.435  1.00  0.00     0.005 A 
HETATM    4  C2  UNK     1      18.900   0.544  31.980  1.00  0.00     0.099 A 
HETATM    5  C3  UNK     1      18.548   0.627  33.329  1.00  0.00     0.007 A 
HETATM    6  C4  UNK     1      19.841  -0.589  30.005  1.00  0.00    -0.043 A 
HETATM    7  C5  UNK     1      18.805  -0.455  34.164  1.00  0.00     0.087 A 
HETATM    8  C6  UNK     1      19.754  -1.669  32.294  1.00  0.00     0.017 A 
HETATM    9  C7  UNK     1      19.406  -1.601  33.647  1.00  0.00     0.039 A 
HETATM   10  C8  UNK     1      17.903   1.859  33.874  1.00  0.00     0.054 C 
HETATM   11  C9  UNK     1      19.558   0.497  29.272  1.00  0.00     0.090 A 
HETATM   12  C10 UNK     1      20.491  -1.793  29.388  1.00  0.00     0.049 C 
HETATM   13  C11 UNK     1      18.922   1.701  29.832  1.00  0.00     0.288 A 
ENDROOT
BRANCH   7  14
HETATM   14  O2  UNK     1      18.475  -0.413  35.486  1.00  0.00    -0.279 OA
BRANCH  14  15
HETATM   15  C12 UNK     1      17.383  -1.226  35.829  1.00  0.00     0.260 C 
HETATM   16  O4  UNK     1      16.282  -1.209  35.296  1.00  0.00    -0.265 OA
HETATM   17  C13 UNK     1      17.757  -2.135  36.962  1.00  0.00     0.126 C 
ENDBRANCH  14  15
ENDBRANCH   7  14
TORSDOF 2
ENDMDL
MODEL 8
REMARK VINA RESULT:      -6.8      3.376      8.185
REMARK  2 active torsions:
REMARK  status: ('A' for Active; 'I' for Inactive)
REMARK    1  A    between atoms: C12_16  and  O2_2 
REMARK    2  A    between atoms: C5_9  and  O2_2 
ROOT
HETATM    1  O1  UNK     1      16.704   9.022  33.306  1.00  0.00    -0.274 OA
HETATM    2  O3  UNK     1      16.251  11.187  33.887  1.00  0.00    -0.260 OA
HETATM    3  C1  UNK     1      18.958   8.142  33.641  1.00  0.00     0.005 A 
HETATM    4  C2  UNK     1      17.639   7.970  33.221  1.00  0.00     0.099 A 
HETATM    5  C3  UNK     1      17.172   6.762  32.701  1.00  0.00     0.007 A 
HETATM    6  C4  UNK     1      19.362   9.449  34.177  1.00  0.00    -0.043 A 
HETATM    7  C5  UNK     1      18.049   5.687  32.593  1.00  0.00     0.087 A 
HETATM    8  C6  UNK     1      19.825   7.047  33.524  1.00  0.00     0.017 A 
HETATM    9  C7  UNK     1      19.372   5.829  33.004  1.00  0.00     0.039 A 
HETATM   10  C8  UNK     1      15.752   6.618  32.262  1.00  0.00     0.054 C 
HETATM   11  C9  UNK     1      18.452  10.431  34.245  1.00  0.00     0.090 A 
HETATM   12  C10 UNK     1      20.773   9.666  34.637  1.00  0.00     0.049 C 
HETATM   13  C11 UNK     1      17.056  10.266  33.807  1.00  0.00     0.288 A 
ENDROOT
BRANCH   7  14
HETATM   14  O2  UNK     1      17.632   4.491  32.089  1.00  0.00    -0.279 OA
BRANCH  14  15
HETATM   15  C12 UNK     1      18.385   4.038  30.995  1.00  0.00     0.260 C 
HETATM   16  O4  UNK     1      18.851   4.738  30.106  1.00  0.00    -0.265 OA
HETATM   17  C13 UNK     1      18.545   2.548  31.064  1.00  0.00     0.126 C 
ENDBRANCH  14  15
ENDBRANCH   7  14
TORSDOF 2
ENDMDL
MODEL 9
REMARK VINA RESULT:      -6.7      3.813      7.879
REMARK  2 active torsions:
REMARK  status: ('A' for Active; 'I' for Inactive)
REMARK    1  A    between atoms: C12_16  and  O2_2 
REMARK    2  A    between atoms: C5_9  and  O2_2 
ROOT
HETATM    1  O1  UNK     1      18.947  -0.302  33.984  1.00  0.00    -0.274 OA
HETATM    2  O3  UNK     1      18.132   1.511  32.852  1.00  0.00    -0.260 OA
HETATM    3  C1  UNK     1      18.395  -0.583  36.346  1.00  0.00     0.005 A 
HETATM    4  C2  UNK     1      19.038  -1.025  35.190  1.00  0.00     0.099 A 
HETATM    5  C3  UNK     1      19.799  -2.195  35.160  1.00  0.00     0.007 A 
HETATM    6  C4  UNK     1      17.613   0.660  36.286  1.00  0.00    -0.043 A 
HETATM    7  C5  UNK     1      19.925  -2.952  36.321  1.00  0.00     0.087 A 
HETATM    8  C6  UNK     1      18.533  -1.360  37.504  1.00  0.00     0.017 A 
HETATM    9  C7  UNK     1      19.293  -2.535  37.491  1.00  0.00     0.039 A 
HETATM   10  C8  UNK     1      20.473  -2.635  33.902  1.00  0.00     0.054 C 
HETATM   11  C9  UNK     1      17.546   1.327  35.125  1.00  0.00     0.090 A 
HETATM   12  C10 UNK     1      16.909   1.162  37.512  1.00  0.00     0.049 C 
HETATM   13  C11 UNK     1      18.218   0.874  33.896  1.00  0.00     0.288 A 
ENDROOT
BRANCH   7  14
HETATM   14  O2  UNK     1      20.660  -4.099  36.332  1.00  0.00    -0.279 OA
BRANCH  14  15
HETATM   15  C12 UNK     1      19.964  -5.220  36.811  1.00  0.00     0.260 C 
HETATM   16  O4  UNK     1      18.906  -5.648  36.371  1.00  0.00    -0.265 OA
HETATM   17  C13 UNK     1      20.707  -5.833  37.962  1.00  0.00     0.126 C 
ENDBRANCH  14  15
ENDBRANCH   7  14
TORSDOF 2
ENDMDL
MODEL 10
REMARK VINA RESULT:      -6.7     22.353     24.088
REMARK  2 active torsions:
REMARK  status: ('A' for Active; 'I' for Inactive)
REMARK    1  A    between atoms: C12_16  and  O2_2 
REMARK    2  A    between atoms: C5_9  and  O2_2 
ROOT
HETATM    1  O1  UNK     1      14.412   5.471   8.978  1.00  0.00    -0.274 OA
HETATM    2  O3  UNK     1      16.499   4.659   9.442  1.00  0.00    -0.260 OA
HETATM    3  C1  UNK     1      13.711   7.596   9.956  1.00  0.00     0.005 A 
HETATM    4  C2  UNK     1      13.449   6.485   9.155  1.00  0.00     0.099 A 
HETATM    5  C3  UNK     1      12.234   6.315   8.489  1.00  0.00     0.007 A 
HETATM    6  C4  UNK     1      15.019   7.694  10.619  1.00  0.00    -0.043 A 
HETATM    7  C5  UNK     1      11.245   7.283   8.625  1.00  0.00     0.087 A 
HETATM    8  C6  UNK     1      12.702   8.561  10.080  1.00  0.00     0.017 A 
HETATM    9  C7  UNK     1      11.478   8.404   9.420  1.00  0.00     0.039 A 
HETATM   10  C8  UNK     1      11.991   5.110   7.639  1.00  0.00     0.054 C 
HETATM   11  C9  UNK     1      15.914   6.714  10.433  1.00  0.00     0.090 A 
HETATM   12  C10 UNK     1      15.332   8.876  11.487  1.00  0.00     0.049 C 
HETATM   13  C11 UNK     1      15.654   5.535   9.590  1.00  0.00     0.288 A 
ENDROOT
BRANCH   7  14
HETATM   14  O2  UNK     1      10.045   7.152   7.992  1.00  0.00    -0.279 OA
BRANCH  14  15
HETATM   15  C12 UNK     1       8.994   6.758   8.835  1.00  0.00     0.260 C 
HETATM   16  O4  UNK     1       9.060   5.910   9.715  1.00  0.00    -0.265 OA
HETATM   17  C13 UNK     1       7.751   7.531   8.502  1.00  0.00     0.126 C 
ENDBRANCH  14  15
ENDBRANCH   7  14
TORSDOF 2
ENDMDL
