MODEL 1
REMARK VINA RESULT:      -8.4      0.000      0.000
REMARK  7 active torsions:
REMARK  status: ('A' for Active; 'I' for Inactive)
REMARK    1  A    between atoms: C12_21  and  O2_3 
REMARK    2  A    between atoms: C14_23  and  O5_6 
REMARK    3  A    between atoms: C21_30  and  O5_6 
REMARK    4  A    between atoms: C12_21  and  C2_11 
REMARK    5  A    between atoms: C11_20  and  C6_15 
REMARK    6  A    between atoms: C14_23  and  C8_17 
REMARK    7  A    between atoms: C21_30  and  C24_33 
ROOT
HETATM    1  O1  UNK     1      29.008  -9.434  36.458  1.00  0.00    -0.292 OA
HETATM    2  N1  UNK     1      30.422  -5.048  37.550  1.00  0.00    -0.362 N 
HETATM    3  C1  UNK     1      27.727  -7.238  39.043  1.00  0.00     0.008 C 
HETATM    4  C2  UNK     1      28.299  -8.589  38.593  1.00  0.00     0.164 C 
HETATM    5  C3  UNK     1      28.858  -6.198  39.055  1.00  0.00     0.063 C 
HETATM    6  C4  UNK     1      29.697  -7.210  36.907  1.00  0.00     0.025 C 
HETATM    7  C5  UNK     1      29.672  -6.184  37.785  1.00  0.00     0.020 C 
HETATM    8  C6  UNK     1      30.488  -7.113  35.604  1.00  0.00     0.104 C 
HETATM    9  C7  UNK     1      28.981  -8.483  37.239  1.00  0.00     0.172 C 
HETATM   10  C8  UNK     1      31.413  -5.894  35.574  1.00  0.00     0.052 C 
HETATM   11  C9  UNK     1      26.546  -6.759  38.185  1.00  0.00     0.011 C 
HETATM   12  C10 UNK     1      31.324  -4.916  36.506  1.00  0.00     0.018 C 
HETATM   13  C13 UNK     1      32.144  -3.655  36.529  1.00  0.00     0.069 C 
HETATM   14  H9  UNK     1      30.382  -4.303  38.236  1.00  0.00     0.165 HD
ENDROOT
BRANCH   8  15
HETATM   15  C11 UNK     1      29.553  -7.087  34.419  1.00  0.00     0.029 A 
HETATM   16  C15 UNK     1      29.762  -8.073  33.329  1.00  0.00     0.194 A 
HETATM   17  O7  UNK     1      30.663  -8.901  33.364  1.00  0.00    -0.287 OA
HETATM   18  C17 UNK     1      28.821  -8.004  32.196  1.00  0.00     0.050 A 
HETATM   19  C18 UNK     1      27.813  -7.040  32.210  1.00  0.00     0.089 A 
HETATM   20  C19 UNK     1      28.934  -8.888  31.121  1.00  0.00     0.042 A 
HETATM   21  O3  UNK     1      27.655  -6.146  33.240  1.00  0.00    -0.321 OA
HETATM   22  C22 UNK     1      26.911  -6.956  31.149  1.00  0.00     0.040 A 
HETATM   23  C16 UNK     1      28.539  -6.223  34.288  1.00  0.00     0.154 A 
HETATM   24  C25 UNK     1      27.022  -7.838  30.073  1.00  0.00     0.026 A 
HETATM   25  C23 UNK     1      28.031  -8.802  30.060  1.00  0.00     0.035 A 
HETATM   26 Cl1  UNK     1      28.162  -9.888  28.731  1.00  0.00    -0.084 Cl
ENDBRANCH   8  15
BRANCH  10  27
HETATM   27  C14 UNK     1      32.438  -5.867  34.519  1.00  0.00     0.292 C 
HETATM   28  O6  UNK     1      32.313  -5.243  33.482  1.00  0.00    -0.259 OA
BRANCH  27  29
HETATM   29  O5  UNK     1      33.482  -6.632  34.917  1.00  0.00    -0.318 OA
BRANCH  29  30
HETATM   30  C21 UNK     1      34.740  -5.953  34.988  1.00  0.00     0.178 C 
BRANCH  30  31
HETATM   31  C24 UNK     1      35.152  -5.830  36.447  1.00  0.00     0.022 C 
HETATM   32  C26 UNK     1      34.408  -6.818  37.328  1.00  0.00     0.007 C 
ENDBRANCH  30  31
ENDBRANCH  29  30
ENDBRANCH  27  29
ENDBRANCH  10  27
BRANCH   4  33
HETATM   33  C12 UNK     1      27.251  -9.658  38.660  1.00  0.00     0.270 C 
HETATM   34  O4  UNK     1      26.593 -10.034  37.699  1.00  0.00    -0.264 OA
BRANCH  33  35
HETATM   35  O2  UNK     1      27.157 -10.125  39.938  1.00  0.00    -0.326 OA
HETATM   36  C20 UNK     1      28.402 -10.422  40.578  1.00  0.00     0.213 C 
ENDBRANCH  33  35
ENDBRANCH   4  33
TORSDOF 7
ENDMDL
MODEL 2
REMARK VINA RESULT:      -8.2      1.319      2.023
REMARK  7 active torsions:
REMARK  status: ('A' for Active; 'I' for Inactive)
REMARK    1  A    between atoms: C12_21  and  O2_3 
REMARK    2  A    between atoms: C14_23  and  O5_6 
REMARK    3  A    between atoms: C21_30  and  O5_6 
REMARK    4  A    between atoms: C12_21  and  C2_11 
REMARK    5  A    between atoms: C11_20  and  C6_15 
REMARK    6  A    between atoms: C14_23  and  C8_17 
REMARK    7  A    between atoms: C21_30  and  C24_33 
ROOT
HETATM    1  O1  UNK     1      28.282  -9.386  36.733  1.00  0.00    -0.292 OA
HETATM    2  N1  UNK     1      31.347  -5.861  37.509  1.00  0.00    -0.362 N 
HETATM    3  C1  UNK     1      28.042  -6.689  39.145  1.00  0.00     0.008 C 
HETATM    4  C2  UNK     1      28.019  -8.184  38.797  1.00  0.00     0.164 C 
HETATM    5  C3  UNK     1      29.493  -6.187  39.086  1.00  0.00     0.063 C 
HETATM    6  C4  UNK     1      29.808  -7.594  37.022  1.00  0.00     0.025 C 
HETATM    7  C5  UNK     1      30.214  -6.585  37.823  1.00  0.00     0.020 C 
HETATM    8  C6  UNK     1      30.540  -7.910  35.719  1.00  0.00     0.104 C 
HETATM    9  C7  UNK     1      28.654  -8.452  37.442  1.00  0.00     0.172 C 
HETATM   10  C8  UNK     1      31.872  -7.165  35.605  1.00  0.00     0.052 C 
HETATM   11  C9  UNK     1      27.127  -5.840  38.248  1.00  0.00     0.011 C 
HETATM   12  C10 UNK     1      32.201  -6.170  36.463  1.00  0.00     0.018 C 
HETATM   13  C13 UNK     1      33.455  -5.341  36.397  1.00  0.00     0.069 C 
HETATM   14  H9  UNK     1      31.623  -5.115  38.138  1.00  0.00     0.165 HD
ENDROOT
BRANCH   8  15
HETATM   15  C11 UNK     1      29.664  -7.597  34.531  1.00  0.00     0.029 A 
HETATM   16  C15 UNK     1      29.598  -8.578  33.419  1.00  0.00     0.194 A 
HETATM   17  O7  UNK     1      30.229  -9.627  33.439  1.00  0.00    -0.287 OA
HETATM   18  C17 UNK     1      28.727  -8.222  32.283  1.00  0.00     0.050 A 
HETATM   19  C18 UNK     1      28.032  -7.013  32.316  1.00  0.00     0.089 A 
HETATM   20  C19 UNK     1      28.599  -9.079  31.188  1.00  0.00     0.042 A 
HETATM   21  O3  UNK     1      28.121  -6.133  33.365  1.00  0.00    -0.321 OA
HETATM   22  C22 UNK     1      27.203  -6.655  31.252  1.00  0.00     0.040 A 
HETATM   23  C16 UNK     1      28.936  -6.479  34.415  1.00  0.00     0.154 A 
HETATM   24  C25 UNK     1      27.072  -7.510  30.157  1.00  0.00     0.026 A 
HETATM   25  C23 UNK     1      27.769  -8.719  30.126  1.00  0.00     0.035 A 
HETATM   26 Cl1  UNK     1      27.603  -9.769  28.772  1.00  0.00    -0.084 Cl
ENDBRANCH   8  15
BRANCH  10  27
HETATM   27  C14 UNK     1      32.798  -7.620  34.555  1.00  0.00     0.292 C 
HETATM   28  O6  UNK     1      33.534  -8.581  34.685  1.00  0.00    -0.259 OA
BRANCH  27  29
HETATM   29  O5  UNK     1      32.667  -6.800  33.485  1.00  0.00    -0.318 OA
BRANCH  29  30
HETATM   30  C21 UNK     1      33.438  -7.173  32.338  1.00  0.00     0.178 C 
BRANCH  30  31
HETATM   31  C24 UNK     1      32.531  -7.881  31.344  1.00  0.00     0.022 C 
HETATM   32  C26 UNK     1      31.613  -6.908  30.626  1.00  0.00     0.007 C 
ENDBRANCH  30  31
ENDBRANCH  29  30
ENDBRANCH  27  29
ENDBRANCH  10  27
BRANCH   4  33
HETATM   33  C12 UNK     1      26.635  -8.740  38.937  1.00  0.00     0.270 C 
HETATM   34  O4  UNK     1      25.703  -8.455  38.196  1.00  0.00    -0.264 OA
BRANCH  33  35
HETATM   35  O2  UNK     1      26.591  -9.593  40.000  1.00  0.00    -0.326 OA
HETATM   36  C20 UNK     1      27.835 -10.212  40.345  1.00  0.00     0.213 C 
ENDBRANCH  33  35
ENDBRANCH   4  33
TORSDOF 7
ENDMDL
MODEL 3
REMARK VINA RESULT:      -8.1      2.181      3.231
REMARK  7 active torsions:
REMARK  status: ('A' for Active; 'I' for Inactive)
REMARK    1  A    between atoms: C12_21  and  O2_3 
REMARK    2  A    between atoms: C14_23  and  O5_6 
REMARK    3  A    between atoms: C21_30  and  O5_6 
REMARK    4  A    between atoms: C12_21  and  C2_11 
REMARK    5  A    between atoms: C11_20  and  C6_15 
REMARK    6  A    between atoms: C14_23  and  C8_17 
REMARK    7  A    between atoms: C21_30  and  C24_33 
ROOT
HETATM    1  O1  UNK     1      29.493  -7.980  36.692  1.00  0.00    -0.292 OA
HETATM    2  N1  UNK     1      33.739  -5.884  36.682  1.00  0.00    -0.362 N 
HETATM    3  C1  UNK     1      30.591  -5.118  38.629  1.00  0.00     0.008 C 
HETATM    4  C2  UNK     1      29.959  -6.514  38.538  1.00  0.00     0.164 C 
HETATM    5  C3  UNK     1      32.105  -5.242  38.400  1.00  0.00     0.063 C 
HETATM    6  C4  UNK     1      31.609  -6.915  36.585  1.00  0.00     0.025 C 
HETATM    7  C5  UNK     1      32.462  -6.054  37.180  1.00  0.00     0.020 C 
HETATM    8  C6  UNK     1      32.002  -7.662  35.311  1.00  0.00     0.104 C 
HETATM    9  C7  UNK     1      30.275  -7.185  37.211  1.00  0.00     0.172 C 
HETATM   10  C8  UNK     1      33.494  -7.525  34.995  1.00  0.00     0.052 C 
HETATM   11  C9  UNK     1      29.967  -4.101  37.659  1.00  0.00     0.011 C 
HETATM   12  C10 UNK     1      34.277  -6.639  35.653  1.00  0.00     0.018 C 
HETATM   13  C13 UNK     1      35.735  -6.389  35.375  1.00  0.00     0.069 C 
HETATM   14  H9  UNK     1      34.352  -5.232  37.160  1.00  0.00     0.165 HD
ENDROOT
BRANCH   8  15
HETATM   15  C11 UNK     1      31.175  -7.185  34.143  1.00  0.00     0.029 A 
HETATM   16  C15 UNK     1      30.476  -8.195  33.309  1.00  0.00     0.194 A 
HETATM   17  O7  UNK     1      30.550  -9.395  33.542  1.00  0.00    -0.287 OA
HETATM   18  C17 UNK     1      29.682  -7.675  32.180  1.00  0.00     0.050 A 
HETATM   19  C18 UNK     1      29.634  -6.299  31.963  1.00  0.00     0.089 A 
HETATM   20  C19 UNK     1      28.988  -8.546  31.337  1.00  0.00     0.042 A 
HETATM   21  O3  UNK     1      30.297  -5.398  32.759  1.00  0.00    -0.321 OA
HETATM   22  C22 UNK     1      28.889  -5.784  30.901  1.00  0.00     0.040 A 
HETATM   23  C16 UNK     1      31.031  -5.897  33.807  1.00  0.00     0.154 A 
HETATM   24  C25 UNK     1      28.195  -6.651  30.058  1.00  0.00     0.026 A 
HETATM   25  C23 UNK     1      28.244  -8.029  30.276  1.00  0.00     0.035 A 
HETATM   26 Cl1  UNK     1      27.384  -9.094  29.231  1.00  0.00    -0.084 Cl
ENDBRANCH   8  15
BRANCH  10  27
HETATM   27  C14 UNK     1      34.042  -8.442  33.982  1.00  0.00     0.292 C 
HETATM   28  O6  UNK     1      34.229  -9.627  34.186  1.00  0.00    -0.259 OA
BRANCH  27  29
HETATM   29  O5  UNK     1      34.279  -7.736  32.851  1.00  0.00    -0.318 OA
BRANCH  29  30
HETATM   30  C21 UNK     1      33.823  -8.355  31.643  1.00  0.00     0.178 C 
BRANCH  30  31
HETATM   31  C24 UNK     1      33.081  -7.322  30.809  1.00  0.00     0.022 C 
HETATM   32  C26 UNK     1      32.325  -7.963  29.659  1.00  0.00     0.007 C 
ENDBRANCH  30  31
ENDBRANCH  29  30
ENDBRANCH  27  29
ENDBRANCH  10  27
BRANCH   4  33
HETATM   33  C12 UNK     1      28.495  -6.454  38.852  1.00  0.00     0.270 C 
HETATM   34  O4  UNK     1      27.705  -5.700  38.299  1.00  0.00    -0.264 OA
BRANCH  33  35
HETATM   35  O2  UNK     1      28.201  -7.358  39.830  1.00  0.00    -0.326 OA
HETATM   36  C20 UNK     1      27.326  -8.421  39.443  1.00  0.00     0.213 C 
ENDBRANCH  33  35
ENDBRANCH   4  33
TORSDOF 7
ENDMDL
MODEL 4
REMARK VINA RESULT:      -8.1      2.795      3.977
REMARK  7 active torsions:
REMARK  status: ('A' for Active; 'I' for Inactive)
REMARK    1  A    between atoms: C12_21  and  O2_3 
REMARK    2  A    between atoms: C14_23  and  O5_6 
REMARK    3  A    between atoms: C21_30  and  O5_6 
REMARK    4  A    between atoms: C12_21  and  C2_11 
REMARK    5  A    between atoms: C11_20  and  C6_15 
REMARK    6  A    between atoms: C14_23  and  C8_17 
REMARK    7  A    between atoms: C21_30  and  C24_33 
ROOT
HETATM    1  O1  UNK     1      30.956 -10.111  35.600  1.00  0.00    -0.292 OA
HETATM    2  N1  UNK     1      34.750  -7.327  36.131  1.00  0.00    -0.362 N 
HETATM    3  C1  UNK     1      31.599  -7.656  38.191  1.00  0.00     0.008 C 
HETATM    4  C2  UNK     1      31.226  -9.080  37.754  1.00  0.00     0.164 C 
HETATM    5  C3  UNK     1      33.100  -7.439  37.946  1.00  0.00     0.063 C 
HETATM    6  C4  UNK     1      32.839  -8.679  35.770  1.00  0.00     0.025 C 
HETATM    7  C5  UNK     1      33.546  -7.847  36.564  1.00  0.00     0.020 C 
HETATM    8  C6  UNK     1      33.307  -9.006  34.353  1.00  0.00     0.104 C 
HETATM    9  C7  UNK     1      31.603  -9.336  36.304  1.00  0.00     0.172 C 
HETATM   10  C8  UNK     1      34.736  -8.523  34.088  1.00  0.00     0.052 C 
HETATM   11  C9  UNK     1      30.763  -6.567  37.500  1.00  0.00     0.011 C 
HETATM   12  C10 UNK     1      35.373  -7.695  34.948  1.00  0.00     0.018 C 
HETATM   13  C13 UNK     1      36.749  -7.119  34.748  1.00  0.00     0.069 C 
HETATM   14  H9  UNK     1      35.255  -6.711  36.758  1.00  0.00     0.165 HD
ENDROOT
BRANCH   8  15
HETATM   15  C11 UNK     1      32.361  -8.420  33.335  1.00  0.00     0.029 A 
HETATM   16  C15 UNK     1      31.670  -9.340  32.397  1.00  0.00     0.194 A 
HETATM   17  O7  UNK     1      31.844 -10.551  32.427  1.00  0.00    -0.287 OA
HETATM   18  C17 UNK     1      30.756  -8.714  31.423  1.00  0.00     0.050 A 
HETATM   19  C18 UNK     1      30.596  -7.329  31.436  1.00  0.00     0.089 A 
HETATM   20  C19 UNK     1      30.059  -9.495  30.498  1.00  0.00     0.042 A 
HETATM   21  O3  UNK     1      31.256  -6.514  32.322  1.00  0.00    -0.321 OA
HETATM   22  C22 UNK     1      29.737  -6.715  30.524  1.00  0.00     0.040 A 
HETATM   23  C16 UNK     1      32.103  -7.111  33.223  1.00  0.00     0.154 A 
HETATM   24  C25 UNK     1      29.039  -7.493  29.599  1.00  0.00     0.026 A 
HETATM   25  C23 UNK     1      29.200  -8.879  29.586  1.00  0.00     0.035 A 
HETATM   26 Cl1  UNK     1      28.335  -9.832  28.442  1.00  0.00    -0.084 Cl
ENDBRANCH   8  15
BRANCH  10  27
HETATM   27  C14 UNK     1      35.398  -9.047  32.882  1.00  0.00     0.292 C 
HETATM   28  O6  UNK     1      35.872 -10.165  32.813  1.00  0.00    -0.259 OA
BRANCH  27  29
HETATM   29  O5  UNK     1      35.372  -8.085  31.928  1.00  0.00    -0.318 OA
BRANCH  29  30
HETATM   30  C21 UNK     1      34.994  -8.536  30.623  1.00  0.00     0.178 C 
BRANCH  30  31
HETATM   31  C24 UNK     1      34.027  -7.532  30.016  1.00  0.00     0.022 C 
HETATM   32  C26 UNK     1      33.235  -8.134  28.869  1.00  0.00     0.007 C 
ENDBRANCH  30  31
ENDBRANCH  29  30
ENDBRANCH  27  29
ENDBRANCH  10  27
BRANCH   4  33
HETATM   33  C12 UNK     1      29.790  -9.371  38.066  1.00  0.00     0.270 C 
HETATM   34  O4  UNK     1      28.844  -8.901  37.446  1.00  0.00    -0.264 OA
BRANCH  33  35
HETATM   35  O2  UNK     1      29.717 -10.224  39.127  1.00  0.00    -0.326 OA
HETATM   36  C20 UNK     1      28.466 -10.237  39.822  1.00  0.00     0.213 C 
ENDBRANCH  33  35
ENDBRANCH   4  33
TORSDOF 7
ENDMDL
MODEL 5
REMARK VINA RESULT:      -8.1      2.860      6.402
REMARK  7 active torsions:
REMARK  status: ('A' for Active; 'I' for Inactive)
REMARK    1  A    between atoms: C12_21  and  O2_3 
REMARK    2  A    between atoms: C14_23  and  O5_6 
REMARK    3  A    between atoms: C21_30  and  O5_6 
REMARK    4  A    between atoms: C12_21  and  C2_11 
REMARK    5  A    between atoms: C11_20  and  C6_15 
REMARK    6  A    between atoms: C14_23  and  C8_17 
REMARK    7  A    between atoms: C21_30  and  C24_33 
ROOT
HETATM    1  O1  UNK     1      30.206  -9.198  31.850  1.00  0.00    -0.292 OA
HETATM    2  N1  UNK     1      28.247  -6.340  35.079  1.00  0.00    -0.362 N 
HETATM    3  C1  UNK     1      27.888  -6.460  31.318  1.00  0.00     0.008 C 
HETATM    4  C2  UNK     1      28.298  -7.927  31.128  1.00  0.00     0.164 C 
HETATM    5  C3  UNK     1      27.420  -6.259  32.768  1.00  0.00     0.063 C 
HETATM    6  C4  UNK     1      29.321  -7.741  33.499  1.00  0.00     0.025 C 
HETATM    7  C5  UNK     1      28.379  -6.818  33.789  1.00  0.00     0.020 C 
HETATM    8  C6  UNK     1      30.308  -8.222  34.560  1.00  0.00     0.104 C 
HETATM    9  C7  UNK     1      29.366  -8.343  32.127  1.00  0.00     0.172 C 
HETATM   10  C8  UNK     1      29.920  -7.760  35.967  1.00  0.00     0.052 C 
HETATM   11  C9  UNK     1      29.000  -5.464  30.953  1.00  0.00     0.011 C 
HETATM   12  C10 UNK     1      28.953  -6.835  36.165  1.00  0.00     0.018 C 
HETATM   13  C13 UNK     1      28.542  -6.273  37.499  1.00  0.00     0.069 C 
HETATM   14  H9  UNK     1      27.525  -5.652  35.259  1.00  0.00     0.165 HD
ENDROOT
BRANCH   8  15
HETATM   15  C11 UNK     1      31.707  -7.763  34.227  1.00  0.00     0.029 A 
HETATM   16  C15 UNK     1      32.765  -8.788  34.046  1.00  0.00     0.194 A 
HETATM   17  O7  UNK     1      32.538  -9.986  34.158  1.00  0.00    -0.287 OA
HETATM   18  C17 UNK     1      34.114  -8.285  33.722  1.00  0.00     0.050 A 
HETATM   19  C18 UNK     1      34.314  -6.910  33.608  1.00  0.00     0.089 A 
HETATM   20  C19 UNK     1      35.177  -9.170  33.534  1.00  0.00     0.042 A 
HETATM   21  O3  UNK     1      33.306  -5.995  33.783  1.00  0.00    -0.321 OA
HETATM   22  C22 UNK     1      35.581  -6.411  33.302  1.00  0.00     0.040 A 
HETATM   23  C16 UNK     1      32.056  -6.479  34.084  1.00  0.00     0.154 A 
HETATM   24  C25 UNK     1      36.646  -7.293  33.113  1.00  0.00     0.026 A 
HETATM   25  C23 UNK     1      36.444  -8.669  33.229  1.00  0.00     0.035 A 
HETATM   26 Cl1  UNK     1      37.761  -9.752  32.993  1.00  0.00    -0.084 Cl
ENDBRANCH   8  15
BRANCH  10  27
HETATM   27  C14 UNK     1      30.611  -8.411  37.091  1.00  0.00     0.292 C 
HETATM   28  O6  UNK     1      30.341  -9.532  37.482  1.00  0.00    -0.259 OA
BRANCH  27  29
HETATM   29  O5  UNK     1      31.549  -7.558  37.569  1.00  0.00    -0.318 OA
BRANCH  29  30
HETATM   30  C21 UNK     1      32.864  -8.110  37.691  1.00  0.00     0.178 C 
BRANCH  30  31
HETATM   31  C24 UNK     1      33.883  -7.034  37.345  1.00  0.00     0.022 C 
HETATM   32  C26 UNK     1      33.288  -5.641  37.445  1.00  0.00     0.007 C 
ENDBRANCH  30  31
ENDBRANCH  29  30
ENDBRANCH  27  29
ENDBRANCH  10  27
BRANCH   4  33
HETATM   33  C12 UNK     1      28.670  -8.194  29.701  1.00  0.00     0.270 C 
HETATM   34  O4  UNK     1      29.566  -7.610  29.105  1.00  0.00    -0.264 OA
BRANCH  33  35
HETATM   35  O2  UNK     1      27.862  -9.168  29.193  1.00  0.00    -0.326 OA
HETATM   36  C20 UNK     1      28.505 -10.116  28.336  1.00  0.00     0.213 C 
ENDBRANCH  33  35
ENDBRANCH   4  33
TORSDOF 7
ENDMDL
MODEL 6
REMARK VINA RESULT:      -7.9      3.355      6.835
REMARK  7 active torsions:
REMARK  status: ('A' for Active; 'I' for Inactive)
REMARK    1  A    between atoms: C12_21  and  O2_3 
REMARK    2  A    between atoms: C14_23  and  O5_6 
REMARK    3  A    between atoms: C21_30  and  O5_6 
REMARK    4  A    between atoms: C12_21  and  C2_11 
REMARK    5  A    between atoms: C11_20  and  C6_15 
REMARK    6  A    between atoms: C14_23  and  C8_17 
REMARK    7  A    between atoms: C21_30  and  C24_33 
ROOT
HETATM    1  O1  UNK     1      30.184  -7.006  31.909  1.00  0.00    -0.292 OA
HETATM    2  N1  UNK     1      34.214  -9.472  32.239  1.00  0.00    -0.362 N 
HETATM    3  C1  UNK     1      30.868 -10.364  30.724  1.00  0.00     0.008 C 
HETATM    4  C2  UNK     1      30.372  -8.932  30.483  1.00  0.00     0.164 C 
HETATM    5  C3  UNK     1      32.400 -10.348  30.833  1.00  0.00     0.063 C 
HETATM    6  C4  UNK     1      32.198  -8.229  32.178  1.00  0.00     0.025 C 
HETATM    7  C5  UNK     1      32.922  -9.298  31.782  1.00  0.00     0.020 C 
HETATM    8  C6  UNK     1      32.754  -7.231  33.192  1.00  0.00     0.104 C 
HETATM    9  C7  UNK     1      30.849  -7.985  31.573  1.00  0.00     0.172 C 
HETATM   10  C8  UNK     1      34.248  -7.441  33.455  1.00  0.00     0.052 C 
HETATM   11  C9  UNK     1      30.234 -11.031  31.954  1.00  0.00     0.011 C 
HETATM   12  C10 UNK     1      34.896  -8.543  33.009  1.00  0.00     0.018 C 
HETATM   13  C13 UNK     1      36.342  -8.868  33.266  1.00  0.00     0.069 C 
HETATM   14  H9  UNK     1      34.727 -10.284  31.915  1.00  0.00     0.165 HD
ENDROOT
BRANCH   8  15
HETATM   15  C11 UNK     1      31.981  -7.307  34.486  1.00  0.00     0.029 A 
HETATM   16  C15 UNK     1      31.609  -6.041  35.165  1.00  0.00     0.194 A 
HETATM   17  O7  UNK     1      31.908  -4.945  34.708  1.00  0.00    -0.287 OA
HETATM   18  C17 UNK     1      30.854  -6.172  36.425  1.00  0.00     0.050 A 
HETATM   19  C18 UNK     1      30.541  -7.447  36.898  1.00  0.00     0.089 A 
HETATM   20  C19 UNK     1      30.458  -5.039  37.140  1.00  0.00     0.042 A 
HETATM   21  O3  UNK     1      30.906  -8.594  36.238  1.00  0.00    -0.321 OA
HETATM   22  C22 UNK     1      29.828  -7.595  38.088  1.00  0.00     0.040 A 
HETATM   23  C16 UNK     1      31.607  -8.455  35.065  1.00  0.00     0.154 A 
HETATM   24  C25 UNK     1      29.431  -6.465  38.804  1.00  0.00     0.026 A 
HETATM   25  C23 UNK     1      29.745  -5.191  38.330  1.00  0.00     0.035 A 
HETATM   26 Cl1  UNK     1      29.251  -3.800  39.217  1.00  0.00    -0.084 Cl
ENDBRANCH   8  15
BRANCH  10  27
HETATM   27  C14 UNK     1      34.953  -6.362  34.166  1.00  0.00     0.292 C 
HETATM   28  O6  UNK     1      35.303  -5.327  33.631  1.00  0.00    -0.259 OA
BRANCH  27  29
HETATM   29  O5  UNK     1      35.119  -6.739  35.457  1.00  0.00    -0.318 OA
BRANCH  29  30
HETATM   30  C21 UNK     1      35.250  -5.662  36.391  1.00  0.00     0.178 C 
BRANCH  30  31
HETATM   31  C24 UNK     1      34.381  -5.955  37.604  1.00  0.00     0.022 C 
HETATM   32  C26 UNK     1      34.036  -7.430  37.708  1.00  0.00     0.007 C 
ENDBRANCH  30  31
ENDBRANCH  29  30
ENDBRANCH  27  29
ENDBRANCH  10  27
BRANCH   4  33
HETATM   33  C12 UNK     1      28.889  -8.912  30.272  1.00  0.00     0.270 C 
HETATM   34  O4  UNK     1      28.067  -8.949  31.179  1.00  0.00    -0.264 OA
BRANCH  33  35
HETATM   35  O2  UNK     1      28.619  -8.850  28.937  1.00  0.00    -0.326 OA
HETATM   36  C20 UNK     1      28.279 -10.094  28.319  1.00  0.00     0.213 C 
ENDBRANCH  33  35
ENDBRANCH   4  33
TORSDOF 7
ENDMDL
MODEL 7
REMARK VINA RESULT:      -7.9      2.870      6.802
REMARK  7 active torsions:
REMARK  status: ('A' for Active; 'I' for Inactive)
REMARK    1  A    between atoms: C12_21  and  O2_3 
REMARK    2  A    between atoms: C14_23  and  O5_6 
REMARK    3  A    between atoms: C21_30  and  O5_6 
REMARK    4  A    between atoms: C12_21  and  C2_11 
REMARK    5  A    between atoms: C11_20  and  C6_15 
REMARK    6  A    between atoms: C14_23  and  C8_17 
REMARK    7  A    between atoms: C21_30  and  C24_33 
ROOT
HETATM    1  O1  UNK     1      30.251  -9.187  31.787  1.00  0.00    -0.292 OA
HETATM    2  N1  UNK     1      28.350  -6.301  35.025  1.00  0.00    -0.362 N 
HETATM    3  C1  UNK     1      27.983  -6.406  31.264  1.00  0.00     0.008 C 
HETATM    4  C2  UNK     1      28.366  -7.879  31.070  1.00  0.00     0.164 C 
HETATM    5  C3  UNK     1      27.521  -6.199  32.715  1.00  0.00     0.063 C 
HETATM    6  C4  UNK     1      29.395  -7.717  33.440  1.00  0.00     0.025 C 
HETATM    7  C5  UNK     1      28.470  -6.778  33.734  1.00  0.00     0.020 C 
HETATM    8  C6  UNK     1      30.375  -8.219  34.498  1.00  0.00     0.104 C 
HETATM    9  C7  UNK     1      29.427  -8.317  32.067  1.00  0.00     0.172 C 
HETATM   10  C8  UNK     1      29.997  -7.753  35.907  1.00  0.00     0.052 C 
HETATM   11  C9  UNK     1      29.112  -5.429  30.900  1.00  0.00     0.011 C 
HETATM   12  C10 UNK     1      29.047  -6.810  36.109  1.00  0.00     0.018 C 
HETATM   13  C13 UNK     1      28.648  -6.245  37.445  1.00  0.00     0.069 C 
HETATM   14  H9  UNK     1      27.640  -5.600  35.207  1.00  0.00     0.165 HD
ENDROOT
BRANCH   8  15
HETATM   15  C11 UNK     1      31.781  -7.785  34.165  1.00  0.00     0.029 A 
HETATM   16  C15 UNK     1      32.824  -8.828  33.996  1.00  0.00     0.194 A 
HETATM   17  O7  UNK     1      32.577 -10.020  34.117  1.00  0.00    -0.287 OA
HETATM   18  C17 UNK     1      34.181  -8.349  33.671  1.00  0.00     0.050 A 
HETATM   19  C18 UNK     1      34.403  -6.978  33.544  1.00  0.00     0.089 A 
HETATM   20  C19 UNK     1      35.231  -9.252  33.492  1.00  0.00     0.042 A 
HETATM   21  O3  UNK     1      33.409  -6.046  33.709  1.00  0.00    -0.321 OA
HETATM   22  C22 UNK     1      35.678  -6.502  33.237  1.00  0.00     0.040 A 
HETATM   23  C16 UNK     1      32.151  -6.507  34.011  1.00  0.00     0.154 A 
HETATM   24  C25 UNK     1      36.729  -7.402  33.058  1.00  0.00     0.026 A 
HETATM   25  C23 UNK     1      36.505  -8.774  33.186  1.00  0.00     0.035 A 
HETATM   26 Cl1  UNK     1      37.807  -9.879  32.963  1.00  0.00    -0.084 Cl
ENDBRANCH   8  15
BRANCH  10  27
HETATM   27  C14 UNK     1      30.678  -8.419  37.029  1.00  0.00     0.292 C 
HETATM   28  O6  UNK     1      31.679  -7.977  37.561  1.00  0.00    -0.259 OA
BRANCH  27  29
HETATM   29  O5  UNK     1      30.000  -9.554  37.326  1.00  0.00    -0.318 OA
BRANCH  29  30
HETATM   30  C21 UNK     1      29.499  -9.628  38.665  1.00  0.00     0.178 C 
BRANCH  30  31
HETATM   31  C24 UNK     1      27.979  -9.617  38.623  1.00  0.00     0.022 C 
HETATM   32  C26 UNK     1      27.375 -10.071  39.941  1.00  0.00     0.007 C 
ENDBRANCH  30  31
ENDBRANCH  29  30
ENDBRANCH  27  29
ENDBRANCH  10  27
BRANCH   4  33
HETATM   33  C12 UNK     1      28.731  -8.149  29.642  1.00  0.00     0.270 C 
HETATM   34  O4  UNK     1      29.631  -7.574  29.044  1.00  0.00    -0.264 OA
BRANCH  33  35
HETATM   35  O2  UNK     1      27.911  -9.114  29.136  1.00  0.00    -0.326 OA
HETATM   36  C20 UNK     1      28.569 -10.175  28.437  1.00  0.00     0.213 C 
ENDBRANCH  33  35
ENDBRANCH   4  33
TORSDOF 7
ENDMDL
MODEL 8
REMARK VINA RESULT:      -7.7      3.339      6.917
REMARK  7 active torsions:
REMARK  status: ('A' for Active; 'I' for Inactive)
REMARK    1  A    between atoms: C12_21  and  O2_3 
REMARK    2  A    between atoms: C14_23  and  O5_6 
REMARK    3  A    between atoms: C21_30  and  O5_6 
REMARK    4  A    between atoms: C12_21  and  C2_11 
REMARK    5  A    between atoms: C11_20  and  C6_15 
REMARK    6  A    between atoms: C14_23  and  C8_17 
REMARK    7  A    between atoms: C21_30  and  C24_33 
ROOT
HETATM    1  O1  UNK     1      30.098  -7.190  32.115  1.00  0.00    -0.292 OA
HETATM    2  N1  UNK     1      34.737  -8.044  31.688  1.00  0.00    -0.362 N 
HETATM    3  C1  UNK     1      31.758  -9.530  29.897  1.00  0.00     0.008 C 
HETATM    4  C2  UNK     1      30.785  -8.367  30.135  1.00  0.00     0.164 C 
HETATM    5  C3  UNK     1      33.197  -9.009  30.036  1.00  0.00     0.063 C 
HETATM    6  C4  UNK     1      32.424  -7.640  32.002  1.00  0.00     0.025 C 
HETATM    7  C5  UNK     1      33.423  -8.201  31.288  1.00  0.00     0.020 C 
HETATM    8  C6  UNK     1      32.707  -6.888  33.301  1.00  0.00     0.104 C 
HETATM    9  C7  UNK     1      31.019  -7.711  31.486  1.00  0.00     0.172 C 
HETATM   10  C8  UNK     1      34.202  -6.629  33.509  1.00  0.00     0.052 C 
HETATM   11  C9  UNK     1      31.513 -10.730  30.824  1.00  0.00     0.011 C 
HETATM   12  C10 UNK     1      35.137  -7.229  32.735  1.00  0.00     0.018 C 
HETATM   13  C13 UNK     1      36.626  -7.087  32.898  1.00  0.00     0.069 C 
HETATM   14  H9  UNK     1      35.459  -8.475  31.123  1.00  0.00     0.165 HD
ENDROOT
BRANCH   8  15
HETATM   15  C11 UNK     1      32.138  -7.637  34.481  1.00  0.00     0.029 A 
HETATM   16  C15 UNK     1      31.101  -6.973  35.310  1.00  0.00     0.194 A 
HETATM   17  O7  UNK     1      30.697  -5.844  35.065  1.00  0.00    -0.287 OA
HETATM   18  C17 UNK     1      30.580  -7.750  36.450  1.00  0.00     0.050 A 
HETATM   19  C18 UNK     1      31.079  -9.032  36.681  1.00  0.00     0.089 A 
HETATM   20  C19 UNK     1      29.602  -7.213  37.290  1.00  0.00     0.042 A 
HETATM   21  O3  UNK     1      32.039  -9.609  35.889  1.00  0.00    -0.321 OA
HETATM   22  C22 UNK     1      30.600  -9.785  37.754  1.00  0.00     0.040 A 
HETATM   23  C16 UNK     1      32.514  -8.874  34.831  1.00  0.00     0.154 A 
HETATM   24  C25 UNK     1      29.623  -9.251  38.595  1.00  0.00     0.026 A 
HETATM   25  C23 UNK     1      29.126  -7.968  38.363  1.00  0.00     0.035 A 
HETATM   26 Cl1  UNK     1      27.919  -7.315  39.404  1.00  0.00    -0.084 Cl
ENDBRANCH   8  15
BRANCH  10  27
HETATM   27  C14 UNK     1      34.566  -5.656  34.551  1.00  0.00     0.292 C 
HETATM   28  O6  UNK     1      34.407  -4.456  34.429  1.00  0.00    -0.259 OA
BRANCH  27  29
HETATM   29  O5  UNK     1      35.083  -6.332  35.605  1.00  0.00    -0.318 OA
BRANCH  29  30
HETATM   30  C21 UNK     1      34.922  -5.691  36.874  1.00  0.00     0.178 C 
BRANCH  30  31
HETATM   31  C24 UNK     1      33.841  -6.418  37.660  1.00  0.00     0.022 C 
HETATM   32  C26 UNK     1      32.814  -5.456  38.230  1.00  0.00     0.007 C 
ENDBRANCH  30  31
ENDBRANCH  29  30
ENDBRANCH  27  29
ENDBRANCH  10  27
BRANCH   4  33
HETATM   33  C12 UNK     1      29.370  -8.806  29.914  1.00  0.00     0.270 C 
HETATM   34  O4  UNK     1      28.554  -8.972  30.812  1.00  0.00    -0.264 OA
BRANCH  33  35
HETATM   35  O2  UNK     1      29.151  -8.985  28.580  1.00  0.00    -0.326 OA
HETATM   36  C20 UNK     1      28.458 -10.186  28.225  1.00  0.00     0.213 C 
ENDBRANCH  33  35
ENDBRANCH   4  33
TORSDOF 7
ENDMDL
MODEL 9
REMARK VINA RESULT:      -7.6      3.756      7.227
REMARK  7 active torsions:
REMARK  status: ('A' for Active; 'I' for Inactive)
REMARK    1  A    between atoms: C12_21  and  O2_3 
REMARK    2  A    between atoms: C14_23  and  O5_6 
REMARK    3  A    between atoms: C21_30  and  O5_6 
REMARK    4  A    between atoms: C12_21  and  C2_11 
REMARK    5  A    between atoms: C11_20  and  C6_15 
REMARK    6  A    between atoms: C14_23  and  C8_17 
REMARK    7  A    between atoms: C21_30  and  C24_33 
ROOT
HETATM    1  O1  UNK     1      30.242 -10.111  34.265  1.00  0.00    -0.292 OA
HETATM    2  N1  UNK     1      32.026  -8.173  30.330  1.00  0.00    -0.362 N 
HETATM    3  C1  UNK     1      32.917 -11.358  32.159  1.00  0.00     0.008 C 
HETATM    4  C2  UNK     1      31.577 -11.552  32.881  1.00  0.00     0.164 C 
HETATM    5  C3  UNK     1      32.696 -10.457  30.935  1.00  0.00     0.063 C 
HETATM    6  C4  UNK     1      31.156  -9.055  32.349  1.00  0.00     0.025 C 
HETATM    7  C5  UNK     1      31.923  -9.201  31.247  1.00  0.00     0.020 C 
HETATM    8  C6  UNK     1      30.448  -7.735  32.648  1.00  0.00     0.104 C 
HETATM    9  C7  UNK     1      30.952 -10.221  33.266  1.00  0.00     0.172 C 
HETATM   10  C8  UNK     1      30.493  -6.769  31.461  1.00  0.00     0.052 C 
HETATM   11  C9  UNK     1      34.023 -10.796  33.066  1.00  0.00     0.011 C 
HETATM   12  C10 UNK     1      31.286  -7.003  30.389  1.00  0.00     0.018 C 
HETATM   13  C13 UNK     1      31.445  -6.088  29.205  1.00  0.00     0.069 C 
HETATM   14  H9  UNK     1      32.607  -8.323  29.512  1.00  0.00     0.165 HD
ENDROOT
BRANCH   8  15
HETATM   15  C11 UNK     1      31.040  -7.083  33.873  1.00  0.00     0.029 A 
HETATM   16  C15 UNK     1      30.119  -6.531  34.898  1.00  0.00     0.194 A 
HETATM   17  O7  UNK     1      28.903  -6.590  34.779  1.00  0.00    -0.287 OA
HETATM   18  C17 UNK     1      30.751  -5.905  36.075  1.00  0.00     0.050 A 
HETATM   19  C18 UNK     1      32.142  -5.866  36.157  1.00  0.00     0.089 A 
HETATM   20  C19 UNK     1      29.970  -5.356  37.095  1.00  0.00     0.042 A 
HETATM   21  O3  UNK     1      32.958  -6.389  35.185  1.00  0.00    -0.321 OA
HETATM   22  C22 UNK     1      32.762  -5.279  37.261  1.00  0.00     0.040 A 
HETATM   23  C16 UNK     1      32.356  -6.969  34.096  1.00  0.00     0.154 A 
HETATM   24  C25 UNK     1      31.984  -4.731  38.281  1.00  0.00     0.026 A 
HETATM   25  C23 UNK     1      30.592  -4.769  38.198  1.00  0.00     0.035 A 
HETATM   26 Cl1  UNK     1      29.638  -4.091  39.461  1.00  0.00    -0.084 Cl
ENDBRANCH   8  15
BRANCH  10  27
HETATM   27  C14 UNK     1      29.591  -5.607  31.518  1.00  0.00     0.292 C 
HETATM   28  O6  UNK     1      29.985  -4.457  31.553  1.00  0.00    -0.259 OA
BRANCH  27  29
HETATM   29  O5  UNK     1      28.313  -6.058  31.523  1.00  0.00    -0.318 OA
BRANCH  29  30
HETATM   30  C21 UNK     1      27.725  -6.227  30.229  1.00  0.00     0.178 C 
BRANCH  30  31
HETATM   31  C24 UNK     1      26.862  -7.480  30.240  1.00  0.00     0.022 C 
HETATM   32  C26 UNK     1      27.704  -8.743  30.269  1.00  0.00     0.007 C 
ENDBRANCH  30  31
ENDBRANCH  29  30
ENDBRANCH  27  29
ENDBRANCH  10  27
BRANCH   4  33
HETATM   33  C12 UNK     1      31.725 -12.505  34.028  1.00  0.00     0.270 C 
HETATM   34  O4  UNK     1      31.629 -12.182  35.205  1.00  0.00    -0.264 OA
BRANCH  33  35
HETATM   35  O2  UNK     1      31.979 -13.757  33.551  1.00  0.00    -0.326 OA
HETATM   36  C20 UNK     1      30.936 -14.339  32.763  1.00  0.00     0.213 C 
ENDBRANCH  33  35
ENDBRANCH   4  33
TORSDOF 7
ENDMDL
MODEL 10
REMARK VINA RESULT:      -7.6      3.135      6.437
REMARK  7 active torsions:
REMARK  status: ('A' for Active; 'I' for Inactive)
REMARK    1  A    between atoms: C12_21  and  O2_3 
REMARK    2  A    between atoms: C14_23  and  O5_6 
REMARK    3  A    between atoms: C21_30  and  O5_6 
REMARK    4  A    between atoms: C12_21  and  C2_11 
REMARK    5  A    between atoms: C11_20  and  C6_15 
REMARK    6  A    between atoms: C14_23  and  C8_17 
REMARK    7  A    between atoms: C21_30  and  C24_33 
ROOT
HETATM    1  O1  UNK     1      29.916  -8.984  33.151  1.00  0.00    -0.292 OA
HETATM    2  N1  UNK     1      34.329  -8.338  34.744  1.00  0.00    -0.362 N 
HETATM    3  C1  UNK     1      32.812 -11.114  32.674  1.00  0.00     0.008 C 
HETATM    4  C2  UNK     1      31.626 -10.316  32.114  1.00  0.00     0.164 C 
HETATM    5  C3  UNK     1      33.906 -10.131  33.119  1.00  0.00     0.063 C 
HETATM    6  C4  UNK     1      32.088  -8.656  34.045  1.00  0.00     0.025 C 
HETATM    7  C5  UNK     1      33.389  -9.012  33.988  1.00  0.00     0.020 C 
HETATM    8  C6  UNK     1      31.611  -7.558  34.994  1.00  0.00     0.104 C 
HETATM    9  C7  UNK     1      31.102  -9.309  33.125  1.00  0.00     0.172 C 
HETATM   10  C8  UNK     1      32.775  -6.779  35.613  1.00  0.00     0.052 C 
HETATM   11  C9  UNK     1      32.423 -12.062  33.819  1.00  0.00     0.011 C 
HETATM   12  C10 UNK     1      34.053  -7.207  35.495  1.00  0.00     0.018 C 
HETATM   13  C13 UNK     1      35.255  -6.546  36.115  1.00  0.00     0.069 C 
HETATM   14  H9  UNK     1      35.296  -8.631  34.669  1.00  0.00     0.165 HD
ENDROOT
BRANCH   8  15
HETATM   15  C11 UNK     1      30.738  -8.139  36.079  1.00  0.00     0.029 A 
HETATM   16  C15 UNK     1      29.354  -7.623  36.229  1.00  0.00     0.194 A 
HETATM   17  O7  UNK     1      28.904  -6.747  35.502  1.00  0.00    -0.287 OA
HETATM   18  C17 UNK     1      28.544  -8.226  37.304  1.00  0.00     0.050 A 
HETATM   19  C18 UNK     1      29.110  -9.221  38.101  1.00  0.00     0.089 A 
HETATM   20  C19 UNK     1      27.230  -7.808  37.526  1.00  0.00     0.042 A 
HETATM   21  O3  UNK     1      30.395  -9.670  37.928  1.00  0.00    -0.321 OA
HETATM   22  C22 UNK     1      28.362  -9.806  39.124  1.00  0.00     0.040 A 
HETATM   23  C16 UNK     1      31.136  -9.100  36.923  1.00  0.00     0.154 A 
HETATM   24  C25 UNK     1      27.049  -9.391  39.347  1.00  0.00     0.026 A 
HETATM   25  C23 UNK     1      26.485  -8.394  38.550  1.00  0.00     0.035 A 
HETATM   26 Cl1  UNK     1      24.864  -7.887  38.830  1.00  0.00    -0.084 Cl
ENDBRANCH   8  15
BRANCH  10  27
HETATM   27  C14 UNK     1      32.440  -5.516  36.290  1.00  0.00     0.292 C 
HETATM   28  O6  UNK     1      32.258  -4.468  35.699  1.00  0.00    -0.259 OA
BRANCH  27  29
HETATM   29  O5  UNK     1      32.380  -5.749  37.623  1.00  0.00    -0.318 OA
BRANCH  29  30
HETATM   30  C21 UNK     1      31.651  -4.775  38.377  1.00  0.00     0.178 C 
BRANCH  30  31
HETATM   31  C24 UNK     1      30.297  -5.356  38.754  1.00  0.00     0.022 C 
HETATM   32  C26 UNK     1      29.172  -4.365  38.513  1.00  0.00     0.007 C 
ENDBRANCH  30  31
ENDBRANCH  29  30
ENDBRANCH  27  29
ENDBRANCH  10  27
BRANCH   4  33
HETATM   33  C12 UNK     1      30.574 -11.237  31.577  1.00  0.00     0.270 C 
HETATM   34  O4  UNK     1      29.833 -11.915  32.277  1.00  0.00    -0.264 OA
BRANCH  33  35
HETATM   35  O2  UNK     1      30.582 -11.194  30.214  1.00  0.00    -0.326 OA
HETATM   36  C20 UNK     1      29.975 -10.036  29.631  1.00  0.00     0.213 C 
ENDBRANCH  33  35
ENDBRANCH   4  33
TORSDOF 7
ENDMDL
