MODEL 1
REMARK VINA RESULT:      -8.1      0.000      0.000
REMARK  7 active torsions:
REMARK  status: ('A' for Active; 'I' for Inactive)
REMARK    1  A    between atoms: C5_11  and  O2_2 
REMARK    2  A    between atoms: C9_15  and  O2_2 
REMARK    3  A    between atoms: C10_16  and  O3_3 
REMARK    4  A    between atoms: C18_24  and  O3_3 
REMARK    5  A    between atoms: C19_25  and  O5_5 
REMARK    6  A    between atoms: C3_9  and  C6_12 
REMARK    7  A    between atoms: C18_24  and  C19_25 
ROOT
HETATM    1  O1  UNK     1      20.503  -3.423  34.301  1.00  0.00    -0.319 OA
HETATM    2  O4  UNK     1      18.721  -1.812  37.602  1.00  0.00    -0.284 OA
HETATM    3  C1  UNK     1      19.136  -1.666  35.279  1.00  0.00     0.051 A 
HETATM    4  C2  UNK     1      19.769  -2.267  34.189  1.00  0.00     0.092 A 
HETATM    5  C4  UNK     1      19.253  -2.290  36.610  1.00  0.00     0.220 A 
HETATM    6  C5  UNK     1      20.054  -3.533  36.673  1.00  0.00     0.149 A 
HETATM    7  C7  UNK     1      18.400  -0.491  35.106  1.00  0.00     0.021 A 
HETATM    8  C8  UNK     1      19.670  -1.694  32.921  1.00  0.00     0.075 A 
HETATM    9  C10 UNK     1      18.937  -0.520  32.747  1.00  0.00     0.072 A 
HETATM   10  C11 UNK     1      18.304   0.080  33.836  1.00  0.00     0.038 A 
HETATM   11  C16 UNK     1      20.604  -3.993  35.546  1.00  0.00     0.184 A 
ENDROOT
BRANCH   6  12
HETATM   12  O2  UNK     1      20.212  -4.177  37.878  1.00  0.00    -0.305 OA
BRANCH  12  13
HETATM   13  C9  UNK     1      19.919  -5.513  37.911  1.00  0.00     0.076 A 
HETATM   14  C14 UNK     1      20.633  -6.355  38.759  1.00  0.00     0.038 A 
HETATM   15  C12 UNK     1      20.336  -7.717  38.793  1.00  0.00     0.010 A 
HETATM   16  C3  UNK     1      19.328  -8.231  37.979  1.00  0.00    -0.058 A 
HETATM   17  C13 UNK     1      18.615  -7.384  37.131  1.00  0.00     0.010 A 
HETATM   18  C15 UNK     1      18.912  -6.021  37.097  1.00  0.00     0.038 A 
BRANCH  16  19
HETATM   19  C6  UNK     1      19.009  -9.688  38.015  1.00  0.00     0.034 C 
HETATM   20  C17 UNK     1      20.163 -10.548  37.507  1.00  0.00     0.010 C 
ENDBRANCH  16  19
ENDBRANCH  12  13
ENDBRANCH   6  12
BRANCH   9  21
HETATM   21  O3  UNK     1      18.839   0.042  31.510  1.00  0.00    -0.341 OA
BRANCH  21  22
HETATM   22  C18 UNK     1      19.976  -0.068  30.656  1.00  0.00     0.286 C 
BRANCH  22  23
HETATM   23  C19 UNK     1      19.592   0.388  29.273  1.00  0.00     0.282 C 
HETATM   24  O6  UNK     1      19.693  -0.288  28.258  1.00  0.00    -0.263 OA
BRANCH  23  25
HETATM   25  O5  UNK     1      19.119   1.667  29.342  1.00  0.00    -0.325 OA
HETATM   26  C20 UNK     1      17.913   1.919  28.615  1.00  0.00     0.213 C 
ENDBRANCH  23  25
ENDBRANCH  22  23
ENDBRANCH  21  22
ENDBRANCH   9  21
TORSDOF 7
ENDMDL
MODEL 2
REMARK VINA RESULT:      -8.0      1.742      2.204
REMARK  7 active torsions:
REMARK  status: ('A' for Active; 'I' for Inactive)
REMARK    1  A    between atoms: C5_11  and  O2_2 
REMARK    2  A    between atoms: C9_15  and  O2_2 
REMARK    3  A    between atoms: C10_16  and  O3_3 
REMARK    4  A    between atoms: C18_24  and  O3_3 
REMARK    5  A    between atoms: C19_25  and  O5_5 
REMARK    6  A    between atoms: C3_9  and  C6_12 
REMARK    7  A    between atoms: C18_24  and  C19_25 
ROOT
HETATM    1  O1  UNK     1      19.820  -2.033  34.568  1.00  0.00    -0.319 OA
HETATM    2  O4  UNK     1      18.583  -1.518  38.425  1.00  0.00    -0.284 OA
HETATM    3  C1  UNK     1      18.545  -0.747  36.190  1.00  0.00     0.051 A 
HETATM    4  C2  UNK     1      19.001  -0.978  34.891  1.00  0.00     0.092 A 
HETATM    5  C4  UNK     1      18.951  -1.668  37.268  1.00  0.00     0.220 A 
HETATM    6  C5  UNK     1      19.831  -2.787  36.864  1.00  0.00     0.149 A 
HETATM    7  C7  UNK     1      17.713   0.343  36.461  1.00  0.00     0.021 A 
HETATM    8  C8  UNK     1      18.629  -0.120  33.856  1.00  0.00     0.075 A 
HETATM    9  C10 UNK     1      17.799   0.969  34.125  1.00  0.00     0.072 A 
HETATM   10  C11 UNK     1      17.342   1.199  35.423  1.00  0.00     0.038 A 
HETATM   11  C16 UNK     1      20.190  -2.883  35.581  1.00  0.00     0.184 A 
ENDROOT
BRANCH   6  12
HETATM   12  O2  UNK     1      20.255  -3.691  37.810  1.00  0.00    -0.305 OA
BRANCH  12  13
HETATM   13  C9  UNK     1      20.233  -5.013  37.459  1.00  0.00     0.076 A 
HETATM   14  C14 UNK     1      21.376  -5.790  37.626  1.00  0.00     0.038 A 
HETATM   15  C12 UNK     1      21.355  -7.138  37.268  1.00  0.00     0.010 A 
HETATM   16  C3  UNK     1      20.192  -7.702  36.745  1.00  0.00    -0.058 A 
HETATM   17  C13 UNK     1      19.049  -6.919  36.580  1.00  0.00     0.010 A 
HETATM   18  C15 UNK     1      19.070  -5.571  36.938  1.00  0.00     0.038 A 
BRANCH  16  19
HETATM   19  C6  UNK     1      20.168  -9.143  36.362  1.00  0.00     0.034 C 
HETATM   20  C17 UNK     1      19.189  -9.954  37.207  1.00  0.00     0.010 C 
ENDBRANCH  16  19
ENDBRANCH  12  13
ENDBRANCH   6  12
BRANCH   9  21
HETATM   21  O3  UNK     1      17.433   1.810  33.117  1.00  0.00    -0.341 OA
BRANCH  21  22
HETATM   22  C18 UNK     1      18.154   3.035  33.002  1.00  0.00     0.286 C 
BRANCH  22  23
HETATM   23  C19 UNK     1      18.140   3.473  31.561  1.00  0.00     0.282 C 
HETATM   24  O6  UNK     1      18.704   4.468  31.126  1.00  0.00    -0.263 OA
BRANCH  23  25
HETATM   25  O5  UNK     1      17.402   2.586  30.833  1.00  0.00    -0.325 OA
HETATM   26  C20 UNK     1      17.986   2.166  29.596  1.00  0.00     0.213 C 
ENDBRANCH  23  25
ENDBRANCH  22  23
ENDBRANCH  21  22
ENDBRANCH   9  21
TORSDOF 7
ENDMDL
MODEL 3
REMARK VINA RESULT:      -8.0     25.351     28.399
REMARK  7 active torsions:
REMARK  status: ('A' for Active; 'I' for Inactive)
REMARK    1  A    between atoms: C5_11  and  O2_2 
REMARK    2  A    between atoms: C9_15  and  O2_2 
REMARK    3  A    between atoms: C10_16  and  O3_3 
REMARK    4  A    between atoms: C18_24  and  O3_3 
REMARK    5  A    between atoms: C19_25  and  O5_5 
REMARK    6  A    between atoms: C3_9  and  C6_12 
REMARK    7  A    between atoms: C18_24  and  C19_25 
ROOT
HETATM    1  O1  UNK     1      10.054   4.435  10.084  1.00  0.00    -0.319 OA
HETATM    2  O4  UNK     1       7.683   6.563   7.529  1.00  0.00    -0.284 OA
HETATM    3  C1  UNK     1       9.870   5.976   8.212  1.00  0.00     0.051 A 
HETATM    4  C2  UNK     1      10.624   5.224   9.115  1.00  0.00     0.092 A 
HETATM    5  C4  UNK     1       8.398   5.928   8.293  1.00  0.00     0.220 A 
HETATM    6  C5  UNK     1       7.837   5.062   9.353  1.00  0.00     0.149 A 
HETATM    7  C7  UNK     1      10.504   6.761   7.245  1.00  0.00     0.021 A 
HETATM    8  C8  UNK     1      12.018   5.255   9.056  1.00  0.00     0.075 A 
HETATM    9  C10 UNK     1      12.653   6.038   8.092  1.00  0.00     0.072 A 
HETATM   10  C11 UNK     1      11.899   6.789   7.190  1.00  0.00     0.038 A 
HETATM   11  C16 UNK     1       8.682   4.399  10.148  1.00  0.00     0.184 A 
ENDROOT
BRANCH   6  12
HETATM   12  O2  UNK     1       6.473   4.961   9.495  1.00  0.00    -0.305 OA
BRANCH  12  13
HETATM   13  C9  UNK     1       6.009   4.337  10.620  1.00  0.00     0.076 A 
HETATM   14  C14 UNK     1       5.778   2.964  10.603  1.00  0.00     0.038 A 
HETATM   15  C12 UNK     1       5.304   2.328  11.750  1.00  0.00     0.010 A 
HETATM   16  C3  UNK     1       5.063   3.065  12.908  1.00  0.00    -0.058 A 
HETATM   17  C13 UNK     1       5.296   4.441  12.921  1.00  0.00     0.010 A 
HETATM   18  C15 UNK     1       5.770   5.078  11.774  1.00  0.00     0.038 A 
BRANCH  16  19
HETATM   19  C6  UNK     1       4.557   2.385  14.135  1.00  0.00     0.034 C 
HETATM   20  C17 UNK     1       5.685   1.946  15.064  1.00  0.00     0.010 C 
ENDBRANCH  16  19
ENDBRANCH  12  13
ENDBRANCH   6  12
BRANCH   9  21
HETATM   21  O3  UNK     1      14.014   6.071   8.032  1.00  0.00    -0.341 OA
BRANCH  21  22
HETATM   22  C18 UNK     1      14.704   6.511   9.200  1.00  0.00     0.286 C 
BRANCH  22  23
HETATM   23  C19 UNK     1      15.803   5.532   9.513  1.00  0.00     0.282 C 
HETATM   24  O6  UNK     1      15.643   4.332   9.695  1.00  0.00    -0.263 OA
BRANCH  23  25
HETATM   25  O5  UNK     1      16.993   6.199   9.560  1.00  0.00    -0.325 OA
HETATM   26  C20 UNK     1      17.013   7.366  10.387  1.00  0.00     0.213 C 
ENDBRANCH  23  25
ENDBRANCH  22  23
ENDBRANCH  21  22
ENDBRANCH   9  21
TORSDOF 7
ENDMDL
MODEL 4
REMARK VINA RESULT:      -8.0      6.194     11.644
REMARK  7 active torsions:
REMARK  status: ('A' for Active; 'I' for Inactive)
REMARK    1  A    between atoms: C5_11  and  O2_2 
REMARK    2  A    between atoms: C9_15  and  O2_2 
REMARK    3  A    between atoms: C10_16  and  O3_3 
REMARK    4  A    between atoms: C18_24  and  O3_3 
REMARK    5  A    between atoms: C19_25  and  O5_5 
REMARK    6  A    between atoms: C3_9  and  C6_12 
REMARK    7  A    between atoms: C18_24  and  C19_25 
ROOT
HETATM    1  O1  UNK     1      18.030   3.659  33.546  1.00  0.00    -0.319 OA
HETATM    2  O4  UNK     1      19.008   7.025  31.452  1.00  0.00    -0.284 OA
HETATM    3  C1  UNK     1      18.636   4.690  31.429  1.00  0.00     0.051 A 
HETATM    4  C2  UNK     1      18.296   3.577  32.201  1.00  0.00     0.092 A 
HETATM    5  C4  UNK     1      18.716   6.014  32.075  1.00  0.00     0.220 A 
HETATM    6  C5  UNK     1      18.419   6.045  33.524  1.00  0.00     0.149 A 
HETATM    7  C7  UNK     1      18.896   4.548  30.063  1.00  0.00     0.021 A 
HETATM    8  C8  UNK     1      18.214   2.316  31.610  1.00  0.00     0.075 A 
HETATM    9  C10 UNK     1      18.474   2.172  30.247  1.00  0.00     0.072 A 
HETATM   10  C11 UNK     1      18.813   3.284  29.476  1.00  0.00     0.038 A 
HETATM   11  C16 UNK     1      18.107   4.898  34.135  1.00  0.00     0.184 A 
ENDROOT
BRANCH   6  12
HETATM   12  O2  UNK     1      18.471   7.240  34.202  1.00  0.00    -0.305 OA
BRANCH  12  13
HETATM   13  C9  UNK     1      17.352   8.026  34.162  1.00  0.00     0.076 A 
HETATM   14  C14 UNK     1      17.483   9.412  34.126  1.00  0.00     0.038 A 
HETATM   15  C12 UNK     1      16.342  10.213  34.087  1.00  0.00     0.010 A 
HETATM   16  C3  UNK     1      15.077   9.627  34.085  1.00  0.00    -0.058 A 
HETATM   17  C13 UNK     1      14.951   8.238  34.121  1.00  0.00     0.010 A 
HETATM   18  C15 UNK     1      16.092   7.436  34.161  1.00  0.00     0.038 A 
BRANCH  16  19
HETATM   19  C6  UNK     1      13.857  10.484  34.043  1.00  0.00     0.034 C 
HETATM   20  C17 UNK     1      13.779  11.324  32.771  1.00  0.00     0.010 C 
ENDBRANCH  16  19
ENDBRANCH  12  13
ENDBRANCH   6  12
BRANCH   9  21
HETATM   21  O3  UNK     1      18.396   0.942  29.667  1.00  0.00    -0.341 OA
BRANCH  21  22
HETATM   22  C18 UNK     1      19.570   0.454  29.021  1.00  0.00     0.286 C 
BRANCH  22  23
HETATM   23  C19 UNK     1      20.360  -0.368  30.004  1.00  0.00     0.282 C 
HETATM   24  O6  UNK     1      20.936   0.077  30.987  1.00  0.00    -0.263 OA
BRANCH  23  25
HETATM   25  O5  UNK     1      20.327  -1.677  29.617  1.00  0.00    -0.325 OA
HETATM   26  C20 UNK     1      20.588  -2.632  30.650  1.00  0.00     0.213 C 
ENDBRANCH  23  25
ENDBRANCH  22  23
ENDBRANCH  21  22
ENDBRANCH   9  21
TORSDOF 7
ENDMDL
MODEL 5
REMARK VINA RESULT:      -8.0     12.893     15.218
REMARK  7 active torsions:
REMARK  status: ('A' for Active; 'I' for Inactive)
REMARK    1  A    between atoms: C5_11  and  O2_2 
REMARK    2  A    between atoms: C9_15  and  O2_2 
REMARK    3  A    between atoms: C10_16  and  O3_3 
REMARK    4  A    between atoms: C18_24  and  O3_3 
REMARK    5  A    between atoms: C19_25  and  O5_5 
REMARK    6  A    between atoms: C3_9  and  C6_12 
REMARK    7  A    between atoms: C18_24  and  C19_25 
ROOT
HETATM    1  O1  UNK     1      33.256  -6.809  37.981  1.00  0.00    -0.319 OA
HETATM    2  O4  UNK     1      33.782  -3.686  35.403  1.00  0.00    -0.284 OA
HETATM    3  C1  UNK     1      32.409  -4.747  37.009  1.00  0.00     0.051 A 
HETATM    4  C2  UNK     1      32.289  -5.839  37.872  1.00  0.00     0.092 A 
HETATM    5  C4  UNK     1      33.619  -4.620  36.177  1.00  0.00     0.220 A 
HETATM    6  C5  UNK     1      34.628  -5.691  36.335  1.00  0.00     0.149 A 
HETATM    7  C7  UNK     1      31.393  -3.789  36.940  1.00  0.00     0.021 A 
HETATM    8  C8  UNK     1      31.153  -5.978  38.669  1.00  0.00     0.075 A 
HETATM    9  C10 UNK     1      30.138  -5.023  38.601  1.00  0.00     0.072 A 
HETATM   10  C11 UNK     1      30.258  -3.932  37.739  1.00  0.00     0.038 A 
HETATM   11  C16 UNK     1      34.378  -6.678  37.200  1.00  0.00     0.184 A 
ENDROOT
BRANCH   6  12
HETATM   12  O2  UNK     1      35.786  -5.646  35.595  1.00  0.00    -0.305 OA
BRANCH  12  13
HETATM   13  C9  UNK     1      35.914  -6.560  34.585  1.00  0.00     0.076 A 
HETATM   14  C14 UNK     1      36.941  -7.499  34.631  1.00  0.00     0.038 A 
HETATM   15  C12 UNK     1      37.072  -8.431  33.601  1.00  0.00     0.010 A 
HETATM   16  C3  UNK     1      36.179  -8.419  32.531  1.00  0.00    -0.058 A 
HETATM   17  C13 UNK     1      35.151  -7.475  32.490  1.00  0.00     0.010 A 
HETATM   18  C15 UNK     1      35.020  -6.544  33.519  1.00  0.00     0.038 A 
BRANCH  16  19
HETATM   19  C6  UNK     1      36.319  -9.415  31.430  1.00  0.00     0.034 C 
HETATM   20  C17 UNK     1      37.570 -10.276  31.580  1.00  0.00     0.010 C 
ENDBRANCH  16  19
ENDBRANCH  12  13
ENDBRANCH   6  12
BRANCH   9  21
HETATM   21  O3  UNK     1      29.027  -5.156  39.377  1.00  0.00    -0.341 OA
BRANCH  21  22
HETATM   22  C18 UNK     1      28.255  -6.344  39.207  1.00  0.00     0.286 C 
BRANCH  22  23
HETATM   23  C19 UNK     1      26.898  -5.970  38.675  1.00  0.00     0.282 C 
HETATM   24  O6  UNK     1      26.344  -4.895  38.861  1.00  0.00    -0.263 OA
BRANCH  23  25
HETATM   25  O5  UNK     1      26.395  -7.019  37.960  1.00  0.00    -0.325 OA
HETATM   26  C20 UNK     1      25.978  -8.148  38.733  1.00  0.00     0.213 C 
ENDBRANCH  23  25
ENDBRANCH  22  23
ENDBRANCH  21  22
ENDBRANCH   9  21
TORSDOF 7
ENDMDL
MODEL 6
REMARK VINA RESULT:      -8.0      8.291     13.588
REMARK  7 active torsions:
REMARK  status: ('A' for Active; 'I' for Inactive)
REMARK    1  A    between atoms: C5_11  and  O2_2 
REMARK    2  A    between atoms: C9_15  and  O2_2 
REMARK    3  A    between atoms: C10_16  and  O3_3 
REMARK    4  A    between atoms: C18_24  and  O3_3 
REMARK    5  A    between atoms: C19_25  and  O5_5 
REMARK    6  A    between atoms: C3_9  and  C6_12 
REMARK    7  A    between atoms: C18_24  and  C19_25 
ROOT
HETATM    1  O1  UNK     1      16.062   6.394  33.000  1.00  0.00    -0.319 OA
HETATM    2  O4  UNK     1      18.941   8.880  34.484  1.00  0.00    -0.284 OA
HETATM    3  C1  UNK     1      18.400   7.056  33.080  1.00  0.00     0.051 A 
HETATM    4  C2  UNK     1      17.369   6.239  32.609  1.00  0.00     0.092 A 
HETATM    5  C4  UNK     1      18.082   8.132  34.037  1.00  0.00     0.220 A 
HETATM    6  C5  UNK     1      16.659   8.255  34.422  1.00  0.00     0.149 A 
HETATM    7  C7  UNK     1      19.714   6.853  32.647  1.00  0.00     0.021 A 
HETATM    8  C8  UNK     1      17.648   5.215  31.704  1.00  0.00     0.075 A 
HETATM    9  C10 UNK     1      18.958   5.011  31.271  1.00  0.00     0.072 A 
HETATM   10  C11 UNK     1      19.988   5.827  31.741  1.00  0.00     0.038 A 
HETATM   11  C16 UNK     1      15.780   7.401  33.891  1.00  0.00     0.184 A 
ENDROOT
BRANCH   6  12
HETATM   12  O2  UNK     1      16.279   9.234  35.310  1.00  0.00    -0.305 OA
BRANCH  12  13
HETATM   13  C9  UNK     1      15.589  10.300  34.801  1.00  0.00     0.076 A 
HETATM   14  C14 UNK     1      16.284  11.393  34.293  1.00  0.00     0.038 A 
HETATM   15  C12 UNK     1      15.581  12.481  33.775  1.00  0.00     0.010 A 
HETATM   16  C3  UNK     1      14.187  12.471  33.769  1.00  0.00    -0.058 A 
HETATM   17  C13 UNK     1      13.494  11.373  34.280  1.00  0.00     0.010 A 
HETATM   18  C15 UNK     1      14.198  10.285  34.798  1.00  0.00     0.038 A 
BRANCH  16  19
HETATM   19  C6  UNK     1      13.434  13.634  33.216  1.00  0.00     0.034 C 
HETATM   20  C17 UNK     1      14.289  14.491  32.286  1.00  0.00     0.010 C 
ENDBRANCH  16  19
ENDBRANCH  12  13
ENDBRANCH   6  12
BRANCH   9  21
HETATM   21  O3  UNK     1      19.234   4.012  30.387  1.00  0.00    -0.341 OA
BRANCH  21  22
HETATM   22  C18 UNK     1      18.410   2.849  30.446  1.00  0.00     0.286 C 
BRANCH  22  23
HETATM   23  C19 UNK     1      18.508   2.116  29.134  1.00  0.00     0.282 C 
HETATM   24  O6  UNK     1      17.876   2.397  28.125  1.00  0.00    -0.263 OA
BRANCH  23  25
HETATM   25  O5  UNK     1      19.409   1.098  29.259  1.00  0.00    -0.325 OA
HETATM   26  C20 UNK     1      19.511   0.522  30.565  1.00  0.00     0.213 C 
ENDBRANCH  23  25
ENDBRANCH  22  23
ENDBRANCH  21  22
ENDBRANCH   9  21
TORSDOF 7
ENDMDL
MODEL 7
REMARK VINA RESULT:      -7.9     13.142     14.697
REMARK  7 active torsions:
REMARK  status: ('A' for Active; 'I' for Inactive)
REMARK    1  A    between atoms: C5_11  and  O2_2 
REMARK    2  A    between atoms: C9_15  and  O2_2 
REMARK    3  A    between atoms: C10_16  and  O3_3 
REMARK    4  A    between atoms: C18_24  and  O3_3 
REMARK    5  A    between atoms: C19_25  and  O5_5 
REMARK    6  A    between atoms: C3_9  and  C6_12 
REMARK    7  A    between atoms: C18_24  and  C19_25 
ROOT
HETATM    1  O1  UNK     1      32.736  -5.501  34.189  1.00  0.00    -0.319 OA
HETATM    2  O4  UNK     1      34.846  -5.999  37.650  1.00  0.00    -0.284 OA
HETATM    3  C1  UNK     1      34.748  -6.289  35.305  1.00  0.00     0.051 A 
HETATM    4  C2  UNK     1      33.977  -6.090  34.158  1.00  0.00     0.092 A 
HETATM    5  C4  UNK     1      34.217  -5.852  36.610  1.00  0.00     0.220 A 
HETATM    6  C5  UNK     1      32.878  -5.223  36.586  1.00  0.00     0.149 A 
HETATM    7  C7  UNK     1      36.004  -6.893  35.213  1.00  0.00     0.021 A 
HETATM    8  C8  UNK     1      34.459  -6.495  32.913  1.00  0.00     0.075 A 
HETATM    9  C10 UNK     1      35.714  -7.099  32.820  1.00  0.00     0.072 A 
HETATM   10  C11 UNK     1      36.484  -7.297  33.966  1.00  0.00     0.038 A 
HETATM   11  C16 UNK     1      32.255  -5.098  35.411  1.00  0.00     0.184 A 
ENDROOT
BRANCH   6  12
HETATM   12  O2  UNK     1      32.313  -4.788  37.761  1.00  0.00    -0.305 OA
BRANCH  12  13
HETATM   13  C9  UNK     1      31.138  -5.377  38.142  1.00  0.00     0.076 A 
HETATM   14  C14 UNK     1      30.041  -4.584  38.465  1.00  0.00     0.038 A 
HETATM   15  C12 UNK     1      28.844  -5.185  38.854  1.00  0.00     0.010 A 
HETATM   16  C3  UNK     1      28.750  -6.574  38.920  1.00  0.00    -0.058 A 
HETATM   17  C13 UNK     1      29.853  -7.365  38.596  1.00  0.00     0.010 A 
HETATM   18  C15 UNK     1      31.050  -6.764  38.206  1.00  0.00     0.038 A 
BRANCH  16  19
HETATM   19  C6  UNK     1      27.470  -7.217  39.336  1.00  0.00     0.034 C 
HETATM   20  C17 UNK     1      27.640  -8.701  39.652  1.00  0.00     0.010 C 
ENDBRANCH  16  19
ENDBRANCH  12  13
ENDBRANCH   6  12
BRANCH   9  21
HETATM   21  O3  UNK     1      36.188  -7.496  31.606  1.00  0.00    -0.341 OA
BRANCH  21  22
HETATM   22  C18 UNK     1      35.269  -8.152  30.734  1.00  0.00     0.286 C 
BRANCH  22  23
HETATM   23  C19 UNK     1      35.089  -7.313  29.497  1.00  0.00     0.282 C 
HETATM   24  O6  UNK     1      35.496  -6.168  29.362  1.00  0.00    -0.263 OA
BRANCH  23  25
HETATM   25  O5  UNK     1      34.404  -8.037  28.564  1.00  0.00    -0.325 OA
HETATM   26  C20 UNK     1      33.024  -8.275  28.860  1.00  0.00     0.213 C 
ENDBRANCH  23  25
ENDBRANCH  22  23
ENDBRANCH  21  22
ENDBRANCH   9  21
TORSDOF 7
ENDMDL
MODEL 8
REMARK VINA RESULT:      -7.9      2.624      4.561
REMARK  7 active torsions:
REMARK  status: ('A' for Active; 'I' for Inactive)
REMARK    1  A    between atoms: C5_11  and  O2_2 
REMARK    2  A    between atoms: C9_15  and  O2_2 
REMARK    3  A    between atoms: C10_16  and  O3_3 
REMARK    4  A    between atoms: C18_24  and  O3_3 
REMARK    5  A    between atoms: C19_25  and  O5_5 
REMARK    6  A    between atoms: C3_9  and  C6_12 
REMARK    7  A    between atoms: C18_24  and  C19_25 
ROOT
HETATM    1  O1  UNK     1      20.178  -5.712  34.581  1.00  0.00    -0.319 OA
HETATM    2  O4  UNK     1      19.975  -6.465  38.589  1.00  0.00    -0.284 OA
HETATM    3  C1  UNK     1      20.013  -4.860  36.853  1.00  0.00     0.051 A 
HETATM    4  C2  UNK     1      20.085  -4.670  35.471  1.00  0.00     0.092 A 
HETATM    5  C4  UNK     1      20.036  -6.234  37.389  1.00  0.00     0.220 A 
HETATM    6  C5  UNK     1      20.136  -7.318  36.387  1.00  0.00     0.149 A 
HETATM    7  C7  UNK     1      19.918  -3.762  37.712  1.00  0.00     0.021 A 
HETATM    8  C8  UNK     1      20.064  -3.379  34.942  1.00  0.00     0.075 A 
HETATM    9  C10 UNK     1      19.970  -2.281  35.799  1.00  0.00     0.072 A 
HETATM   10  C11 UNK     1      19.898  -2.472  37.179  1.00  0.00     0.038 A 
HETATM   11  C16 UNK     1      20.198  -6.985  35.094  1.00  0.00     0.184 A 
ENDROOT
BRANCH   6  12
HETATM   12  O2  UNK     1      20.163  -8.627  36.805  1.00  0.00    -0.305 OA
BRANCH  12  13
HETATM   13  C9  UNK     1      21.313  -9.331  36.571  1.00  0.00     0.076 A 
HETATM   14  C14 UNK     1      21.257 -10.531  35.867  1.00  0.00     0.038 A 
HETATM   15  C12 UNK     1      22.429 -11.249  35.629  1.00  0.00     0.010 A 
HETATM   16  C3  UNK     1      23.650 -10.765  36.097  1.00  0.00    -0.058 A 
HETATM   17  C13 UNK     1      23.701  -9.563  36.803  1.00  0.00     0.010 A 
HETATM   18  C15 UNK     1      22.529  -8.845  37.040  1.00  0.00     0.038 A 
BRANCH  16  19
HETATM   19  C6  UNK     1      24.903 -11.533  35.843  1.00  0.00     0.034 C 
HETATM   20  C17 UNK     1      24.742 -13.023  36.133  1.00  0.00     0.010 C 
ENDBRANCH  16  19
ENDBRANCH  12  13
ENDBRANCH   6  12
BRANCH   9  21
HETATM   21  O3  UNK     1      19.950  -1.019  35.286  1.00  0.00    -0.341 OA
BRANCH  21  22
HETATM   22  C18 UNK     1      18.717  -0.306  35.368  1.00  0.00     0.286 C 
BRANCH  22  23
HETATM   23  C19 UNK     1      17.989  -0.440  34.057  1.00  0.00     0.282 C 
HETATM   24  O6  UNK     1      16.864  -0.903  33.925  1.00  0.00    -0.263 OA
BRANCH  23  25
HETATM   25  O5  UNK     1      18.785   0.035  33.055  1.00  0.00    -0.325 OA
HETATM   26  C20 UNK     1      19.099  -0.901  32.020  1.00  0.00     0.213 C 
ENDBRANCH  23  25
ENDBRANCH  22  23
ENDBRANCH  21  22
ENDBRANCH   9  21
TORSDOF 7
ENDMDL
MODEL 9
REMARK VINA RESULT:      -7.9     26.653     28.775
REMARK  7 active torsions:
REMARK  status: ('A' for Active; 'I' for Inactive)
REMARK    1  A    between atoms: C5_11  and  O2_2 
REMARK    2  A    between atoms: C9_15  and  O2_2 
REMARK    3  A    between atoms: C10_16  and  O3_3 
REMARK    4  A    between atoms: C18_24  and  O3_3 
REMARK    5  A    between atoms: C19_25  and  O5_5 
REMARK    6  A    between atoms: C3_9  and  C6_12 
REMARK    7  A    between atoms: C18_24  and  C19_25 
ROOT
HETATM    1  O1  UNK     1      10.425   4.433   9.991  1.00  0.00    -0.319 OA
HETATM    2  O4  UNK     1       8.559   6.869   7.298  1.00  0.00    -0.284 OA
HETATM    3  C1  UNK     1      10.588   5.974   8.117  1.00  0.00     0.051 A 
HETATM    4  C2  UNK     1      11.166   5.125   9.064  1.00  0.00     0.092 A 
HETATM    5  C4  UNK     1       9.123   6.141   8.103  1.00  0.00     0.220 A 
HETATM    6  C5  UNK     1       8.375   5.372   9.121  1.00  0.00     0.149 A 
HETATM    7  C7  UNK     1      11.391   6.653   7.197  1.00  0.00     0.021 A 
HETATM    8  C8  UNK     1      12.550   4.952   9.095  1.00  0.00     0.075 A 
HETATM    9  C10 UNK     1      13.352   5.630   8.177  1.00  0.00     0.072 A 
HETATM   10  C11 UNK     1      12.775   6.478   7.231  1.00  0.00     0.038 A 
HETATM   11  C16 UNK     1       9.062   4.597   9.966  1.00  0.00     0.184 A 
ENDROOT
BRANCH   6  12
HETATM   12  O2  UNK     1       7.004   5.471   9.175  1.00  0.00    -0.305 OA
BRANCH  12  13
HETATM   13  C9  UNK     1       6.457   5.895  10.355  1.00  0.00     0.076 A 
HETATM   14  C14 UNK     1       5.575   5.066  11.043  1.00  0.00     0.038 A 
HETATM   15  C12 UNK     1       5.016   5.498  12.246  1.00  0.00     0.010 A 
HETATM   16  C3  UNK     1       5.341   6.755  12.754  1.00  0.00    -0.058 A 
HETATM   17  C13 UNK     1       6.225   7.582  12.061  1.00  0.00     0.010 A 
HETATM   18  C15 UNK     1       6.784   7.150  10.858  1.00  0.00     0.038 A 
BRANCH  16  19
HETATM   19  C6  UNK     1       4.744   7.217  14.040  1.00  0.00     0.034 C 
HETATM   20  C17 UNK     1       5.799   7.695  15.034  1.00  0.00     0.010 C 
ENDBRANCH  16  19
ENDBRANCH  12  13
ENDBRANCH   6  12
BRANCH   9  21
HETATM   21  O3  UNK     1      14.704   5.464   8.205  1.00  0.00    -0.341 OA
BRANCH  21  22
HETATM   22  C18 UNK     1      15.286   5.091   9.453  1.00  0.00     0.286 C 
BRANCH  22  23
HETATM   23  C19 UNK     1      15.897   6.312  10.089  1.00  0.00     0.282 C 
HETATM   24  O6  UNK     1      16.998   6.768   9.815  1.00  0.00    -0.263 OA
BRANCH  23  25
HETATM   25  O5  UNK     1      15.026   6.817  11.011  1.00  0.00    -0.325 OA
HETATM   26  C20 UNK     1      14.536   8.134  10.741  1.00  0.00     0.213 C 
ENDBRANCH  23  25
ENDBRANCH  22  23
ENDBRANCH  21  22
ENDBRANCH   9  21
TORSDOF 7
ENDMDL
MODEL 10
REMARK VINA RESULT:      -7.8      4.324      6.910
REMARK  7 active torsions:
REMARK  status: ('A' for Active; 'I' for Inactive)
REMARK    1  A    between atoms: C5_11  and  O2_2 
REMARK    2  A    between atoms: C9_15  and  O2_2 
REMARK    3  A    between atoms: C10_16  and  O3_3 
REMARK    4  A    between atoms: C18_24  and  O3_3 
REMARK    5  A    between atoms: C19_25  and  O5_5 
REMARK    6  A    between atoms: C3_9  and  C6_12 
REMARK    7  A    between atoms: C18_24  and  C19_25 
ROOT
HETATM    1  O1  UNK     1      18.114   3.094  34.386  1.00  0.00    -0.319 OA
HETATM    2  O4  UNK     1      18.539   1.296  30.745  1.00  0.00    -0.284 OA
HETATM    3  C1  UNK     1      18.461   3.305  31.989  1.00  0.00     0.051 A 
HETATM    4  C2  UNK     1      18.309   3.859  33.262  1.00  0.00     0.092 A 
HETATM    5  C4  UNK     1      18.412   1.839  31.833  1.00  0.00     0.220 A 
HETATM    6  C5  UNK     1      18.201   1.064  33.076  1.00  0.00     0.149 A 
HETATM    7  C7  UNK     1      18.658   4.133  30.880  1.00  0.00     0.021 A 
HETATM    8  C8  UNK     1      18.353   5.243  33.432  1.00  0.00     0.075 A 
HETATM    9  C10 UNK     1      18.549   6.070  32.326  1.00  0.00     0.072 A 
HETATM   10  C11 UNK     1      18.701   5.517  31.054  1.00  0.00     0.038 A 
HETATM   11  C16 UNK     1      18.071   1.730  34.227  1.00  0.00     0.184 A 
ENDROOT
BRANCH   6  12
HETATM   12  O2  UNK     1      18.143  -0.308  33.017  1.00  0.00    -0.305 OA
BRANCH  12  13
HETATM   13  C9  UNK     1      18.625  -0.998  34.096  1.00  0.00     0.076 A 
HETATM   14  C14 UNK     1      19.810  -1.718  33.981  1.00  0.00     0.038 A 
HETATM   15  C12 UNK     1      20.301  -2.422  35.081  1.00  0.00     0.010 A 
HETATM   16  C3  UNK     1      19.605  -2.403  36.289  1.00  0.00    -0.058 A 
HETATM   17  C13 UNK     1      18.417  -1.679  36.399  1.00  0.00     0.010 A 
HETATM   18  C15 UNK     1      17.926  -0.975  35.299  1.00  0.00     0.038 A 
BRANCH  16  19
HETATM   19  C6  UNK     1      20.130  -3.155  37.465  1.00  0.00     0.034 C 
HETATM   20  C17 UNK     1      20.390  -4.625  37.147  1.00  0.00     0.010 C 
ENDBRANCH  16  19
ENDBRANCH  12  13
ENDBRANCH   6  12
BRANCH   9  21
HETATM   21  O3  UNK     1      18.592   7.422  32.488  1.00  0.00    -0.341 OA
BRANCH  21  22
HETATM   22  C18 UNK     1      17.415   8.052  32.992  1.00  0.00     0.286 C 
BRANCH  22  23
HETATM   23  C19 UNK     1      16.326   7.945  31.959  1.00  0.00     0.282 C 
HETATM   24  O6  UNK     1      16.364   8.451  30.845  1.00  0.00    -0.263 OA
BRANCH  23  25
HETATM   25  O5  UNK     1      15.301   7.201  32.467  1.00  0.00    -0.325 OA
HETATM   26  C20 UNK     1      14.897   7.535  33.798  1.00  0.00     0.213 C 
ENDBRANCH  23  25
ENDBRANCH  22  23
ENDBRANCH  21  22
ENDBRANCH   9  21
TORSDOF 7
ENDMDL
