MODEL 1
REMARK VINA RESULT:      -8.9      0.000      0.000
REMARK  6 active torsions:
REMARK  status: ('A' for Active; 'I' for Inactive)
REMARK    1  A    between atoms: C11_15  and  S1_1 
REMARK    2  A    between atoms: C17_21  and  S1_1 
REMARK       I    between atoms: C10_14  and  N1_3 
REMARK    3  A    between atoms: C2_6  and  N1_3 
REMARK    4  A    between atoms: C1_5  and  C7_11 
REMARK    5  A    between atoms: C8_12  and  C9_13 
REMARK    6  A    between atoms: C10_14  and  C11_15 
ROOT
HETATM    1  C1  UNK     1      18.289   6.290  31.567  1.00  0.00    -0.036 A 
HETATM    2  C2  UNK     1      18.668   3.692  30.680  1.00  0.00     0.034 A 
HETATM    3  C3  UNK     1      18.992   6.069  30.394  1.00  0.00     0.013 A 
HETATM    4  C4  UNK     1      17.771   5.238  32.305  1.00  0.00     0.013 A 
HETATM    5  C5  UNK     1      19.183   4.762  29.947  1.00  0.00     0.030 A 
HETATM    6  C6  UNK     1      17.962   3.930  31.859  1.00  0.00     0.030 A 
ENDROOT
BRANCH   2   7
HETATM    7  N1  UNK     1      18.861   2.384  30.234  1.00  0.00    -0.327 N 
HETATM    8  C10 UNK     1      18.466   1.817  29.014  1.00  0.00     0.231 C 
HETATM    9  O1  UNK     1      17.853   2.375  28.107  1.00  0.00    -0.272 OA
HETATM   10  H6  UNK     1      19.349   1.774  30.886  1.00  0.00     0.169 HD
BRANCH   8  11
HETATM   11  C11 UNK     1      18.857   0.360  28.894  1.00  0.00     0.184 C 
BRANCH  11  12
HETATM   12  S1  UNK     1      20.508   0.140  29.600  1.00  0.00    -0.101 SA
BRANCH  12  13
HETATM   13  C17 UNK     1      20.071  -0.655  31.169  1.00  0.00     0.093 A 
HETATM   14  N2  UNK     1      19.099  -0.055  31.868  1.00  0.00    -0.254 NA
HETATM   15  C21 UNK     1      18.776  -0.650  33.038  1.00  0.00     0.118 A 
HETATM   16  C20 UNK     1      19.384  -1.800  33.516  1.00  0.00     0.019 A 
HETATM   17  C19 UNK     1      20.387  -2.376  32.745  1.00  0.00     0.004 A 
HETATM   18  C18 UNK     1      20.747  -1.792  31.535  1.00  0.00     0.039 A 
ENDBRANCH  12  13
ENDBRANCH  11  12
ENDBRANCH   8  11
ENDBRANCH   2   7
BRANCH   1  19
HETATM   19  C7  UNK     1      18.088   7.670  32.040  1.00  0.00     0.012 C 
HETATM   20  C9  UNK     1      17.738   8.021  33.300  1.00  0.00     0.012 C 
BRANCH  20  21
HETATM   21  C8  UNK     1      17.557   9.384  33.773  1.00  0.00    -0.036 A 
HETATM   22  C12 UNK     1      18.646  10.255  33.822  1.00  0.00     0.011 A 
HETATM   23  C14 UNK     1      18.472  11.564  34.273  1.00  0.00     0.001 A 
HETATM   24  C16 UNK     1      17.209  12.001  34.676  1.00  0.00     0.000 A 
HETATM   25  C15 UNK     1      16.122  11.129  34.627  1.00  0.00     0.001 A 
HETATM   26  C13 UNK     1      16.296   9.821  34.175  1.00  0.00     0.011 A 
ENDBRANCH  20  21
ENDBRANCH   1  19
TORSDOF 6
ENDMDL
MODEL 2
REMARK VINA RESULT:      -8.6      3.593      9.324
REMARK  6 active torsions:
REMARK  status: ('A' for Active; 'I' for Inactive)
REMARK    1  A    between atoms: C11_15  and  S1_1 
REMARK    2  A    between atoms: C17_21  and  S1_1 
REMARK       I    between atoms: C10_14  and  N1_3 
REMARK    3  A    between atoms: C2_6  and  N1_3 
REMARK    4  A    between atoms: C1_5  and  C7_11 
REMARK    5  A    between atoms: C8_12  and  C9_13 
REMARK    6  A    between atoms: C10_14  and  C11_15 
ROOT
HETATM    1  C1  UNK     1      18.655   4.106  30.798  1.00  0.00    -0.036 A 
HETATM    2  C2  UNK     1      17.546   6.523  31.578  1.00  0.00     0.034 A 
HETATM    3  C3  UNK     1      18.843   5.227  30.005  1.00  0.00     0.013 A 
HETATM    4  C4  UNK     1      17.923   4.170  31.973  1.00  0.00     0.013 A 
HETATM    5  C5  UNK     1      18.285   6.443  30.397  1.00  0.00     0.030 A 
HETATM    6  C6  UNK     1      17.365   5.386  32.366  1.00  0.00     0.030 A 
ENDROOT
BRANCH   2   7
HETATM    7  N1  UNK     1      16.986   7.740  31.969  1.00  0.00    -0.327 N 
HETATM    8  C10 UNK     1      15.629   8.068  32.100  1.00  0.00     0.231 C 
HETATM    9  O1  UNK     1      14.669   7.333  31.875  1.00  0.00    -0.272 OA
HETATM   10  H6  UNK     1      17.657   8.475  32.182  1.00  0.00     0.169 HD
BRANCH   8  11
HETATM   11  C11 UNK     1      15.414   9.496  32.550  1.00  0.00     0.184 C 
BRANCH  11  12
HETATM   12  S1  UNK     1      15.657   9.585  34.341  1.00  0.00    -0.101 SA
BRANCH  12  13
HETATM   13  C17 UNK     1      17.447   9.314  34.425  1.00  0.00     0.093 A 
HETATM   14  N2  UNK     1      17.828   8.102  34.849  1.00  0.00    -0.254 NA
HETATM   15  C21 UNK     1      19.164   7.904  34.911  1.00  0.00     0.118 A 
HETATM   16  C20 UNK     1      20.106   8.861  34.569  1.00  0.00     0.019 A 
HETATM   17  C19 UNK     1      19.648  10.100  34.136  1.00  0.00     0.004 A 
HETATM   18  C18 UNK     1      18.281  10.342  34.060  1.00  0.00     0.039 A 
ENDBRANCH  12  13
ENDBRANCH  11  12
ENDBRANCH   8  11
ENDBRANCH   2   7
BRANCH   1  19
HETATM   19  C7  UNK     1      19.243   2.821  30.384  1.00  0.00     0.012 C 
HETATM   20  C9  UNK     1      19.006   1.627  30.976  1.00  0.00     0.012 C 
BRANCH  20  21
HETATM   21  C8  UNK     1      19.571   0.354  30.556  1.00  0.00    -0.036 A 
HETATM   22  C12 UNK     1      19.592  -0.725  31.439  1.00  0.00     0.011 A 
HETATM   23  C14 UNK     1      20.133  -1.947  31.035  1.00  0.00     0.001 A 
HETATM   24  C16 UNK     1      20.653  -2.088  29.748  1.00  0.00     0.000 A 
HETATM   25  C15 UNK     1      20.632  -1.007  28.866  1.00  0.00     0.001 A 
HETATM   26  C13 UNK     1      20.091   0.213  29.270  1.00  0.00     0.011 A 
ENDBRANCH  20  21
ENDBRANCH   1  19
TORSDOF 6
ENDMDL
MODEL 3
REMARK VINA RESULT:      -8.5      4.991      7.263
REMARK  6 active torsions:
REMARK  status: ('A' for Active; 'I' for Inactive)
REMARK    1  A    between atoms: C11_15  and  S1_1 
REMARK    2  A    between atoms: C17_21  and  S1_1 
REMARK       I    between atoms: C10_14  and  N1_3 
REMARK    3  A    between atoms: C2_6  and  N1_3 
REMARK    4  A    between atoms: C1_5  and  C7_11 
REMARK    5  A    between atoms: C8_12  and  C9_13 
REMARK    6  A    between atoms: C10_14  and  C11_15 
ROOT
HETATM    1  C1  UNK     1      18.370   1.419  34.580  1.00  0.00    -0.036 A 
HETATM    2  C2  UNK     1      18.556  -1.164  35.564  1.00  0.00     0.034 A 
HETATM    3  C3  UNK     1      18.364   0.354  33.695  1.00  0.00     0.013 A 
HETATM    4  C4  UNK     1      18.467   1.219  35.947  1.00  0.00     0.013 A 
HETATM    5  C5  UNK     1      18.458  -0.946  34.189  1.00  0.00     0.030 A 
HETATM    6  C6  UNK     1      18.561  -0.082  36.443  1.00  0.00     0.030 A 
ENDROOT
BRANCH   2   7
HETATM    7  N1  UNK     1      18.652  -2.466  36.059  1.00  0.00    -0.327 N 
HETATM    8  C10 UNK     1      19.793  -3.277  36.150  1.00  0.00     0.231 C 
HETATM    9  O1  UNK     1      20.931  -2.988  35.790  1.00  0.00    -0.272 OA
HETATM   10  H6  UNK     1      17.777  -2.866  36.390  1.00  0.00     0.169 HD
BRANCH   8  11
HETATM   11  C11 UNK     1      19.496  -4.635  36.746  1.00  0.00     0.184 C 
BRANCH  11  12
HETATM   12  S1  UNK     1      20.913  -5.154  37.745  1.00  0.00    -0.101 SA
BRANCH  12  13
HETATM   13  C17 UNK     1      21.279  -6.747  36.961  1.00  0.00     0.093 A 
HETATM   14  N2  UNK     1      22.222  -7.483  37.562  1.00  0.00    -0.254 NA
HETATM   15  C21 UNK     1      22.493  -8.670  36.974  1.00  0.00     0.118 A 
HETATM   16  C20 UNK     1      21.862  -9.129  35.829  1.00  0.00     0.019 A 
HETATM   17  C19 UNK     1      20.891  -8.319  35.252  1.00  0.00     0.004 A 
HETATM   18  C18 UNK     1      20.585  -7.091  35.827  1.00  0.00     0.039 A 
ENDBRANCH  12  13
ENDBRANCH  11  12
ENDBRANCH   8  11
ENDBRANCH   2   7
BRANCH   1  19
HETATM   19  C7  UNK     1      18.272   2.793  34.058  1.00  0.00     0.012 C 
HETATM   20  C9  UNK     1      18.329   3.138  32.750  1.00  0.00     0.012 C 
BRANCH  20  21
HETATM   21  C8  UNK     1      18.213   4.492  32.232  1.00  0.00    -0.036 A 
HETATM   22  C12 UNK     1      18.804   4.826  31.014  1.00  0.00     0.011 A 
HETATM   23  C14 UNK     1      18.691   6.125  30.516  1.00  0.00     0.001 A 
HETATM   24  C16 UNK     1      17.986   7.089  31.238  1.00  0.00     0.000 A 
HETATM   25  C15 UNK     1      17.395   6.754  32.457  1.00  0.00     0.001 A 
HETATM   26  C13 UNK     1      17.509   5.456  32.953  1.00  0.00     0.011 A 
ENDBRANCH  20  21
ENDBRANCH   1  19
TORSDOF 6
ENDMDL
MODEL 4
REMARK VINA RESULT:      -8.4      5.290      7.443
REMARK  6 active torsions:
REMARK  status: ('A' for Active; 'I' for Inactive)
REMARK    1  A    between atoms: C11_15  and  S1_1 
REMARK    2  A    between atoms: C17_21  and  S1_1 
REMARK       I    between atoms: C10_14  and  N1_3 
REMARK    3  A    between atoms: C2_6  and  N1_3 
REMARK    4  A    between atoms: C1_5  and  C7_11 
REMARK    5  A    between atoms: C8_12  and  C9_13 
REMARK    6  A    between atoms: C10_14  and  C11_15 
ROOT
HETATM    1  C1  UNK     1      18.346   1.506  34.387  1.00  0.00    -0.036 A 
HETATM    2  C2  UNK     1      18.546  -1.067  35.392  1.00  0.00     0.034 A 
HETATM    3  C3  UNK     1      18.387   0.436  33.508  1.00  0.00     0.013 A 
HETATM    4  C4  UNK     1      18.403   1.316  35.758  1.00  0.00     0.013 A 
HETATM    5  C5  UNK     1      18.487  -0.859  34.014  1.00  0.00     0.030 A 
HETATM    6  C6  UNK     1      18.504   0.020  36.265  1.00  0.00     0.030 A 
ENDROOT
BRANCH   2   7
HETATM    7  N1  UNK     1      18.649  -2.364  35.898  1.00  0.00    -0.327 N 
HETATM    8  C10 UNK     1      19.811  -3.104  36.159  1.00  0.00     0.231 C 
HETATM    9  O1  UNK     1      20.971  -2.742  35.972  1.00  0.00    -0.272 OA
HETATM   10  H6  UNK     1      17.761  -2.821  36.096  1.00  0.00     0.169 HD
BRANCH   8  11
HETATM   11  C11 UNK     1      19.515  -4.483  36.707  1.00  0.00     0.184 C 
BRANCH  11  12
HETATM   12  S1  UNK     1      20.948  -5.053  37.654  1.00  0.00    -0.101 SA
BRANCH  12  13
HETATM   13  C17 UNK     1      20.428  -6.752  38.010  1.00  0.00     0.093 A 
HETATM   14  N2  UNK     1      20.163  -7.511  36.939  1.00  0.00    -0.254 NA
HETATM   15  C21 UNK     1      19.774  -8.778  37.209  1.00  0.00     0.118 A 
HETATM   16  C20 UNK     1      19.646  -9.292  38.489  1.00  0.00     0.019 A 
HETATM   17  C19 UNK     1      19.935  -8.455  39.560  1.00  0.00     0.004 A 
HETATM   18  C18 UNK     1      20.338  -7.145  39.323  1.00  0.00     0.039 A 
ENDBRANCH  12  13
ENDBRANCH  11  12
ENDBRANCH   8  11
ENDBRANCH   2   7
BRANCH   1  19
HETATM   19  C7  UNK     1      18.241   2.876  33.853  1.00  0.00     0.012 C 
HETATM   20  C9  UNK     1      18.309   3.211  32.543  1.00  0.00     0.012 C 
BRANCH  20  21
HETATM   21  C8  UNK     1      18.186   4.560  32.014  1.00  0.00    -0.036 A 
HETATM   22  C12 UNK     1      18.851   4.912  30.840  1.00  0.00     0.011 A 
HETATM   23  C14 UNK     1      18.731   6.206  30.331  1.00  0.00     0.001 A 
HETATM   24  C16 UNK     1      17.946   7.147  30.998  1.00  0.00     0.000 A 
HETATM   25  C15 UNK     1      17.281   6.794  32.173  1.00  0.00     0.001 A 
HETATM   26  C13 UNK     1      17.402   5.501  32.680  1.00  0.00     0.011 A 
ENDBRANCH  20  21
ENDBRANCH   1  19
TORSDOF 6
ENDMDL
MODEL 5
REMARK VINA RESULT:      -8.4      5.173      7.281
REMARK  6 active torsions:
REMARK  status: ('A' for Active; 'I' for Inactive)
REMARK    1  A    between atoms: C11_15  and  S1_1 
REMARK    2  A    between atoms: C17_21  and  S1_1 
REMARK       I    between atoms: C10_14  and  N1_3 
REMARK    3  A    between atoms: C2_6  and  N1_3 
REMARK    4  A    between atoms: C1_5  and  C7_11 
REMARK    5  A    between atoms: C8_12  and  C9_13 
REMARK    6  A    between atoms: C10_14  and  C11_15 
ROOT
HETATM    1  C1  UNK     1      18.304   1.486  33.974  1.00  0.00    -0.036 A 
HETATM    2  C2  UNK     1      18.857  -0.720  35.555  1.00  0.00     0.034 A 
HETATM    3  C3  UNK     1      18.401   0.236  33.385  1.00  0.00     0.013 A 
HETATM    4  C4  UNK     1      18.477   1.655  35.338  1.00  0.00     0.013 A 
HETATM    5  C5  UNK     1      18.679  -0.874  34.180  1.00  0.00     0.030 A 
HETATM    6  C6  UNK     1      18.756   0.544  36.135  1.00  0.00     0.030 A 
ENDROOT
BRANCH   2   7
HETATM    7  N1  UNK     1      19.138  -1.832  36.351  1.00  0.00    -0.327 N 
HETATM    8  C10 UNK     1      20.296  -2.623  36.357  1.00  0.00     0.231 C 
HETATM    9  O1  UNK     1      21.284  -2.488  35.640  1.00  0.00    -0.272 OA
HETATM   10  H6  UNK     1      18.401  -2.092  37.003  1.00  0.00     0.169 HD
BRANCH   8  11
HETATM   11  C11 UNK     1      20.229  -3.748  37.368  1.00  0.00     0.184 C 
BRANCH  11  12
HETATM   12  S1  UNK     1      19.899  -5.298  36.494  1.00  0.00    -0.101 SA
BRANCH  12  13
HETATM   13  C17 UNK     1      20.564  -6.479  37.697  1.00  0.00     0.093 A 
HETATM   14  N2  UNK     1      21.866  -6.764  37.567  1.00  0.00    -0.254 NA
HETATM   15  C21 UNK     1      22.358  -7.647  38.465  1.00  0.00     0.118 A 
HETATM   16  C20 UNK     1      21.602  -8.237  39.465  1.00  0.00     0.019 A 
HETATM   17  C19 UNK     1      20.256  -7.900  39.549  1.00  0.00     0.004 A 
HETATM   18  C18 UNK     1      19.713  -6.997  38.642  1.00  0.00     0.039 A 
ENDBRANCH  12  13
ENDBRANCH  11  12
ENDBRANCH   8  11
ENDBRANCH   2   7
BRANCH   1  19
HETATM   19  C7  UNK     1      18.010   2.661  33.134  1.00  0.00     0.012 C 
HETATM   20  C9  UNK     1      18.306   3.943  33.454  1.00  0.00     0.012 C 
BRANCH  20  21
HETATM   21  C8  UNK     1      18.034   5.101  32.617  1.00  0.00    -0.036 A 
HETATM   22  C12 UNK     1      17.097   6.051  33.023  1.00  0.00     0.011 A 
HETATM   23  C14 UNK     1      16.837   7.163  32.221  1.00  0.00     0.001 A 
HETATM   24  C16 UNK     1      17.515   7.324  31.013  1.00  0.00     0.000 A 
HETATM   25  C15 UNK     1      18.452   6.373  30.606  1.00  0.00     0.001 A 
HETATM   26  C13 UNK     1      18.711   5.262  31.408  1.00  0.00     0.011 A 
ENDBRANCH  20  21
ENDBRANCH   1  19
TORSDOF 6
ENDMDL
MODEL 6
REMARK VINA RESULT:      -8.3      4.401     10.616
REMARK  6 active torsions:
REMARK  status: ('A' for Active; 'I' for Inactive)
REMARK    1  A    between atoms: C11_15  and  S1_1 
REMARK    2  A    between atoms: C17_21  and  S1_1 
REMARK       I    between atoms: C10_14  and  N1_3 
REMARK    3  A    between atoms: C2_6  and  N1_3 
REMARK    4  A    between atoms: C1_5  and  C7_11 
REMARK    5  A    between atoms: C8_12  and  C9_13 
REMARK    6  A    between atoms: C10_14  and  C11_15 
ROOT
HETATM    1  C1  UNK     1      18.483   4.923  31.272  1.00  0.00    -0.036 A 
HETATM    2  C2  UNK     1      17.441   7.192  32.472  1.00  0.00     0.034 A 
HETATM    3  C3  UNK     1      17.998   4.844  32.567  1.00  0.00     0.013 A 
HETATM    4  C4  UNK     1      18.457   6.113  30.564  1.00  0.00     0.013 A 
HETATM    5  C5  UNK     1      17.473   5.986  33.171  1.00  0.00     0.030 A 
HETATM    6  C6  UNK     1      17.933   7.257  31.168  1.00  0.00     0.030 A 
ENDROOT
BRANCH   2   7
HETATM    7  N1  UNK     1      16.919   8.336  33.078  1.00  0.00    -0.327 N 
HETATM    8  C10 UNK     1      17.605   9.334  33.783  1.00  0.00     0.231 C 
HETATM    9  O1  UNK     1      18.811   9.375  34.014  1.00  0.00    -0.272 OA
HETATM   10  H6  UNK     1      15.910   8.447  32.991  1.00  0.00     0.169 HD
BRANCH   8  11
HETATM   11  C11 UNK     1      16.688  10.423  34.295  1.00  0.00     0.184 C 
BRANCH  11  12
HETATM   12  S1  UNK     1      15.005  10.085  33.722  1.00  0.00    -0.101 SA
BRANCH  12  13
HETATM   13  C17 UNK     1      14.063  11.010  34.964  1.00  0.00     0.093 A 
HETATM   14  N2  UNK     1      14.484  10.873  36.227  1.00  0.00    -0.254 NA
HETATM   15  C21 UNK     1      13.779  11.564  37.151  1.00  0.00     0.118 A 
HETATM   16  C20 UNK     1      12.690  12.367  36.852  1.00  0.00     0.019 A 
HETATM   17  C19 UNK     1      12.301  12.469  35.521  1.00  0.00     0.004 A 
HETATM   18  C18 UNK     1      13.002  11.772  34.543  1.00  0.00     0.039 A 
ENDBRANCH  12  13
ENDBRANCH  11  12
ENDBRANCH   8  11
ENDBRANCH   2   7
BRANCH   1  19
HETATM   19  C7  UNK     1      19.037   3.717  30.633  1.00  0.00     0.012 C 
HETATM   20  C9  UNK     1      18.542   2.463  30.768  1.00  0.00     0.012 C 
BRANCH  20  21
HETATM   21  C8  UNK     1      19.078   1.275  30.123  1.00  0.00    -0.036 A 
HETATM   22  C12 UNK     1      18.673   0.941  28.830  1.00  0.00     0.011 A 
HETATM   23  C14 UNK     1      19.188  -0.198  28.210  1.00  0.00     0.001 A 
HETATM   24  C16 UNK     1      20.109  -1.002  28.884  1.00  0.00     0.000 A 
HETATM   25  C15 UNK     1      20.512  -0.667  30.176  1.00  0.00     0.001 A 
HETATM   26  C13 UNK     1      19.997   0.471  30.795  1.00  0.00     0.011 A 
ENDBRANCH  20  21
ENDBRANCH   1  19
TORSDOF 6
ENDMDL
MODEL 7
REMARK VINA RESULT:      -8.2      4.210     10.536
REMARK  6 active torsions:
REMARK  status: ('A' for Active; 'I' for Inactive)
REMARK    1  A    between atoms: C11_15  and  S1_1 
REMARK    2  A    between atoms: C17_21  and  S1_1 
REMARK       I    between atoms: C10_14  and  N1_3 
REMARK    3  A    between atoms: C2_6  and  N1_3 
REMARK    4  A    between atoms: C1_5  and  C7_11 
REMARK    5  A    between atoms: C8_12  and  C9_13 
REMARK    6  A    between atoms: C10_14  and  C11_15 
ROOT
HETATM    1  C1  UNK     1      18.655   4.312  31.024  1.00  0.00    -0.036 A 
HETATM    2  C2  UNK     1      17.843   6.743  32.075  1.00  0.00     0.034 A 
HETATM    3  C3  UNK     1      17.963   4.335  32.224  1.00  0.00     0.013 A 
HETATM    4  C4  UNK     1      18.949   5.479  30.339  1.00  0.00     0.013 A 
HETATM    5  C5  UNK     1      17.554   5.558  32.753  1.00  0.00     0.030 A 
HETATM    6  C6  UNK     1      18.540   6.704  30.868  1.00  0.00     0.030 A 
ENDROOT
BRANCH   2   7
HETATM    7  N1  UNK     1      17.435   7.968  32.606  1.00  0.00    -0.327 N 
HETATM    8  C10 UNK     1      18.077   8.748  33.579  1.00  0.00     0.231 C 
HETATM    9  O1  UNK     1      19.125   8.481  34.162  1.00  0.00    -0.272 OA
HETATM   10  H6  UNK     1      16.559   8.329  32.234  1.00  0.00     0.169 HD
BRANCH   8  11
HETATM   11  C11 UNK     1      17.323  10.020  33.898  1.00  0.00     0.184 C 
BRANCH  11  12
HETATM   12  S1  UNK     1      15.687   9.584  34.537  1.00  0.00    -0.101 SA
BRANCH  12  13
HETATM   13  C17 UNK     1      14.698  10.900  33.780  1.00  0.00     0.093 A 
HETATM   14  N2  UNK     1      15.243  12.122  33.811  1.00  0.00    -0.254 NA
HETATM   15  C21 UNK     1      14.502  13.102  33.246  1.00  0.00     0.118 A 
HETATM   16  C20 UNK     1      13.260  12.897  32.666  1.00  0.00     0.019 A 
HETATM   17  C19 UNK     1      12.747  11.605  32.665  1.00  0.00     0.004 A 
HETATM   18  C18 UNK     1      13.480  10.571  33.237  1.00  0.00     0.039 A 
ENDBRANCH  12  13
ENDBRANCH  11  12
ENDBRANCH   8  11
ENDBRANCH   2   7
BRANCH   1  19
HETATM   19  C7  UNK     1      19.088   3.019  30.465  1.00  0.00     0.012 C 
HETATM   20  C9  UNK     1      19.048   1.833  31.117  1.00  0.00     0.012 C 
BRANCH  20  21
HETATM   21  C8  UNK     1      19.457   0.554  30.559  1.00  0.00    -0.036 A 
HETATM   22  C12 UNK     1      19.619  -0.552  31.394  1.00  0.00     0.011 A 
HETATM   23  C14 UNK     1      20.010  -1.780  30.858  1.00  0.00     0.001 A 
HETATM   24  C16 UNK     1      20.238  -1.901  29.487  1.00  0.00     0.000 A 
HETATM   25  C15 UNK     1      20.077  -0.794  28.653  1.00  0.00     0.001 A 
HETATM   26  C13 UNK     1      19.686   0.433  29.189  1.00  0.00     0.011 A 
ENDBRANCH  20  21
ENDBRANCH   1  19
TORSDOF 6
ENDMDL
MODEL 8
REMARK VINA RESULT:      -8.2      4.963     11.964
REMARK  6 active torsions:
REMARK  status: ('A' for Active; 'I' for Inactive)
REMARK    1  A    between atoms: C11_15  and  S1_1 
REMARK    2  A    between atoms: C17_21  and  S1_1 
REMARK       I    between atoms: C10_14  and  N1_3 
REMARK    3  A    between atoms: C2_6  and  N1_3 
REMARK    4  A    between atoms: C1_5  and  C7_11 
REMARK    5  A    between atoms: C8_12  and  C9_13 
REMARK    6  A    between atoms: C10_14  and  C11_15 
ROOT
HETATM    1  C1  UNK     1      19.627  -3.389  36.551  1.00  0.00    -0.036 A 
HETATM    2  C2  UNK     1      19.226  -0.894  35.416  1.00  0.00     0.034 A 
HETATM    3  C3  UNK     1      18.895  -2.439  37.243  1.00  0.00     0.013 A 
HETATM    4  C4  UNK     1      20.163  -3.117  35.303  1.00  0.00     0.013 A 
HETATM    5  C5  UNK     1      18.693  -1.183  36.672  1.00  0.00     0.030 A 
HETATM    6  C6  UNK     1      19.962  -1.861  34.731  1.00  0.00     0.030 A 
ENDROOT
BRANCH   2   7
HETATM    7  N1  UNK     1      19.026   0.364  34.846  1.00  0.00    -0.327 N 
HETATM    8  C10 UNK     1      17.851   0.884  34.283  1.00  0.00     0.231 C 
HETATM    9  O1  UNK     1      16.771   0.309  34.174  1.00  0.00    -0.272 OA
HETATM   10  H6  UNK     1      19.843   0.971  34.842  1.00  0.00     0.169 HD
BRANCH   8  11
HETATM   11  C11 UNK     1      18.027   2.294  33.764  1.00  0.00     0.184 C 
BRANCH  11  12
HETATM   12  S1  UNK     1      18.416   2.221  31.998  1.00  0.00    -0.101 SA
BRANCH  12  13
HETATM   13  C17 UNK     1      18.343   3.986  31.592  1.00  0.00     0.093 A 
HETATM   14  N2  UNK     1      17.547   4.725  32.374  1.00  0.00    -0.254 NA
HETATM   15  C21 UNK     1      17.495   6.041  32.067  1.00  0.00     0.118 A 
HETATM   16  C20 UNK     1      18.199   6.622  31.025  1.00  0.00     0.019 A 
HETATM   17  C19 UNK     1      19.008   5.801  30.248  1.00  0.00     0.004 A 
HETATM   18  C18 UNK     1      19.088   4.443  30.532  1.00  0.00     0.039 A 
ENDBRANCH  12  13
ENDBRANCH  11  12
ENDBRANCH   8  11
ENDBRANCH   2   7
BRANCH   1  19
HETATM   19  C7  UNK     1      19.842  -4.716  37.154  1.00  0.00     0.012 C 
HETATM   20  C9  UNK     1      20.881  -5.051  37.956  1.00  0.00     0.012 C 
BRANCH  20  21
HETATM   21  C8  UNK     1      21.083  -6.355  38.567  1.00  0.00    -0.036 A 
HETATM   22  C12 UNK     1      22.363  -6.754  38.952  1.00  0.00     0.011 A 
HETATM   23  C14 UNK     1      22.557  -8.005  39.541  1.00  0.00     0.001 A 
HETATM   24  C16 UNK     1      21.470  -8.855  39.743  1.00  0.00     0.000 A 
HETATM   25  C15 UNK     1      20.190  -8.456  39.357  1.00  0.00     0.001 A 
HETATM   26  C13 UNK     1      19.997  -7.206  38.769  1.00  0.00     0.011 A 
ENDBRANCH  20  21
ENDBRANCH   1  19
TORSDOF 6
ENDMDL
MODEL 9
REMARK VINA RESULT:      -8.2      3.780     10.427
REMARK  6 active torsions:
REMARK  status: ('A' for Active; 'I' for Inactive)
REMARK    1  A    between atoms: C11_15  and  S1_1 
REMARK    2  A    between atoms: C17_21  and  S1_1 
REMARK       I    between atoms: C10_14  and  N1_3 
REMARK    3  A    between atoms: C2_6  and  N1_3 
REMARK    4  A    between atoms: C1_5  and  C7_11 
REMARK    5  A    between atoms: C8_12  and  C9_13 
REMARK    6  A    between atoms: C10_14  and  C11_15 
ROOT
HETATM    1  C1  UNK     1      18.629   4.191  30.893  1.00  0.00    -0.036 A 
HETATM    2  C2  UNK     1      17.568   6.604  31.746  1.00  0.00     0.034 A 
HETATM    3  C3  UNK     1      17.916   4.238  32.080  1.00  0.00     0.013 A 
HETATM    4  C4  UNK     1      18.821   5.327  30.123  1.00  0.00     0.013 A 
HETATM    5  C5  UNK     1      17.383   5.452  32.509  1.00  0.00     0.030 A 
HETATM    6  C6  UNK     1      18.288   6.543  30.553  1.00  0.00     0.030 A 
ENDROOT
BRANCH   2   7
HETATM    7  N1  UNK     1      17.036   7.821  32.177  1.00  0.00    -0.327 N 
HETATM    8  C10 UNK     1      15.687   8.193  32.268  1.00  0.00     0.231 C 
HETATM    9  O1  UNK     1      14.713   7.509  31.965  1.00  0.00    -0.272 OA
HETATM   10  H6  UNK     1      17.724   8.517  32.456  1.00  0.00     0.169 HD
BRANCH   8  11
HETATM   11  C11 UNK     1      15.505   9.604  32.784  1.00  0.00     0.184 C 
BRANCH  11  12
HETATM   12  S1  UNK     1      16.123   9.687  34.483  1.00  0.00    -0.101 SA
BRANCH  12  13
HETATM   13  C17 UNK     1      16.817  11.362  34.478  1.00  0.00     0.093 A 
HETATM   14  N2  UNK     1      17.906  11.533  33.718  1.00  0.00    -0.254 NA
HETATM   15  C21 UNK     1      18.421  12.783  33.718  1.00  0.00     0.118 A 
HETATM   16  C20 UNK     1      17.890  13.840  34.439  1.00  0.00     0.019 A 
HETATM   17  C19 UNK     1      16.758  13.599  35.209  1.00  0.00     0.004 A 
HETATM   18  C18 UNK     1      16.199  12.326  35.236  1.00  0.00     0.039 A 
ENDBRANCH  12  13
ENDBRANCH  11  12
ENDBRANCH   8  11
ENDBRANCH   2   7
BRANCH   1  19
HETATM   19  C7  UNK     1      19.193   2.908  30.439  1.00  0.00     0.012 C 
HETATM   20  C9  UNK     1      18.986   1.710  31.033  1.00  0.00     0.012 C 
BRANCH  20  21
HETATM   21  C8  UNK     1      19.527   0.440  30.574  1.00  0.00    -0.036 A 
HETATM   22  C12 UNK     1      20.009   0.317  29.271  1.00  0.00     0.011 A 
HETATM   23  C14 UNK     1      20.531  -0.901  28.832  1.00  0.00     0.001 A 
HETATM   24  C16 UNK     1      20.570  -1.994  29.697  1.00  0.00     0.000 A 
HETATM   25  C15 UNK     1      20.088  -1.870  31.000  1.00  0.00     0.001 A 
HETATM   26  C13 UNK     1      19.567  -0.653  31.439  1.00  0.00     0.011 A 
ENDBRANCH  20  21
ENDBRANCH   1  19
TORSDOF 6
ENDMDL
MODEL 10
REMARK VINA RESULT:      -8.1      8.048     11.955
REMARK  6 active torsions:
REMARK  status: ('A' for Active; 'I' for Inactive)
REMARK    1  A    between atoms: C11_15  and  S1_1 
REMARK    2  A    between atoms: C17_21  and  S1_1 
REMARK       I    between atoms: C10_14  and  N1_3 
REMARK    3  A    between atoms: C2_6  and  N1_3 
REMARK    4  A    between atoms: C1_5  and  C7_11 
REMARK    5  A    between atoms: C8_12  and  C9_13 
REMARK    6  A    between atoms: C10_14  and  C11_15 
ROOT
HETATM    1  C1  UNK     1      20.203  -4.225  36.907  1.00  0.00    -0.036 A 
HETATM    2  C2  UNK     1      20.742  -6.942  36.961  1.00  0.00     0.034 A 
HETATM    3  C3  UNK     1      21.028  -4.734  37.897  1.00  0.00     0.013 A 
HETATM    4  C4  UNK     1      19.642  -5.047  35.944  1.00  0.00     0.013 A 
HETATM    5  C5  UNK     1      21.299  -6.101  37.924  1.00  0.00     0.030 A 
HETATM    6  C6  UNK     1      19.912  -6.416  35.970  1.00  0.00     0.030 A 
ENDROOT
BRANCH   2   7
HETATM    7  N1  UNK     1      21.012  -8.311  36.990  1.00  0.00    -0.327 N 
HETATM    8  C10 UNK     1      20.099  -9.375  36.985  1.00  0.00     0.231 C 
HETATM    9  O1  UNK     1      18.873  -9.293  36.970  1.00  0.00    -0.272 OA
HETATM   10  H6  UNK     1      21.999  -8.555  37.020  1.00  0.00     0.169 HD
BRANCH   8  11
HETATM   11  C11 UNK     1      20.777 -10.727  37.023  1.00  0.00     0.184 C 
BRANCH  11  12
HETATM   12  S1  UNK     1      21.558 -11.033  35.419  1.00  0.00    -0.101 SA
BRANCH  12  13
HETATM   13  C17 UNK     1      23.302 -10.966  35.905  1.00  0.00     0.093 A 
HETATM   14  N2  UNK     1      23.719  -9.793  36.399  1.00  0.00    -0.254 NA
HETATM   15  C21 UNK     1      25.021  -9.746  36.760  1.00  0.00     0.118 A 
HETATM   16  C20 UNK     1      25.896 -10.814  36.642  1.00  0.00     0.019 A 
HETATM   17  C19 UNK     1      25.403 -12.005  36.123  1.00  0.00     0.004 A 
HETATM   18  C18 UNK     1      24.070 -12.092  35.740  1.00  0.00     0.039 A 
ENDBRANCH  12  13
ENDBRANCH  11  12
ENDBRANCH   8  11
ENDBRANCH   2   7
BRANCH   1  19
HETATM   19  C7  UNK     1      19.915  -2.781  36.878  1.00  0.00     0.012 C 
HETATM   20  C9  UNK     1      18.696  -2.231  36.664  1.00  0.00     0.012 C 
BRANCH  20  21
HETATM   21  C8  UNK     1      18.407  -0.806  36.654  1.00  0.00    -0.036 A 
HETATM   22  C12 UNK     1      17.768  -0.216  37.744  1.00  0.00     0.011 A 
HETATM   23  C14 UNK     1      17.493   1.153  37.735  1.00  0.00     0.001 A 
HETATM   24  C16 UNK     1      17.858   1.930  36.636  1.00  0.00     0.000 A 
HETATM   25  C15 UNK     1      18.497   1.338  35.546  1.00  0.00     0.001 A 
HETATM   26  C13 UNK     1      18.772  -0.029  35.555  1.00  0.00     0.011 A 
ENDBRANCH  20  21
ENDBRANCH   1  19
TORSDOF 6
ENDMDL
