MODEL 1
REMARK VINA RESULT:      -9.2      0.000      0.000
REMARK  5 active torsions:
REMARK  status: ('A' for Active; 'I' for Inactive)
REMARK    1  A    between atoms: C12_16  and  O1_1 
REMARK    2  A    between atoms: C3_7  and  O1_1 
REMARK    3  A    between atoms: C1_5  and  C6_10 
REMARK    4  A    between atoms: C12_16  and  C14_18 
REMARK    5  A    between atoms: C14_18  and  C15_19 
ROOT
HETATM    1  O2  UNK     1      15.886   6.639  33.045  1.00  0.00    -0.275 OA
HETATM    2  O3  UNK     1      14.339   7.894  34.168  1.00  0.00    -0.260 OA
HETATM    3  C1  UNK     1      19.820   5.968  31.823  1.00  0.00    -0.024 A 
HETATM    4  C2  UNK     1      18.223   7.351  33.035  1.00  0.00     0.005 A 
HETATM    5  C3  UNK     1      18.804   5.086  31.458  1.00  0.00     0.078 A 
HETATM    6  C4  UNK     1      19.532   7.093  32.606  1.00  0.00     0.024 A 
HETATM    7  C5  UNK     1      17.227   6.451  32.654  1.00  0.00     0.092 A 
HETATM    8  C7  UNK     1      17.848   8.509  33.856  1.00  0.00    -0.043 A 
HETATM    9  C8  UNK     1      17.499   5.325  31.875  1.00  0.00     0.075 A 
HETATM   10  C10 UNK     1      16.564   8.663  34.214  1.00  0.00     0.090 A 
HETATM   11  C11 UNK     1      18.895   9.496  34.284  1.00  0.00     0.049 C 
HETATM   12  C13 UNK     1      15.503   7.722  33.821  1.00  0.00     0.288 A 
ENDROOT
BRANCH   5  13
HETATM   13  O1  UNK     1      19.072   3.989  30.697  1.00  0.00    -0.343 OA
BRANCH  13  14
HETATM   14  C12 UNK     1      18.012   3.051  30.516  1.00  0.00     0.259 C 
BRANCH  14  15
HETATM   15  C14 UNK     1      18.320   2.113  29.357  1.00  0.00     0.183 C 
HETATM   16  O4  UNK     1      17.941   2.407  28.221  1.00  0.00    -0.290 OA
BRANCH  15  17
HETATM   17  C15 UNK     1      19.066   0.877  29.646  1.00  0.00     0.012 A 
HETATM   18  C16 UNK     1      19.325   0.533  30.964  1.00  0.00     0.015 A 
HETATM   19  C18 UNK     1      20.033  -0.638  31.238  1.00  0.00     0.001 A 
HETATM   20  C20 UNK     1      20.470  -1.449  30.191  1.00  0.00     0.000 A 
HETATM   21  C19 UNK     1      20.201  -1.090  28.871  1.00  0.00     0.001 A 
HETATM   22  C17 UNK     1      19.495   0.081  28.596  1.00  0.00     0.015 A 
ENDBRANCH  15  17
ENDBRANCH  14  15
ENDBRANCH  13  14
ENDBRANCH   5  13
BRANCH   3  23
HETATM   23  C6  UNK     1      21.227   5.729  31.386  1.00  0.00     0.037 C 
HETATM   24  C9  UNK     1      22.237   6.073  32.476  1.00  0.00     0.010 C 
ENDBRANCH   3  23
TORSDOF 5
ENDMDL
MODEL 2
REMARK VINA RESULT:      -8.7      3.714      7.562
REMARK  5 active torsions:
REMARK  status: ('A' for Active; 'I' for Inactive)
REMARK    1  A    between atoms: C12_16  and  O1_1 
REMARK    2  A    between atoms: C3_7  and  O1_1 
REMARK    3  A    between atoms: C1_5  and  C6_10 
REMARK    4  A    between atoms: C12_16  and  C14_18 
REMARK    5  A    between atoms: C14_18  and  C15_19 
ROOT
HETATM    1  O2  UNK     1      17.728   0.169  35.658  1.00  0.00    -0.275 OA
HETATM    2  O3  UNK     1      17.191   0.249  37.879  1.00  0.00    -0.260 OA
HETATM    3  C1  UNK     1      19.746  -1.621  32.474  1.00  0.00    -0.024 A 
HETATM    4  C2  UNK     1      19.217  -1.591  34.851  1.00  0.00     0.005 A 
HETATM    5  C3  UNK     1      18.950  -0.496  32.265  1.00  0.00     0.078 A 
HETATM    6  C4  UNK     1      19.879  -2.165  33.757  1.00  0.00     0.024 A 
HETATM    7  C5  UNK     1      18.427  -0.466  34.612  1.00  0.00     0.092 A 
HETATM    8  C7  UNK     1      19.311  -2.107  36.222  1.00  0.00    -0.043 A 
HETATM    9  C8  UNK     1      18.284   0.087  33.338  1.00  0.00     0.075 A 
HETATM   10  C10 UNK     1      18.635  -1.482  37.199  1.00  0.00     0.090 A 
HETATM   11  C11 UNK     1      20.152  -3.316  36.513  1.00  0.00     0.049 C 
HETATM   12  C13 UNK     1      17.797  -0.296  36.962  1.00  0.00     0.288 A 
ENDROOT
BRANCH   5  13
HETATM   13  O1  UNK     1      18.812   0.041  31.022  1.00  0.00    -0.343 OA
BRANCH  13  14
HETATM   14  C12 UNK     1      19.449   1.296  30.783  1.00  0.00     0.259 C 
BRANCH  14  15
HETATM   15  C14 UNK     1      18.433   2.334  30.330  1.00  0.00     0.183 C 
HETATM   16  O4  UNK     1      17.517   1.998  29.576  1.00  0.00    -0.290 OA
BRANCH  15  17
HETATM   17  C15 UNK     1      18.591   3.715  30.816  1.00  0.00     0.012 A 
HETATM   18  C16 UNK     1      19.144   4.671  29.978  1.00  0.00     0.015 A 
HETATM   19  C18 UNK     1      19.294   5.979  30.438  1.00  0.00     0.001 A 
HETATM   20  C20 UNK     1      18.889   6.315  31.730  1.00  0.00     0.000 A 
HETATM   21  C19 UNK     1      18.335   5.343  32.562  1.00  0.00     0.001 A 
HETATM   22  C17 UNK     1      18.185   4.034  32.102  1.00  0.00     0.015 A 
ENDBRANCH  15  17
ENDBRANCH  14  15
ENDBRANCH  13  14
ENDBRANCH   5  13
BRANCH   3  23
HETATM   23  C6  UNK     1      20.469  -2.262  31.335  1.00  0.00     0.037 C 
HETATM   24  C9  UNK     1      21.178  -3.547  31.750  1.00  0.00     0.010 C 
ENDBRANCH   3  23
TORSDOF 5
ENDMDL
MODEL 3
REMARK VINA RESULT:      -8.6      2.453      8.101
REMARK  5 active torsions:
REMARK  status: ('A' for Active; 'I' for Inactive)
REMARK    1  A    between atoms: C12_16  and  O1_1 
REMARK    2  A    between atoms: C3_7  and  O1_1 
REMARK    3  A    between atoms: C1_5  and  C6_10 
REMARK    4  A    between atoms: C12_16  and  C14_18 
REMARK    5  A    between atoms: C14_18  and  C15_19 
ROOT
HETATM    1  O2  UNK     1      19.135  -0.548  34.141  1.00  0.00    -0.275 OA
HETATM    2  O3  UNK     1      19.825  -2.489  35.134  1.00  0.00    -0.260 OA
HETATM    3  C1  UNK     1      18.668   1.821  30.738  1.00  0.00    -0.024 A 
HETATM    4  C2  UNK     1      19.427  -0.268  31.732  1.00  0.00     0.005 A 
HETATM    5  C3  UNK     1      18.248   2.281  31.985  1.00  0.00     0.078 A 
HETATM    6  C4  UNK     1      19.253   0.555  30.612  1.00  0.00     0.024 A 
HETATM    7  C5  UNK     1      18.997   0.219  32.967  1.00  0.00     0.092 A 
HETATM    8  C7  UNK     1      20.032  -1.605  31.675  1.00  0.00    -0.043 A 
HETATM    9  C8  UNK     1      18.411   1.478  33.109  1.00  0.00     0.075 A 
HETATM   10  C10 UNK     1      20.151  -2.313  32.809  1.00  0.00     0.090 A 
HETATM   11  C11 UNK     1      20.504  -2.159  30.362  1.00  0.00     0.049 C 
HETATM   12  C13 UNK     1      19.702  -1.813  34.118  1.00  0.00     0.288 A 
ENDROOT
BRANCH   5  13
HETATM   13  O1  UNK     1      17.678   3.510  32.120  1.00  0.00    -0.343 OA
BRANCH  13  14
HETATM   14  C12 UNK     1      18.286   4.410  33.045  1.00  0.00     0.259 C 
BRANCH  14  15
HETATM   15  C14 UNK     1      18.911   5.589  32.313  1.00  0.00     0.183 C 
HETATM   16  O4  UNK     1      19.459   5.405  31.223  1.00  0.00    -0.290 OA
BRANCH  15  17
HETATM   17  C15 UNK     1      18.836   6.916  32.946  1.00  0.00     0.012 A 
HETATM   18  C16 UNK     1      19.896   7.359  33.722  1.00  0.00     0.015 A 
HETATM   19  C18 UNK     1      19.825   8.616  34.322  1.00  0.00     0.001 A 
HETATM   20  C20 UNK     1      18.696   9.414  34.139  1.00  0.00     0.000 A 
HETATM   21  C19 UNK     1      17.638   8.955  33.356  1.00  0.00     0.001 A 
HETATM   22  C17 UNK     1      17.708   7.698  32.755  1.00  0.00     0.015 A 
ENDBRANCH  15  17
ENDBRANCH  14  15
ENDBRANCH  13  14
ENDBRANCH   5  13
BRANCH   3  23
HETATM   23  C6  UNK     1      18.502   2.669  29.520  1.00  0.00     0.037 C 
HETATM   24  C9  UNK     1      17.789   1.927  28.393  1.00  0.00     0.010 C 
ENDBRANCH   3  23
TORSDOF 5
ENDMDL
MODEL 4
REMARK VINA RESULT:      -8.6      2.373      7.899
REMARK  5 active torsions:
REMARK  status: ('A' for Active; 'I' for Inactive)
REMARK    1  A    between atoms: C12_16  and  O1_1 
REMARK    2  A    between atoms: C3_7  and  O1_1 
REMARK    3  A    between atoms: C1_5  and  C6_10 
REMARK    4  A    between atoms: C12_16  and  C14_18 
REMARK    5  A    between atoms: C14_18  and  C15_19 
ROOT
HETATM    1  O2  UNK     1      19.331  -0.587  33.015  1.00  0.00    -0.275 OA
HETATM    2  O3  UNK     1      20.126  -2.717  33.262  1.00  0.00    -0.260 OA
HETATM    3  C1  UNK     1      18.655   2.783  30.649  1.00  0.00    -0.024 A 
HETATM    4  C2  UNK     1      19.524   0.516  30.845  1.00  0.00     0.005 A 
HETATM    5  C3  UNK     1      18.265   2.766  31.987  1.00  0.00     0.078 A 
HETATM    6  C4  UNK     1      19.280   1.666  30.081  1.00  0.00     0.024 A 
HETATM    7  C5  UNK     1      19.123   0.529  32.181  1.00  0.00     0.092 A 
HETATM    8  C7  UNK     1      20.174  -0.690  30.317  1.00  0.00    -0.043 A 
HETATM    9  C8  UNK     1      18.498   1.634  32.761  1.00  0.00     0.075 A 
HETATM   10  C10 UNK     1      20.360  -1.738  31.133  1.00  0.00     0.090 A 
HETATM   11  C11 UNK     1      20.617  -0.737  28.883  1.00  0.00     0.049 C 
HETATM   12  C13 UNK     1      19.942  -1.739  32.545  1.00  0.00     0.288 A 
ENDROOT
BRANCH   5  13
HETATM   13  O1  UNK     1      17.656   3.847  32.550  1.00  0.00    -0.343 OA
BRANCH  13  14
HETATM   14  C12 UNK     1      18.299   4.439  33.678  1.00  0.00     0.259 C 
BRANCH  14  15
HETATM   15  C14 UNK     1      18.500   5.931  33.458  1.00  0.00     0.183 C 
HETATM   16  O4  UNK     1      19.635   6.407  33.530  1.00  0.00    -0.290 OA
BRANCH  15  17
HETATM   17  C15 UNK     1      17.315   6.754  33.165  1.00  0.00     0.012 A 
HETATM   18  C16 UNK     1      16.364   6.951  34.154  1.00  0.00     0.015 A 
HETATM   19  C18 UNK     1      15.240   7.731  33.876  1.00  0.00     0.001 A 
HETATM   20  C20 UNK     1      15.083   8.302  32.613  1.00  0.00     0.000 A 
HETATM   21  C19 UNK     1      16.048   8.095  31.629  1.00  0.00     0.001 A 
HETATM   22  C17 UNK     1      17.171   7.315  31.906  1.00  0.00     0.015 A 
ENDBRANCH  15  17
ENDBRANCH  14  15
ENDBRANCH  13  14
ENDBRANCH   5  13
BRANCH   3  23
HETATM   23  C6  UNK     1      18.414   3.988  29.802  1.00  0.00     0.037 C 
HETATM   24  C9  UNK     1      19.440   5.088  30.057  1.00  0.00     0.010 C 
ENDBRANCH   3  23
TORSDOF 5
ENDMDL
MODEL 5
REMARK VINA RESULT:      -8.5      2.208      7.822
REMARK  5 active torsions:
REMARK  status: ('A' for Active; 'I' for Inactive)
REMARK    1  A    between atoms: C12_16  and  O1_1 
REMARK    2  A    between atoms: C3_7  and  O1_1 
REMARK    3  A    between atoms: C1_5  and  C6_10 
REMARK    4  A    between atoms: C12_16  and  C14_18 
REMARK    5  A    between atoms: C14_18  and  C15_19 
ROOT
HETATM    1  O2  UNK     1      18.535   0.522  33.183  1.00  0.00    -0.275 OA
HETATM    2  O3  UNK     1      18.945  -1.699  33.544  1.00  0.00    -0.260 OA
HETATM    3  C1  UNK     1      18.654   3.878  30.706  1.00  0.00    -0.024 A 
HETATM    4  C2  UNK     1      19.120   1.510  31.026  1.00  0.00     0.005 A 
HETATM    5  C3  UNK     1      18.135   3.968  31.996  1.00  0.00     0.078 A 
HETATM    6  C4  UNK     1      19.143   2.658  30.224  1.00  0.00     0.024 A 
HETATM    7  C5  UNK     1      18.595   1.630  32.314  1.00  0.00     0.092 A 
HETATM    8  C7  UNK     1      19.615   0.198  30.588  1.00  0.00    -0.043 A 
HETATM    9  C8  UNK     1      18.103   2.839  32.808  1.00  0.00     0.075 A 
HETATM   10  C10 UNK     1      19.546  -0.839  31.436  1.00  0.00     0.090 A 
HETATM   11  C11 UNK     1      20.185   0.035  29.209  1.00  0.00     0.049 C 
HETATM   12  C13 UNK     1      18.994  -0.728  32.796  1.00  0.00     0.288 A 
ENDROOT
BRANCH   5  13
HETATM   13  O1  UNK     1      17.656   5.149  32.476  1.00  0.00    -0.343 OA
BRANCH  13  14
HETATM   14  C12 UNK     1      18.070   5.532  33.787  1.00  0.00     0.259 C 
BRANCH  14  15
HETATM   15  C14 UNK     1      19.302   6.423  33.720  1.00  0.00     0.183 C 
HETATM   16  O4  UNK     1      20.413   5.912  33.561  1.00  0.00    -0.290 OA
BRANCH  15  17
HETATM   17  C15 UNK     1      19.113   7.877  33.852  1.00  0.00     0.012 A 
HETATM   18  C16 UNK     1      17.891   8.437  33.512  1.00  0.00     0.015 A 
HETATM   19  C18 UNK     1      17.712   9.815  33.636  1.00  0.00     0.001 A 
HETATM   20  C20 UNK     1      18.757  10.615  34.100  1.00  0.00     0.000 A 
HETATM   21  C19 UNK     1      19.980  10.038  34.437  1.00  0.00     0.001 A 
HETATM   22  C17 UNK     1      20.160   8.660  34.313  1.00  0.00     0.015 A 
ENDBRANCH  15  17
ENDBRANCH  14  15
ENDBRANCH  13  14
ENDBRANCH   5  13
BRANCH   3  23
HETATM   23  C6  UNK     1      18.697   5.079  29.819  1.00  0.00     0.037 C 
HETATM   24  C9  UNK     1      19.952   5.917  30.042  1.00  0.00     0.010 C 
ENDBRANCH   3  23
TORSDOF 5
ENDMDL
MODEL 6
REMARK VINA RESULT:      -8.5      2.091      7.981
REMARK  5 active torsions:
REMARK  status: ('A' for Active; 'I' for Inactive)
REMARK    1  A    between atoms: C12_16  and  O1_1 
REMARK    2  A    between atoms: C3_7  and  O1_1 
REMARK    3  A    between atoms: C1_5  and  C6_10 
REMARK    4  A    between atoms: C12_16  and  C14_18 
REMARK    5  A    between atoms: C14_18  and  C15_19 
ROOT
HETATM    1  O2  UNK     1      19.566   0.730  29.473  1.00  0.00    -0.275 OA
HETATM    2  O3  UNK     1      20.445  -0.795  28.013  1.00  0.00    -0.260 OA
HETATM    3  C1  UNK     1      18.343   1.783  33.321  1.00  0.00    -0.024 A 
HETATM    4  C2  UNK     1      19.281   0.112  31.819  1.00  0.00     0.005 A 
HETATM    5  C3  UNK     1      18.238   2.693  32.270  1.00  0.00     0.078 A 
HETATM    6  C4  UNK     1      18.861   0.502  33.098  1.00  0.00     0.024 A 
HETATM    7  C5  UNK     1      19.165   1.044  30.787  1.00  0.00     0.092 A 
HETATM    8  C7  UNK     1      19.833  -1.213  31.511  1.00  0.00    -0.043 A 
HETATM    9  C8  UNK     1      18.651   2.325  30.994  1.00  0.00     0.075 A 
HETATM   10  C10 UNK     1      20.207  -1.485  30.251  1.00  0.00     0.090 A 
HETATM   11  C11 UNK     1      19.973  -2.239  32.598  1.00  0.00     0.049 C 
HETATM   12  C13 UNK     1      20.091  -0.512  29.153  1.00  0.00     0.288 A 
ENDROOT
BRANCH   5  13
HETATM   13  O1  UNK     1      17.737   3.942  32.476  1.00  0.00    -0.343 OA
BRANCH  13  14
HETATM   14  C12 UNK     1      17.933   4.899  31.436  1.00  0.00     0.259 C 
BRANCH  14  15
HETATM   15  C14 UNK     1      19.144   5.773  31.734  1.00  0.00     0.183 C 
HETATM   16  O4  UNK     1      20.237   5.483  31.242  1.00  0.00    -0.290 OA
BRANCH  15  17
HETATM   17  C15 UNK     1      18.956   6.941  32.610  1.00  0.00     0.012 A 
HETATM   18  C16 UNK     1      17.768   7.653  32.547  1.00  0.00     0.015 A 
HETATM   19  C18 UNK     1      17.590   8.761  33.376  1.00  0.00     0.001 A 
HETATM   20  C20 UNK     1      18.602   9.142  34.258  1.00  0.00     0.000 A 
HETATM   21  C19 UNK     1      19.791   8.416  34.310  1.00  0.00     0.001 A 
HETATM   22  C17 UNK     1      19.970   7.308  33.481  1.00  0.00     0.015 A 
ENDBRANCH  15  17
ENDBRANCH  14  15
ENDBRANCH  13  14
ENDBRANCH   5  13
BRANCH   3  23
HETATM   23  C6  UNK     1      17.905   2.159  34.698  1.00  0.00     0.037 C 
HETATM   24  C9  UNK     1      19.038   2.053  35.714  1.00  0.00     0.010 C 
ENDBRANCH   3  23
TORSDOF 5
ENDMDL
MODEL 7
REMARK VINA RESULT:      -8.5      2.713      7.761
REMARK  5 active torsions:
REMARK  status: ('A' for Active; 'I' for Inactive)
REMARK    1  A    between atoms: C12_16  and  O1_1 
REMARK    2  A    between atoms: C3_7  and  O1_1 
REMARK    3  A    between atoms: C1_5  and  C6_10 
REMARK    4  A    between atoms: C12_16  and  C14_18 
REMARK    5  A    between atoms: C14_18  and  C15_19 
ROOT
HETATM    1  O2  UNK     1      19.565  -1.313  33.895  1.00  0.00    -0.275 OA
HETATM    2  O3  UNK     1      20.477  -3.317  34.514  1.00  0.00    -0.260 OA
HETATM    3  C1  UNK     1      18.697   1.528  30.965  1.00  0.00    -0.024 A 
HETATM    4  C2  UNK     1      19.691  -0.614  31.557  1.00  0.00     0.005 A 
HETATM    5  C3  UNK     1      18.312   1.735  32.288  1.00  0.00     0.078 A 
HETATM    6  C4  UNK     1      19.382   0.362  30.601  1.00  0.00     0.024 A 
HETATM    7  C5  UNK     1      19.293  -0.380  32.874  1.00  0.00     0.092 A 
HETATM    8  C7  UNK     1      20.406  -1.859  31.249  1.00  0.00    -0.043 A 
HETATM    9  C8  UNK     1      18.609   0.777  33.252  1.00  0.00     0.075 A 
HETATM   10  C10 UNK     1      20.652  -2.730  32.240  1.00  0.00     0.090 A 
HETATM   11  C11 UNK     1      20.848  -2.142  29.843  1.00  0.00     0.049 C 
HETATM   12  C13 UNK     1      20.237  -2.497  33.633  1.00  0.00     0.288 A 
ENDROOT
BRANCH   5  13
HETATM   13  O1  UNK     1      17.645   2.865  32.653  1.00  0.00    -0.343 OA
BRANCH  13  14
HETATM   14  C12 UNK     1      18.130   3.562  33.799  1.00  0.00     0.259 C 
BRANCH  14  15
HETATM   15  C14 UNK     1      18.287   5.046  33.496  1.00  0.00     0.183 C 
HETATM   16  O4  UNK     1      17.914   5.877  34.327  1.00  0.00    -0.290 OA
BRANCH  15  17
HETATM   17  C15 UNK     1      18.885   5.430  32.207  1.00  0.00     0.012 A 
HETATM   18  C16 UNK     1      18.063   5.873  31.183  1.00  0.00     0.015 A 
HETATM   19  C18 UNK     1      18.629   6.237  29.960  1.00  0.00     0.001 A 
HETATM   20  C20 UNK     1      20.010   6.153  29.779  1.00  0.00     0.000 A 
HETATM   21  C19 UNK     1      20.823   5.705  30.818  1.00  0.00     0.001 A 
HETATM   22  C17 UNK     1      20.258   5.341  32.040  1.00  0.00     0.015 A 
ENDBRANCH  15  17
ENDBRANCH  14  15
ENDBRANCH  13  14
ENDBRANCH   5  13
BRANCH   3  23
HETATM   23  C6  UNK     1      18.388   2.545  29.916  1.00  0.00     0.037 C 
HETATM   24  C9  UNK     1      17.905   1.907  28.617  1.00  0.00     0.010 C 
ENDBRANCH   3  23
TORSDOF 5
ENDMDL
MODEL 8
REMARK VINA RESULT:      -8.4      1.639      2.136
REMARK  5 active torsions:
REMARK  status: ('A' for Active; 'I' for Inactive)
REMARK    1  A    between atoms: C12_16  and  O1_1 
REMARK    2  A    between atoms: C3_7  and  O1_1 
REMARK    3  A    between atoms: C1_5  and  C6_10 
REMARK    4  A    between atoms: C12_16  and  C14_18 
REMARK    5  A    between atoms: C14_18  and  C15_19 
ROOT
HETATM    1  O2  UNK     1      15.684   8.070  34.240  1.00  0.00    -0.275 OA
HETATM    2  O3  UNK     1      14.252   9.788  34.721  1.00  0.00    -0.260 OA
HETATM    3  C1  UNK     1      19.511   6.685  33.320  1.00  0.00    -0.024 A 
HETATM    4  C2  UNK     1      18.040   8.560  33.822  1.00  0.00     0.005 A 
HETATM    5  C3  UNK     1      18.444   5.796  33.435  1.00  0.00     0.078 A 
HETATM    6  C4  UNK     1      19.311   8.057  33.513  1.00  0.00     0.024 A 
HETATM    7  C5  UNK     1      16.991   7.645  33.931  1.00  0.00     0.092 A 
HETATM    8  C7  UNK     1      17.757   9.984  34.037  1.00  0.00    -0.043 A 
HETATM    9  C8  UNK     1      17.175   6.275  33.742  1.00  0.00     0.075 A 
HETATM   10  C10 UNK     1      16.503  10.360  34.330  1.00  0.00     0.090 A 
HETATM   11  C11 UNK     1      18.863  10.994  33.929  1.00  0.00     0.049 C 
HETATM   12  C13 UNK     1      15.387   9.408  34.449  1.00  0.00     0.288 A 
ENDROOT
BRANCH   5  13
HETATM   13  O1  UNK     1      18.627   4.459  33.250  1.00  0.00    -0.343 OA
BRANCH  13  14
HETATM   14  C12 UNK     1      18.282   3.927  31.972  1.00  0.00     0.259 C 
BRANCH  14  15
HETATM   15  C14 UNK     1      18.213   2.408  32.024  1.00  0.00     0.183 C 
HETATM   16  O4  UNK     1      17.818   1.853  33.052  1.00  0.00    -0.290 OA
BRANCH  15  17
HETATM   17  C15 UNK     1      18.629   1.655  30.830  1.00  0.00     0.012 A 
HETATM   18  C16 UNK     1      19.654   0.727  30.935  1.00  0.00     0.015 A 
HETATM   19  C18 UNK     1      20.049   0.013  29.802  1.00  0.00     0.001 A 
HETATM   20  C20 UNK     1      19.413   0.237  28.581  1.00  0.00     0.000 A 
HETATM   21  C19 UNK     1      18.384   1.173  28.491  1.00  0.00     0.001 A 
HETATM   22  C17 UNK     1      17.989   1.887  29.622  1.00  0.00     0.015 A 
ENDBRANCH  15  17
ENDBRANCH  14  15
ENDBRANCH  13  14
ENDBRANCH   5  13
BRANCH   3  23
HETATM   23  C6  UNK     1      20.881   6.190  32.990  1.00  0.00     0.037 C 
HETATM   24  C9  UNK     1      21.126   6.129  31.486  1.00  0.00     0.010 C 
ENDBRANCH   3  23
TORSDOF 5
ENDMDL
MODEL 9
REMARK VINA RESULT:      -8.3      2.223      8.057
REMARK  5 active torsions:
REMARK  status: ('A' for Active; 'I' for Inactive)
REMARK    1  A    between atoms: C12_16  and  O1_1 
REMARK    2  A    between atoms: C3_7  and  O1_1 
REMARK    3  A    between atoms: C1_5  and  C6_10 
REMARK    4  A    between atoms: C12_16  and  C14_18 
REMARK    5  A    between atoms: C14_18  and  C15_19 
ROOT
HETATM    1  O2  UNK     1      19.539   0.797  29.521  1.00  0.00    -0.275 OA
HETATM    2  O3  UNK     1      20.448  -0.672  28.022  1.00  0.00    -0.260 OA
HETATM    3  C1  UNK     1      18.302   1.728  33.396  1.00  0.00    -0.024 A 
HETATM    4  C2  UNK     1      19.274   0.115  31.852  1.00  0.00     0.005 A 
HETATM    5  C3  UNK     1      18.175   2.660  32.369  1.00  0.00     0.078 A 
HETATM    6  C4  UNK     1      18.848   0.464  33.140  1.00  0.00     0.024 A 
HETATM    7  C5  UNK     1      19.134   1.069  30.843  1.00  0.00     0.092 A 
HETATM    8  C7  UNK     1      19.855  -1.190  31.510  1.00  0.00    -0.043 A 
HETATM    9  C8  UNK     1      18.592   2.333  31.083  1.00  0.00     0.075 A 
HETATM   10  C10 UNK     1      20.231  -1.422  30.243  1.00  0.00     0.090 A 
HETATM   11  C11 UNK     1      20.020  -2.238  32.572  1.00  0.00     0.049 C 
HETATM   12  C13 UNK     1      20.090  -0.425  29.169  1.00  0.00     0.288 A 
ENDROOT
BRANCH   5  13
HETATM   13  O1  UNK     1      17.646   3.893  32.606  1.00  0.00    -0.343 OA
BRANCH  13  14
HETATM   14  C12 UNK     1      18.512   5.014  32.439  1.00  0.00     0.259 C 
BRANCH  14  15
HETATM   15  C14 UNK     1      17.768   6.175  31.796  1.00  0.00     0.183 C 
HETATM   16  O4  UNK     1      18.140   6.602  30.701  1.00  0.00    -0.290 OA
BRANCH  15  17
HETATM   17  C15 UNK     1      16.621   6.748  32.520  1.00  0.00     0.012 A 
HETATM   18  C16 UNK     1      15.404   6.877  31.871  1.00  0.00     0.015 A 
HETATM   19  C18 UNK     1      14.317   7.421  32.557  1.00  0.00     0.001 A 
HETATM   20  C20 UNK     1      14.463   7.828  33.883  1.00  0.00     0.000 A 
HETATM   21  C19 UNK     1      15.693   7.692  34.523  1.00  0.00     0.001 A 
HETATM   22  C17 UNK     1      16.781   7.149  33.838  1.00  0.00     0.015 A 
ENDBRANCH  15  17
ENDBRANCH  14  15
ENDBRANCH  13  14
ENDBRANCH   5  13
BRANCH   3  23
HETATM   23  C6  UNK     1      17.860   2.060  34.783  1.00  0.00     0.037 C 
HETATM   24  C9  UNK     1      19.021   2.077  35.772  1.00  0.00     0.010 C 
ENDBRANCH   3  23
TORSDOF 5
ENDMDL
MODEL 10
REMARK VINA RESULT:      -8.2      5.328      8.392
REMARK  5 active torsions:
REMARK  status: ('A' for Active; 'I' for Inactive)
REMARK    1  A    between atoms: C12_16  and  O1_1 
REMARK    2  A    between atoms: C3_7  and  O1_1 
REMARK    3  A    between atoms: C1_5  and  C6_10 
REMARK    4  A    between atoms: C12_16  and  C14_18 
REMARK    5  A    between atoms: C14_18  and  C15_19 
ROOT
HETATM    1  O2  UNK     1      19.809  -1.016  30.478  1.00  0.00    -0.275 OA
HETATM    2  O3  UNK     1      20.293  -0.710  28.264  1.00  0.00    -0.260 OA
HETATM    3  C1  UNK     1      18.361   0.440  34.111  1.00  0.00    -0.024 A 
HETATM    4  C2  UNK     1      18.856   0.833  31.759  1.00  0.00     0.005 A 
HETATM    5  C3  UNK     1      18.824  -0.870  34.007  1.00  0.00     0.078 A 
HETATM    6  C4  UNK     1      18.376   1.286  32.995  1.00  0.00     0.024 A 
HETATM    7  C5  UNK     1      19.313  -0.484  31.685  1.00  0.00     0.092 A 
HETATM    8  C7  UNK     1      18.902   1.663  30.548  1.00  0.00    -0.043 A 
HETATM    9  C8  UNK     1      19.303  -1.339  32.788  1.00  0.00     0.075 A 
HETATM   10  C10 UNK     1      19.379   1.130  29.414  1.00  0.00     0.090 A 
HETATM   11  C11 UNK     1      18.417   3.083  30.594  1.00  0.00     0.049 C 
HETATM   12  C13 UNK     1      19.864  -0.256  29.320  1.00  0.00     0.288 A 
ENDROOT
BRANCH   5  13
HETATM   13  O1  UNK     1      18.814  -1.702  35.085  1.00  0.00    -0.343 OA
BRANCH  13  14
HETATM   14  C12 UNK     1      20.072  -2.210  35.524  1.00  0.00     0.259 C 
BRANCH  14  15
HETATM   15  C14 UNK     1      19.916  -2.969  36.834  1.00  0.00     0.183 C 
HETATM   16  O4  UNK     1      19.471  -2.384  37.825  1.00  0.00    -0.290 OA
BRANCH  15  17
HETATM   17  C15 UNK     1      20.309  -4.387  36.865  1.00  0.00     0.012 A 
HETATM   18  C16 UNK     1      19.806  -5.252  35.905  1.00  0.00     0.015 A 
HETATM   19  C18 UNK     1      20.178  -6.596  35.934  1.00  0.00     0.001 A 
HETATM   20  C20 UNK     1      21.048  -7.058  36.922  1.00  0.00     0.000 A 
HETATM   21  C19 UNK     1      21.545  -6.176  37.880  1.00  0.00     0.001 A 
HETATM   22  C17 UNK     1      21.174  -4.832  37.852  1.00  0.00     0.015 A 
ENDBRANCH  15  17
ENDBRANCH  14  15
ENDBRANCH  13  14
ENDBRANCH   5  13
BRANCH   3  23
HETATM   23  C6  UNK     1      17.843   0.962  35.411  1.00  0.00     0.037 C 
HETATM   24  C9  UNK     1      18.864   1.839  36.129  1.00  0.00     0.010 C 
ENDBRANCH   3  23
TORSDOF 5
ENDMDL
