MODEL 1
REMARK VINA RESULT:      -8.4      0.000      0.000
REMARK  3 active torsions:
REMARK  status: ('A' for Active; 'I' for Inactive)
REMARK    1  A    between atoms: C9_13  and  O2_2 
REMARK    2  A    between atoms: C12_16  and  O4_4 
REMARK    3  A    between atoms: C1_5  and  C2_6 
ROOT
HETATM    1  O1  UNK     1      18.707  -0.645  33.972  1.00  0.00    -0.309 OA
HETATM    2  O3  UNK     1      20.581  -3.622  36.027  1.00  0.00    -0.287 OA
HETATM    3  C1  UNK     1      19.591  -1.513  33.350  1.00  0.00     0.090 A 
HETATM    4  C3  UNK     1      19.083  -1.795  36.078  1.00  0.00     0.048 A 
HETATM    5  C4  UNK     1      18.475  -0.800  35.315  1.00  0.00     0.090 A 
HETATM    6  C5  UNK     1      20.232  -2.514  33.974  1.00  0.00     0.093 A 
HETATM    7  C6  UNK     1      20.015  -2.724  35.419  1.00  0.00     0.187 A 
HETATM    8  C10 UNK     1      18.809  -1.906  37.443  1.00  0.00     0.018 A 
HETATM    9  C11 UNK     1      17.586   0.093  35.914  1.00  0.00     0.038 A 
HETATM   10  C14 UNK     1      17.919  -1.012  38.039  1.00  0.00     0.001 A 
HETATM   11  C15 UNK     1      17.310  -0.015  37.277  1.00  0.00     0.003 A 
ENDROOT
BRANCH   3  12
HETATM   12  C2  UNK     1      19.762  -1.263  31.904  1.00  0.00     0.001 A 
HETATM   13  C7  UNK     1      19.438  -0.016  31.366  1.00  0.00     0.054 A 
HETATM   14  C9  UNK     1      19.600   0.222  30.000  1.00  0.00     0.102 A 
HETATM   15  C12 UNK     1      20.087  -0.789  29.171  1.00  0.00     0.099 A 
HETATM   16  C13 UNK     1      20.412  -2.036  29.706  1.00  0.00     0.040 A 
HETATM   17  C8  UNK     1      20.250  -2.272  31.070  1.00  0.00     0.017 A 
BRANCH  14  18
HETATM   18  O2  UNK     1      19.279   1.442  29.489  1.00  0.00    -0.353 OA
HETATM   19  C16 UNK     1      17.952   1.612  28.997  1.00  0.00     0.210 C 
ENDBRANCH  14  18
BRANCH  15  20
HETATM   20  O4  UNK     1      20.250  -0.569  27.836  1.00  0.00    -0.358 OA
HETATM   21  H9  UNK     1      19.489  -0.942  27.358  1.00  0.00     0.217 HD
ENDBRANCH  15  20
ENDBRANCH   3  12
TORSDOF 3
ENDMDL
MODEL 2
REMARK VINA RESULT:      -8.3      1.963      7.191
REMARK  3 active torsions:
REMARK  status: ('A' for Active; 'I' for Inactive)
REMARK    1  A    between atoms: C9_13  and  O2_2 
REMARK    2  A    between atoms: C12_16  and  O4_4 
REMARK    3  A    between atoms: C1_5  and  C2_6 
ROOT
HETATM    1  O1  UNK     1      19.270  -0.245  32.637  1.00  0.00    -0.309 OA
HETATM    2  O3  UNK     1      18.354   2.830  30.127  1.00  0.00    -0.287 OA
HETATM    3  C1  UNK     1      18.698   0.929  33.103  1.00  0.00     0.090 A 
HETATM    4  C3  UNK     1      19.250   0.659  30.382  1.00  0.00     0.048 A 
HETATM    5  C4  UNK     1      19.535  -0.355  31.296  1.00  0.00     0.090 A 
HETATM    6  C5  UNK     1      18.371   1.972  32.323  1.00  0.00     0.093 A 
HETATM    7  C6  UNK     1      18.635   1.902  30.873  1.00  0.00     0.187 A 
HETATM    8  C10 UNK     1      19.542   0.492  29.026  1.00  0.00     0.018 A 
HETATM    9  C11 UNK     1      20.116  -1.545  30.857  1.00  0.00     0.038 A 
HETATM   10  C14 UNK     1      20.122  -0.700  28.591  1.00  0.00     0.001 A 
HETATM   11  C15 UNK     1      20.410  -1.716  29.504  1.00  0.00     0.003 A 
ENDROOT
BRANCH   3  12
HETATM   12  C2  UNK     1      18.447   0.938  34.559  1.00  0.00     0.001 A 
HETATM   13  C7  UNK     1      18.382  -0.265  35.266  1.00  0.00     0.054 A 
HETATM   14  C9  UNK     1      18.146  -0.257  36.642  1.00  0.00     0.102 A 
HETATM   15  C12 UNK     1      17.976   0.955  37.312  1.00  0.00     0.099 A 
HETATM   16  C13 UNK     1      18.041   2.158  36.608  1.00  0.00     0.040 A 
HETATM   17  C8  UNK     1      18.277   2.149  35.234  1.00  0.00     0.017 A 
BRANCH  14  18
HETATM   18  O2  UNK     1      18.085  -1.437  37.318  1.00  0.00    -0.353 OA
HETATM   19  C16 UNK     1      18.959  -2.478  36.887  1.00  0.00     0.210 C 
ENDBRANCH  14  18
BRANCH  15  20
HETATM   20  O4  UNK     1      17.746   0.975  38.655  1.00  0.00    -0.358 OA
HETATM   21  H9  UNK     1      17.409   1.853  38.905  1.00  0.00     0.217 HD
ENDBRANCH  15  20
ENDBRANCH   3  12
TORSDOF 3
ENDMDL
MODEL 3
REMARK VINA RESULT:      -8.1     14.593     17.501
REMARK  3 active torsions:
REMARK  status: ('A' for Active; 'I' for Inactive)
REMARK    1  A    between atoms: C9_13  and  O2_2 
REMARK    2  A    between atoms: C12_16  and  O4_4 
REMARK    3  A    between atoms: C1_5  and  C2_6 
ROOT
HETATM    1  O1  UNK     1      19.167   0.349  15.881  1.00  0.00    -0.309 OA
HETATM    2  O3  UNK     1      18.680  -0.593  19.814  1.00  0.00    -0.287 OA
HETATM    3  C1  UNK     1      18.928  -0.954  16.293  1.00  0.00     0.090 A 
HETATM    4  C3  UNK     1      19.093   1.079  18.196  1.00  0.00     0.048 A 
HETATM    5  C4  UNK     1      19.247   1.331  16.834  1.00  0.00     0.090 A 
HETATM    6  C5  UNK     1      18.755  -1.321  17.573  1.00  0.00     0.093 A 
HETATM    7  C6  UNK     1      18.830  -0.300  18.636  1.00  0.00     0.187 A 
HETATM    8  C10 UNK     1      19.185   2.119  19.124  1.00  0.00     0.018 A 
HETATM    9  C11 UNK     1      19.496   2.630  16.390  1.00  0.00     0.038 A 
HETATM   10  C14 UNK     1      19.432   3.417  18.676  1.00  0.00     0.001 A 
HETATM   11  C15 UNK     1      19.588   3.672  17.313  1.00  0.00     0.003 A 
ENDROOT
BRANCH   3  12
HETATM   12  C2  UNK     1      18.852  -1.929  15.187  1.00  0.00     0.001 A 
HETATM   13  C7  UNK     1      18.341  -3.209  15.415  1.00  0.00     0.054 A 
HETATM   14  C9  UNK     1      18.269  -4.132  14.370  1.00  0.00     0.102 A 
HETATM   15  C12 UNK     1      18.706  -3.774  13.094  1.00  0.00     0.099 A 
HETATM   16  C13 UNK     1      19.217  -2.496  12.863  1.00  0.00     0.040 A 
HETATM   17  C8  UNK     1      19.289  -1.576  13.908  1.00  0.00     0.017 A 
BRANCH  14  18
HETATM   18  O2  UNK     1      17.769  -5.375  14.607  1.00  0.00    -0.353 OA
HETATM   19  C16 UNK     1      18.299  -6.086  15.724  1.00  0.00     0.210 C 
ENDBRANCH  14  18
BRANCH  15  20
HETATM   20  O4  UNK     1      18.640  -4.666  12.066  1.00  0.00    -0.358 OA
HETATM   21  H9  UNK     1      18.397  -5.539  12.419  1.00  0.00     0.217 HD
ENDBRANCH  15  20
ENDBRANCH   3  12
TORSDOF 3
ENDMDL
MODEL 4
REMARK VINA RESULT:      -8.1      3.797      6.550
REMARK  3 active torsions:
REMARK  status: ('A' for Active; 'I' for Inactive)
REMARK    1  A    between atoms: C9_13  and  O2_2 
REMARK    2  A    between atoms: C12_16  and  O4_4 
REMARK    3  A    between atoms: C1_5  and  C2_6 
ROOT
HETATM    1  O1  UNK     1      19.246   1.940  30.404  1.00  0.00    -0.309 OA
HETATM    2  O3  UNK     1      18.605  -0.229  33.792  1.00  0.00    -0.287 OA
HETATM    3  C1  UNK     1      18.694   2.512  31.540  1.00  0.00     0.090 A 
HETATM    4  C3  UNK     1      19.378  -0.193  31.559  1.00  0.00     0.048 A 
HETATM    5  C4  UNK     1      19.572   0.608  30.435  1.00  0.00     0.090 A 
HETATM    6  C5  UNK     1      18.465   1.848  32.685  1.00  0.00     0.093 A 
HETATM    7  C6  UNK     1      18.800   0.413  32.769  1.00  0.00     0.187 A 
HETATM    8  C10 UNK     1      19.729  -1.545  31.534  1.00  0.00     0.018 A 
HETATM    9  C11 UNK     1      20.120   0.060  29.275  1.00  0.00     0.038 A 
HETATM   10  C14 UNK     1      20.277  -2.090  30.372  1.00  0.00     0.001 A 
HETATM   11  C15 UNK     1      20.472  -1.290  29.245  1.00  0.00     0.003 A 
ENDROOT
BRANCH   3  12
HETATM   12  C2  UNK     1      18.389   3.950  31.401  1.00  0.00     0.001 A 
HETATM   13  C7  UNK     1      17.562   4.584  32.332  1.00  0.00     0.054 A 
HETATM   14  C9  UNK     1      17.274   5.943  32.202  1.00  0.00     0.102 A 
HETATM   15  C12 UNK     1      17.814   6.671  31.141  1.00  0.00     0.099 A 
HETATM   16  C13 UNK     1      18.641   6.041  30.211  1.00  0.00     0.040 A 
HETATM   17  C8  UNK     1      18.928   4.683  30.341  1.00  0.00     0.017 A 
BRANCH  14  18
HETATM   18  O2  UNK     1      16.466   6.548  33.116  1.00  0.00    -0.353 OA
HETATM   19  C16 UNK     1      17.047   6.881  34.375  1.00  0.00     0.210 C 
ENDBRANCH  14  18
BRANCH  15  20
HETATM   20  O4  UNK     1      17.541   7.999  31.004  1.00  0.00    -0.358 OA
HETATM   21  H9  UNK     1      17.927   8.481  31.756  1.00  0.00     0.217 HD
ENDBRANCH  15  20
ENDBRANCH   3  12
TORSDOF 3
ENDMDL
MODEL 5
REMARK VINA RESULT:      -8.1     14.576     17.679
REMARK  3 active torsions:
REMARK  status: ('A' for Active; 'I' for Inactive)
REMARK    1  A    between atoms: C9_13  and  O2_2 
REMARK    2  A    between atoms: C12_16  and  O4_4 
REMARK    3  A    between atoms: C1_5  and  C2_6 
ROOT
HETATM    1  O1  UNK     1      19.168   0.369  15.917  1.00  0.00    -0.309 OA
HETATM    2  O3  UNK     1      18.652  -0.526  19.858  1.00  0.00    -0.287 OA
HETATM    3  C1  UNK     1      18.913  -0.926  16.342  1.00  0.00     0.090 A 
HETATM    4  C3  UNK     1      19.090   1.124  18.224  1.00  0.00     0.048 A 
HETATM    5  C4  UNK     1      19.254   1.360  16.860  1.00  0.00     0.090 A 
HETATM    6  C5  UNK     1      18.730  -1.279  17.624  1.00  0.00     0.093 A 
HETATM    7  C6  UNK     1      18.811  -0.247  18.677  1.00  0.00     0.187 A 
HETATM    8  C10 UNK     1      19.188   2.174  19.141  1.00  0.00     0.018 A 
HETATM    9  C11 UNK     1      19.517   2.652  16.404  1.00  0.00     0.038 A 
HETATM   10  C14 UNK     1      19.451   3.465  18.681  1.00  0.00     0.001 A 
HETATM   11  C15 UNK     1      19.616   3.703  17.315  1.00  0.00     0.003 A 
ENDROOT
BRANCH   3  12
HETATM   12  C2  UNK     1      18.833  -1.913  15.246  1.00  0.00     0.001 A 
HETATM   13  C7  UNK     1      19.037  -1.510  13.924  1.00  0.00     0.054 A 
HETATM   14  C9  UNK     1      18.962  -2.442  12.887  1.00  0.00     0.102 A 
HETATM   15  C12 UNK     1      18.685  -3.780  13.173  1.00  0.00     0.099 A 
HETATM   16  C13 UNK     1      18.481  -4.185  14.492  1.00  0.00     0.040 A 
HETATM   17  C8  UNK     1      18.556  -3.253  15.527  1.00  0.00     0.017 A 
BRANCH  14  18
HETATM   18  O2  UNK     1      19.162  -2.035  11.604  1.00  0.00    -0.353 OA
HETATM   19  C16 UNK     1      20.507  -1.766  11.211  1.00  0.00     0.210 C 
ENDBRANCH  14  18
BRANCH  15  20
HETATM   20  O4  UNK     1      18.610  -4.699  12.170  1.00  0.00    -0.358 OA
HETATM   21  H9  UNK     1      18.869  -4.276  11.333  1.00  0.00     0.217 HD
ENDBRANCH  15  20
ENDBRANCH   3  12
TORSDOF 3
ENDMDL
MODEL 6
REMARK VINA RESULT:      -7.8      7.275      9.165
REMARK  3 active torsions:
REMARK  status: ('A' for Active; 'I' for Inactive)
REMARK    1  A    between atoms: C9_13  and  O2_2 
REMARK    2  A    between atoms: C12_16  and  O4_4 
REMARK    3  A    between atoms: C1_5  and  C2_6 
ROOT
HETATM    1  O1  UNK     1      16.419   7.435  32.762  1.00  0.00    -0.309 OA
HETATM    2  O3  UNK     1      19.090  10.137  34.232  1.00  0.00    -0.287 OA
HETATM    3  C1  UNK     1      17.787   7.254  32.625  1.00  0.00     0.090 A 
HETATM    4  C3  UNK     1      16.828   9.526  33.928  1.00  0.00     0.048 A 
HETATM    5  C4  UNK     1      15.970   8.561  33.404  1.00  0.00     0.090 A 
HETATM    6  C5  UNK     1      18.712   8.107  33.093  1.00  0.00     0.093 A 
HETATM    7  C6  UNK     1      18.280   9.333  33.793  1.00  0.00     0.187 A 
HETATM    8  C10 UNK     1      16.314  10.654  34.573  1.00  0.00     0.018 A 
HETATM    9  C11 UNK     1      14.588   8.718  33.521  1.00  0.00     0.038 A 
HETATM   10  C14 UNK     1      14.932  10.808  34.689  1.00  0.00     0.001 A 
HETATM   11  C15 UNK     1      14.071   9.843  34.163  1.00  0.00     0.003 A 
ENDROOT
BRANCH   3  12
HETATM   12  C2  UNK     1      18.161   6.008  31.927  1.00  0.00     0.001 A 
HETATM   13  C7  UNK     1      17.802   4.769  32.464  1.00  0.00     0.054 A 
HETATM   14  C9  UNK     1      18.155   3.590  31.805  1.00  0.00     0.102 A 
HETATM   15  C12 UNK     1      18.866   3.649  30.606  1.00  0.00     0.099 A 
HETATM   16  C13 UNK     1      19.225   4.885  30.067  1.00  0.00     0.040 A 
HETATM   17  C8  UNK     1      18.873   6.062  30.726  1.00  0.00     0.017 A 
BRANCH  14  18
HETATM   18  O2  UNK     1      17.799   2.390  32.341  1.00  0.00    -0.353 OA
HETATM   19  C16 UNK     1      18.151   2.158  33.703  1.00  0.00     0.210 C 
ENDBRANCH  14  18
BRANCH  15  20
HETATM   20  O4  UNK     1      19.215   2.506  29.953  1.00  0.00    -0.358 OA
HETATM   21  H9  UNK     1      20.181   2.487  29.841  1.00  0.00     0.217 HD
ENDBRANCH  15  20
ENDBRANCH   3  12
TORSDOF 3
ENDMDL
MODEL 7
REMARK VINA RESULT:      -7.8     14.090     17.821
REMARK  3 active torsions:
REMARK  status: ('A' for Active; 'I' for Inactive)
REMARK    1  A    between atoms: C9_13  and  O2_2 
REMARK    2  A    between atoms: C12_16  and  O4_4 
REMARK    3  A    between atoms: C1_5  and  C2_6 
ROOT
HETATM    1  O1  UNK     1      19.084  -0.957  17.160  1.00  0.00    -0.309 OA
HETATM    2  O3  UNK     1      19.353   2.771  15.540  1.00  0.00    -0.287 OA
HETATM    3  C1  UNK     1      19.207  -0.766  15.792  1.00  0.00     0.090 A 
HETATM    4  C3  UNK     1      19.131   1.449  17.486  1.00  0.00     0.048 A 
HETATM    5  C4  UNK     1      19.046   0.146  17.973  1.00  0.00     0.090 A 
HETATM    6  C5  UNK     1      19.304   0.438  15.204  1.00  0.00     0.093 A 
HETATM    7  C6  UNK     1      19.270   1.656  16.036  1.00  0.00     0.187 A 
HETATM    8  C10 UNK     1      19.087   2.537  18.362  1.00  0.00     0.018 A 
HETATM    9  C11 UNK     1      18.917  -0.078  19.344  1.00  0.00     0.038 A 
HETATM   10  C14 UNK     1      18.958   2.309  19.732  1.00  0.00     0.001 A 
HETATM   11  C15 UNK     1      18.872   1.005  20.223  1.00  0.00     0.003 A 
ENDROOT
BRANCH   3  12
HETATM   12  C2  UNK     1      19.247  -2.018  15.011  1.00  0.00     0.001 A 
HETATM   13  C7  UNK     1      18.911  -2.010  13.655  1.00  0.00     0.054 A 
HETATM   14  C9  UNK     1      18.948  -3.193  12.916  1.00  0.00     0.102 A 
HETATM   15  C12 UNK     1      19.324  -4.387  13.532  1.00  0.00     0.099 A 
HETATM   16  C13 UNK     1      19.661  -4.399  14.886  1.00  0.00     0.040 A 
HETATM   17  C8  UNK     1      19.623  -3.216  15.624  1.00  0.00     0.017 A 
BRANCH  14  18
HETATM   18  O2  UNK     1      18.618  -3.170  11.596  1.00  0.00    -0.353 OA
HETATM   19  C16 UNK     1      19.582  -2.630  10.695  1.00  0.00     0.210 C 
ENDBRANCH  14  18
BRANCH  15  20
HETATM   20  O4  UNK     1      19.366  -5.549  12.821  1.00  0.00    -0.358 OA
HETATM   21  H9  UNK     1      18.522  -6.019  12.933  1.00  0.00     0.217 HD
ENDBRANCH  15  20
ENDBRANCH   3  12
TORSDOF 3
ENDMDL
MODEL 8
REMARK VINA RESULT:      -7.8      5.786      7.405
REMARK  3 active torsions:
REMARK  status: ('A' for Active; 'I' for Inactive)
REMARK    1  A    between atoms: C9_13  and  O2_2 
REMARK    2  A    between atoms: C12_16  and  O4_4 
REMARK    3  A    between atoms: C1_5  and  C2_6 
ROOT
HETATM    1  O1  UNK     1      18.364   3.928  34.469  1.00  0.00    -0.309 OA
HETATM    2  O3  UNK     1      18.165   1.794  31.004  1.00  0.00    -0.287 OA
HETATM    3  C1  UNK     1      18.287   4.553  33.234  1.00  0.00     0.090 A 
HETATM    4  C3  UNK     1      18.317   1.766  33.362  1.00  0.00     0.048 A 
HETATM    5  C4  UNK     1      18.380   2.557  34.508  1.00  0.00     0.090 A 
HETATM    6  C5  UNK     1      18.214   3.902  32.061  1.00  0.00     0.093 A 
HETATM    7  C6  UNK     1      18.227   2.426  32.050  1.00  0.00     0.187 A 
HETATM    8  C10 UNK     1      18.338   0.373  33.462  1.00  0.00     0.018 A 
HETATM    9  C11 UNK     1      18.464   1.957  35.765  1.00  0.00     0.038 A 
HETATM   10  C14 UNK     1      18.421  -0.223  34.721  1.00  0.00     0.001 A 
HETATM   11  C15 UNK     1      18.486   0.567  35.869  1.00  0.00     0.003 A 
ENDROOT
BRANCH   3  12
HETATM   12  C2  UNK     1      18.267   6.027  33.306  1.00  0.00     0.001 A 
HETATM   13  C7  UNK     1      17.268   6.749  32.648  1.00  0.00     0.054 A 
HETATM   14  C9  UNK     1      17.248   8.142  32.717  1.00  0.00     0.102 A 
HETATM   15  C12 UNK     1      18.228   8.817  33.446  1.00  0.00     0.099 A 
HETATM   16  C13 UNK     1      19.227   8.100  34.105  1.00  0.00     0.040 A 
HETATM   17  C8  UNK     1      19.246   6.708  34.035  1.00  0.00     0.017 A 
BRANCH  14  18
HETATM   18  O2  UNK     1      16.268   8.832  32.070  1.00  0.00    -0.353 OA
HETATM   19  C16 UNK     1      15.035   9.012  32.764  1.00  0.00     0.210 C 
ENDBRANCH  14  18
BRANCH  15  20
HETATM   20  O4  UNK     1      18.219  10.178  33.521  1.00  0.00    -0.358 OA
HETATM   21  H9  UNK     1      18.341  10.444  34.448  1.00  0.00     0.217 HD
ENDBRANCH  15  20
ENDBRANCH   3  12
TORSDOF 3
ENDMDL
MODEL 9
REMARK VINA RESULT:      -7.8      1.797      6.469
REMARK  3 active torsions:
REMARK  status: ('A' for Active; 'I' for Inactive)
REMARK    1  A    between atoms: C9_13  and  O2_2 
REMARK    2  A    between atoms: C12_16  and  O4_4 
REMARK    3  A    between atoms: C1_5  and  C2_6 
ROOT
HETATM    1  O1  UNK     1      19.320  -0.564  32.669  1.00  0.00    -0.309 OA
HETATM    2  O3  UNK     1      21.254  -3.554  30.690  1.00  0.00    -0.287 OA
HETATM    3  C1  UNK     1      19.745  -1.712  33.321  1.00  0.00     0.090 A 
HETATM    4  C3  UNK     1      20.212  -1.436  30.585  1.00  0.00     0.048 A 
HETATM    5  C4  UNK     1      19.558  -0.451  31.324  1.00  0.00     0.090 A 
HETATM    6  C5  UNK     1      20.390  -2.726  32.722  1.00  0.00     0.093 A 
HETATM    7  C6  UNK     1      20.671  -2.651  31.275  1.00  0.00     0.187 A 
HETATM    8  C10 UNK     1      20.427  -1.267  29.215  1.00  0.00     0.018 A 
HETATM    9  C11 UNK     1      19.113   0.712  30.695  1.00  0.00     0.038 A 
HETATM   10  C14 UNK     1      19.982  -0.102  28.589  1.00  0.00     0.001 A 
HETATM   11  C15 UNK     1      19.326   0.885  29.327  1.00  0.00     0.003 A 
ENDROOT
BRANCH   3  12
HETATM   12  C2  UNK     1      19.446  -1.728  34.767  1.00  0.00     0.001 A 
HETATM   13  C7  UNK     1      18.567  -0.788  35.312  1.00  0.00     0.054 A 
HETATM   14  C9  UNK     1      18.284  -0.802  36.678  1.00  0.00     0.102 A 
HETATM   15  C12 UNK     1      18.879  -1.758  37.503  1.00  0.00     0.099 A 
HETATM   16  C13 UNK     1      19.756  -2.698  36.962  1.00  0.00     0.040 A 
HETATM   17  C8  UNK     1      20.039  -2.683  35.597  1.00  0.00     0.017 A 
BRANCH  14  18
HETATM   18  O2  UNK     1      17.426   0.120  37.195  1.00  0.00    -0.353 OA
HETATM   19  C16 UNK     1      17.825   1.488  37.125  1.00  0.00     0.210 C 
ENDBRANCH  14  18
BRANCH  15  20
HETATM   20  O4  UNK     1      18.610  -1.782  38.838  1.00  0.00    -0.358 OA
HETATM   21  H9  UNK     1      18.378  -2.691  39.098  1.00  0.00     0.217 HD
ENDBRANCH  15  20
ENDBRANCH   3  12
TORSDOF 3
ENDMDL
MODEL 10
REMARK VINA RESULT:      -7.8      6.176      8.104
REMARK  3 active torsions:
REMARK  status: ('A' for Active; 'I' for Inactive)
REMARK    1  A    between atoms: C9_13  and  O2_2 
REMARK    2  A    between atoms: C12_16  and  O4_4 
REMARK    3  A    between atoms: C1_5  and  C2_6 
ROOT
HETATM    1  O1  UNK     1      19.100   6.219  33.220  1.00  0.00    -0.309 OA
HETATM    2  O3  UNK     1      15.706   8.293  32.338  1.00  0.00    -0.287 OA
HETATM    3  C1  UNK     1      18.007   5.607  32.624  1.00  0.00     0.090 A 
HETATM    4  C3  UNK     1      17.886   8.323  33.249  1.00  0.00     0.048 A 
HETATM    5  C4  UNK     1      19.017   7.554  33.521  1.00  0.00     0.090 A 
HETATM    6  C5  UNK     1      16.867   6.241  32.306  1.00  0.00     0.093 A 
HETATM    7  C6  UNK     1      16.729   7.679  32.609  1.00  0.00     0.187 A 
HETATM    8  C10 UNK     1      17.858   9.680  33.578  1.00  0.00     0.018 A 
HETATM    9  C11 UNK     1      20.129   8.140  34.126  1.00  0.00     0.038 A 
HETATM   10  C14 UNK     1      18.972  10.263  34.182  1.00  0.00     0.001 A 
HETATM   11  C15 UNK     1      20.105   9.495  34.456  1.00  0.00     0.003 A 
ENDROOT
BRANCH   3  12
HETATM   12  C2  UNK     1      18.206   4.173  32.335  1.00  0.00     0.001 A 
HETATM   13  C7  UNK     1      18.495   3.752  31.035  1.00  0.00     0.054 A 
HETATM   14  C9  UNK     1      18.683   2.397  30.761  1.00  0.00     0.102 A 
HETATM   15  C12 UNK     1      18.584   1.459  31.790  1.00  0.00     0.099 A 
HETATM   16  C13 UNK     1      18.296   1.875  33.090  1.00  0.00     0.040 A 
HETATM   17  C8  UNK     1      18.108   3.230  33.362  1.00  0.00     0.017 A 
BRANCH  14  18
HETATM   18  O2  UNK     1      18.963   2.002  29.489  1.00  0.00    -0.353 OA
HETATM   19  C16 UNK     1      17.866   1.904  28.583  1.00  0.00     0.210 C 
ENDBRANCH  14  18
BRANCH  15  20
HETATM   20  O4  UNK     1      18.766   0.133  31.535  1.00  0.00    -0.358 OA
HETATM   21  H9  UNK     1      19.128   0.029  30.638  1.00  0.00     0.217 HD
ENDBRANCH  15  20
ENDBRANCH   3  12
TORSDOF 3
ENDMDL
