MODEL 1
REMARK VINA RESULT:      -8.9      0.000      0.000
REMARK  10 active torsions:
REMARK  status: ('A' for Active; 'I' for Inactive)
REMARK    1  A    between atoms: C7_17  and  O1_1 
REMARK    2  A    between atoms: C8_18  and  O1_1 
REMARK    3  A    between atoms: C12_22  and  O2_2 
REMARK    4  A    between atoms: C5_15  and  O2_2 
REMARK    5  A    between atoms: C2_12  and  N1_9 
REMARK       I    between atoms: C8_18  and  N1_9 
REMARK    6  A    between atoms: C27_37  and  N2_10 
REMARK    7  A    between atoms: C1_11  and  C2_12 
REMARK    8  A    between atoms: C1_11  and  C3_13 
REMARK    9  A    between atoms: C2_12  and  C5_15 
REMARK   10  A    between atoms: C16_26  and  C21_31 
ROOT
HETATM    1  O4  UNK     1      24.400 -10.494  36.337  1.00  0.00    -0.313 OA
HETATM    2  O6  UNK     1      23.058  -7.143  38.212  1.00  0.00    -0.286 OA
HETATM    3  C12 UNK     1      27.393  -9.658  38.235  1.00  0.00     0.082 A 
HETATM    4  C13 UNK     1      24.820  -8.658  37.861  1.00  0.00     0.049 A 
HETATM    5  C14 UNK     1      25.220  -9.809  37.191  1.00  0.00     0.092 A 
HETATM    6  C15 UNK     1      26.509 -10.312  37.377  1.00  0.00     0.075 A 
HETATM    7  C16 UNK     1      22.594  -8.929  36.712  1.00  0.00     0.054 A 
HETATM    8  C17 UNK     1      26.990  -8.504  38.907  1.00  0.00     0.038 A 
HETATM    9  C18 UNK     1      23.458  -8.153  37.646  1.00  0.00     0.198 A 
HETATM   10  C19 UNK     1      25.702  -8.000  38.721  1.00  0.00     0.021 A 
HETATM   11  C20 UNK     1      23.107 -10.031  36.124  1.00  0.00     0.065 A 
HETATM   12  C22 UNK     1      22.363 -10.913  35.161  1.00  0.00     0.077 C 
ENDROOT
BRANCH   3  13
HETATM   13  O2  UNK     1      28.684 -10.160  38.423  1.00  0.00    -0.277 OA
BRANCH  13  14
HETATM   14  C5  UNK     1      29.677  -9.292  37.986  1.00  0.00     0.287 C 
HETATM   15  O3  UNK     1      30.658  -8.941  38.634  1.00  0.00    -0.262 OA
BRANCH  14  16
HETATM   16  C2  UNK     1      29.405  -8.802  36.566  1.00  0.00     0.190 C 
BRANCH  16  17
HETATM   17  C1  UNK     1      29.697  -9.913  35.528  1.00  0.00     0.014 C 
HETATM   18  C4  UNK     1      31.148  -9.868  35.029  1.00  0.00     0.012 C 
BRANCH  17  19
HETATM   19  C3  UNK     1      28.689  -9.840  34.361  1.00  0.00     0.002 C 
HETATM   20  C6  UNK     1      29.260 -10.317  33.032  1.00  0.00     0.005 C 
ENDBRANCH  17  19
ENDBRANCH  16  17
BRANCH  16  21
HETATM   21  N1  UNK     1      30.115  -7.582  36.278  1.00  0.00    -0.323 N 
HETATM   22  C8  UNK     1      29.617  -6.322  36.546  1.00  0.00     0.362 C 
HETATM   23  O5  UNK     1      28.528  -6.076  37.055  1.00  0.00    -0.238 OA
HETATM   24  H8  UNK     1      31.059  -7.639  35.908  1.00  0.00     0.165 HD
BRANCH  22  25
HETATM   25  O1  UNK     1      30.523  -5.374  36.159  1.00  0.00    -0.294 OA
BRANCH  25  26
HETATM   26  C7  UNK     1      31.150  -4.640  37.216  1.00  0.00     0.061 C 
HETATM   27  C10 UNK     1      30.068  -3.907  38.008  1.00  0.00     0.046 C 
HETATM   28  C11 UNK     1      32.114  -3.643  36.577  1.00  0.00     0.046 C 
HETATM   29  C9  UNK     1      31.907  -5.624  38.109  1.00  0.00     0.046 C 
ENDBRANCH  25  26
ENDBRANCH  22  25
ENDBRANCH  16  21
ENDBRANCH  14  16
ENDBRANCH  13  14
ENDBRANCH   3  13
BRANCH   7  30
HETATM   30  C21 UNK     1      21.231  -8.479  36.460  1.00  0.00    -0.019 A 
HETATM   31  C24 UNK     1      20.204  -8.844  37.329  1.00  0.00     0.015 A 
HETATM   32  C26 UNK     1      18.900  -8.415  37.088  1.00  0.00     0.037 A 
HETATM   33  C27 UNK     1      18.622  -7.620  35.975  1.00  0.00     0.102 A 
HETATM   34  C25 UNK     1      19.649  -7.255  35.104  1.00  0.00     0.037 A 
HETATM   35  C23 UNK     1      20.954  -7.685  35.347  1.00  0.00     0.015 A 
BRANCH  33  36
HETATM   36  N2  UNK     1      17.293  -7.183  35.729  1.00  0.00    -0.116 N 
HETATM   37  O7  UNK     1      16.697  -7.594  34.705  1.00  0.00    -0.532 OA
HETATM   38  O8  UNK     1      16.752  -6.398  36.544  1.00  0.00    -0.532 OA
ENDBRANCH  33  36
ENDBRANCH   7  30
TORSDOF 10
ENDMDL
MODEL 2
REMARK VINA RESULT:      -8.7     13.986     17.713
REMARK  10 active torsions:
REMARK  status: ('A' for Active; 'I' for Inactive)
REMARK    1  A    between atoms: C7_17  and  O1_1 
REMARK    2  A    between atoms: C8_18  and  O1_1 
REMARK    3  A    between atoms: C12_22  and  O2_2 
REMARK    4  A    between atoms: C5_15  and  O2_2 
REMARK    5  A    between atoms: C2_12  and  N1_9 
REMARK       I    between atoms: C8_18  and  N1_9 
REMARK    6  A    between atoms: C27_37  and  N2_10 
REMARK    7  A    between atoms: C1_11  and  C2_12 
REMARK    8  A    between atoms: C1_11  and  C3_13 
REMARK    9  A    between atoms: C2_12  and  C5_15 
REMARK   10  A    between atoms: C16_26  and  C21_31 
ROOT
HETATM    1  O4  UNK     1      15.629   6.181  32.280  1.00  0.00    -0.313 OA
HETATM    2  O6  UNK     1      18.019   9.308  33.306  1.00  0.00    -0.286 OA
HETATM    3  C12 UNK     1      18.861   4.743  31.418  1.00  0.00     0.082 A 
HETATM    4  C13 UNK     1      17.853   7.124  32.454  1.00  0.00     0.049 A 
HETATM    5  C14 UNK     1      16.985   6.090  32.122  1.00  0.00     0.092 A 
HETATM    6  C15 UNK     1      17.487   4.897  31.602  1.00  0.00     0.075 A 
HETATM    7  C16 UNK     1      15.815   8.426  33.160  1.00  0.00     0.054 A 
HETATM    8  C17 UNK     1      19.732   5.781  31.751  1.00  0.00     0.038 A 
HETATM    9  C18 UNK     1      17.296   8.369  32.999  1.00  0.00     0.198 A 
HETATM   10  C19 UNK     1      19.230   6.975  32.270  1.00  0.00     0.021 A 
HETATM   11  C20 UNK     1      15.084   7.350  32.796  1.00  0.00     0.065 A 
HETATM   12  C22 UNK     1      13.588   7.258  32.897  1.00  0.00     0.077 C 
ENDROOT
BRANCH   3  13
HETATM   13  O2  UNK     1      19.367   3.548  30.897  1.00  0.00    -0.277 OA
BRANCH  13  14
HETATM   14  C5  UNK     1      18.459   2.498  30.954  1.00  0.00     0.287 C 
HETATM   15  O3  UNK     1      17.444   2.390  30.274  1.00  0.00    -0.262 OA
BRANCH  14  16
HETATM   16  C2  UNK     1      18.874   1.459  31.993  1.00  0.00     0.190 C 
BRANCH  16  17
HETATM   17  C1  UNK     1      19.170   0.093  31.328  1.00  0.00     0.014 C 
HETATM   18  C4  UNK     1      19.078  -1.067  32.328  1.00  0.00     0.012 C 
BRANCH  17  19
HETATM   19  C3  UNK     1      20.539   0.125  30.614  1.00  0.00     0.002 C 
HETATM   20  C6  UNK     1      20.485  -0.358  29.171  1.00  0.00     0.005 C 
ENDBRANCH  17  19
ENDBRANCH  16  17
BRANCH  16  21
HETATM   21  N1  UNK     1      17.906   1.353  33.056  1.00  0.00    -0.323 N 
HETATM   22  C8  UNK     1      18.154   1.731  34.361  1.00  0.00     0.362 C 
HETATM   23  O5  UNK     1      19.207   2.198  34.782  1.00  0.00    -0.238 OA
HETATM   24  H8  UNK     1      16.967   1.036  32.834  1.00  0.00     0.165 HD
BRANCH  22  25
HETATM   25  O1  UNK     1      17.043   1.508  35.126  1.00  0.00    -0.294 OA
BRANCH  25  26
HETATM   26  C7  UNK     1      17.031   0.282  35.867  1.00  0.00     0.061 C 
HETATM   27  C10 UNK     1      18.443  -0.301  35.866  1.00  0.00     0.046 C 
HETATM   28  C11 UNK     1      16.058  -0.667  35.171  1.00  0.00     0.046 C 
HETATM   29  C9  UNK     1      16.565   0.581  37.292  1.00  0.00     0.046 C 
ENDBRANCH  25  26
ENDBRANCH  22  25
ENDBRANCH  16  21
ENDBRANCH  14  16
ENDBRANCH  13  14
ENDBRANCH   3  13
BRANCH   7  30
HETATM   30  C21 UNK     1      15.202   9.633  33.698  1.00  0.00    -0.019 A 
HETATM   31  C24 UNK     1      15.110   9.813  35.078  1.00  0.00     0.015 A 
HETATM   32  C26 UNK     1      14.522  10.968  35.593  1.00  0.00     0.037 A 
HETATM   33  C27 UNK     1      14.026  11.944  34.728  1.00  0.00     0.102 A 
HETATM   34  C25 UNK     1      14.117  11.764  33.348  1.00  0.00     0.037 A 
HETATM   35  C23 UNK     1      14.705  10.609  32.833  1.00  0.00     0.015 A 
BRANCH  33  36
HETATM   36  N2  UNK     1      13.428  13.120  35.253  1.00  0.00    -0.116 N 
HETATM   37  O7  UNK     1      12.246  13.068  35.669  1.00  0.00    -0.532 OA
HETATM   38  O8  UNK     1      14.099  14.179  35.287  1.00  0.00    -0.532 OA
ENDBRANCH  33  36
ENDBRANCH   7  30
TORSDOF 10
ENDMDL
MODEL 3
REMARK VINA RESULT:      -8.6     32.395     35.443
REMARK  10 active torsions:
REMARK  status: ('A' for Active; 'I' for Inactive)
REMARK    1  A    between atoms: C7_17  and  O1_1 
REMARK    2  A    between atoms: C8_18  and  O1_1 
REMARK    3  A    between atoms: C12_22  and  O2_2 
REMARK    4  A    between atoms: C5_15  and  O2_2 
REMARK    5  A    between atoms: C2_12  and  N1_9 
REMARK       I    between atoms: C8_18  and  N1_9 
REMARK    6  A    between atoms: C27_37  and  N2_10 
REMARK    7  A    between atoms: C1_11  and  C2_12 
REMARK    8  A    between atoms: C1_11  and  C3_13 
REMARK    9  A    between atoms: C2_12  and  C5_15 
REMARK   10  A    between atoms: C16_26  and  C21_31 
ROOT
HETATM    1  O4  UNK     1      14.202   9.696   9.416  1.00  0.00    -0.313 OA
HETATM    2  O6  UNK     1      17.881   8.003   9.798  1.00  0.00    -0.286 OA
HETATM    3  C12 UNK     1      13.191   6.256  10.050  1.00  0.00     0.082 A 
HETATM    4  C13 UNK     1      15.548   7.721   9.812  1.00  0.00     0.049 A 
HETATM    5  C14 UNK     1      14.320   8.357   9.671  1.00  0.00     0.092 A 
HETATM    6  C15 UNK     1      13.137   7.625   9.789  1.00  0.00     0.075 A 
HETATM    7  C16 UNK     1      16.605   9.973   9.408  1.00  0.00     0.054 A 
HETATM    8  C17 UNK     1      14.424   5.618  10.191  1.00  0.00     0.038 A 
HETATM    9  C18 UNK     1      16.776   8.517   9.682  1.00  0.00     0.198 A 
HETATM   10  C19 UNK     1      15.607   6.350  10.072  1.00  0.00     0.021 A 
HETATM   11  C20 UNK     1      15.353  10.465   9.292  1.00  0.00     0.065 A 
HETATM   12  C22 UNK     1      15.022  11.904   9.016  1.00  0.00     0.077 C 
ENDROOT
BRANCH   3  13
HETATM   13  O2  UNK     1      12.008   5.520  10.169  1.00  0.00    -0.277 OA
BRANCH  13  14
HETATM   14  C5  UNK     1      11.558   5.008   8.958  1.00  0.00     0.287 C 
HETATM   15  O3  UNK     1      12.218   4.332   8.176  1.00  0.00    -0.262 OA
BRANCH  14  16
HETATM   16  C2  UNK     1      10.104   5.393   8.696  1.00  0.00     0.190 C 
BRANCH  16  17
HETATM   17  C1  UNK     1      10.005   6.801   8.061  1.00  0.00     0.014 C 
HETATM   18  C4  UNK     1       9.474   7.844   9.054  1.00  0.00     0.012 C 
BRANCH  17  19
HETATM   19  C3  UNK     1       9.157   6.754   6.772  1.00  0.00     0.002 C 
HETATM   20  C6  UNK     1       9.859   6.071   5.606  1.00  0.00     0.005 C 
ENDBRANCH  17  19
ENDBRANCH  16  17
BRANCH  16  21
HETATM   21  N1  UNK     1       9.298   5.269   9.885  1.00  0.00    -0.323 N 
HETATM   22  C8  UNK     1       8.086   4.609   9.926  1.00  0.00     0.362 C 
HETATM   23  O5  UNK     1       7.543   4.051   8.978  1.00  0.00    -0.238 OA
HETATM   24  H8  UNK     1       9.657   5.636  10.761  1.00  0.00     0.165 HD
BRANCH  22  25
HETATM   25  O1  UNK     1       7.569   4.667  11.190  1.00  0.00    -0.294 OA
BRANCH  25  26
HETATM   26  C7  UNK     1       6.293   5.305  11.315  1.00  0.00     0.061 C 
HETATM   27  C10 UNK     1       6.253   6.504  10.368  1.00  0.00     0.046 C 
HETATM   28  C11 UNK     1       6.147   5.762  12.765  1.00  0.00     0.046 C 
HETATM   29  C9  UNK     1       5.207   4.291  10.958  1.00  0.00     0.046 C 
ENDBRANCH  25  26
ENDBRANCH  22  25
ENDBRANCH  16  21
ENDBRANCH  14  16
ENDBRANCH  13  14
ENDBRANCH   3  13
BRANCH   7  30
HETATM   30  C21 UNK     1      17.785  10.816   9.272  1.00  0.00    -0.019 A 
HETATM   31  C24 UNK     1      18.350  11.412  10.398  1.00  0.00     0.015 A 
HETATM   32  C26 UNK     1      19.479  12.220  10.268  1.00  0.00     0.037 A 
HETATM   33  C27 UNK     1      20.044  12.432   9.010  1.00  0.00     0.102 A 
HETATM   34  C25 UNK     1      19.479  11.836   7.882  1.00  0.00     0.037 A 
HETATM   35  C23 UNK     1      18.349  11.028   8.013  1.00  0.00     0.015 A 
BRANCH  33  36
HETATM   36  N2  UNK     1      21.194  13.255   8.877  1.00  0.00    -0.116 N 
HETATM   37  O7  UNK     1      21.545  13.971   9.845  1.00  0.00    -0.532 OA
HETATM   38  O8  UNK     1      21.827  13.242   7.794  1.00  0.00    -0.532 OA
ENDBRANCH  33  36
ENDBRANCH   7  30
TORSDOF 10
ENDMDL
MODEL 4
REMARK VINA RESULT:      -8.5     15.514     19.132
REMARK  10 active torsions:
REMARK  status: ('A' for Active; 'I' for Inactive)
REMARK    1  A    between atoms: C7_17  and  O1_1 
REMARK    2  A    between atoms: C8_18  and  O1_1 
REMARK    3  A    between atoms: C12_22  and  O2_2 
REMARK    4  A    between atoms: C5_15  and  O2_2 
REMARK    5  A    between atoms: C2_12  and  N1_9 
REMARK       I    between atoms: C8_18  and  N1_9 
REMARK    6  A    between atoms: C27_37  and  N2_10 
REMARK    7  A    between atoms: C1_11  and  C2_12 
REMARK    8  A    between atoms: C1_11  and  C3_13 
REMARK    9  A    between atoms: C2_12  and  C5_15 
REMARK   10  A    between atoms: C16_26  and  C21_31 
ROOT
HETATM    1  O4  UNK     1      15.170   8.686  32.981  1.00  0.00    -0.313 OA
HETATM    2  O6  UNK     1      18.629  10.360  34.316  1.00  0.00    -0.286 OA
HETATM    3  C12 UNK     1      17.408   5.856  32.489  1.00  0.00     0.082 A 
HETATM    4  C13 UNK     1      17.543   8.476  33.426  1.00  0.00     0.049 A 
HETATM    5  C14 UNK     1      16.330   7.959  32.983  1.00  0.00     0.092 A 
HETATM    6  C15 UNK     1      16.260   6.647  32.513  1.00  0.00     0.075 A 
HETATM    7  C16 UNK     1      16.301  10.616  33.902  1.00  0.00     0.054 A 
HETATM    8  C17 UNK     1      18.625   6.374  32.935  1.00  0.00     0.038 A 
HETATM    9  C18 UNK     1      17.586   9.860  33.916  1.00  0.00     0.198 A 
HETATM   10  C19 UNK     1      18.695   7.687  33.404  1.00  0.00     0.021 A 
HETATM   11  C20 UNK     1      15.193   9.996  33.443  1.00  0.00     0.065 A 
HETATM   12  C22 UNK     1      13.830  10.626  33.366  1.00  0.00     0.077 C 
ENDROOT
BRANCH   3  13
HETATM   13  O2  UNK     1      17.341   4.541  32.019  1.00  0.00    -0.277 OA
BRANCH  13  14
HETATM   14  C5  UNK     1      18.426   4.187  31.227  1.00  0.00     0.287 C 
HETATM   15  O3  UNK     1      18.991   4.916  30.417  1.00  0.00    -0.262 OA
BRANCH  14  16
HETATM   16  C2  UNK     1      18.852   2.743  31.479  1.00  0.00     0.190 C 
BRANCH  16  17
HETATM   17  C1  UNK     1      19.130   2.003  30.147  1.00  0.00     0.014 C 
HETATM   18  C4  UNK     1      17.896   1.978  29.234  1.00  0.00     0.012 C 
BRANCH  17  19
HETATM   19  C3  UNK     1      19.668   0.582  30.421  1.00  0.00     0.002 C 
HETATM   20  C6  UNK     1      20.196  -0.119  29.176  1.00  0.00     0.005 C 
ENDBRANCH  17  19
ENDBRANCH  16  17
BRANCH  16  21
HETATM   21  N1  UNK     1      17.902   2.044  32.306  1.00  0.00    -0.323 N 
HETATM   22  C8  UNK     1      17.978   1.989  33.684  1.00  0.00     0.362 C 
HETATM   23  O5  UNK     1      18.844   2.516  34.374  1.00  0.00    -0.238 OA
HETATM   24  H8  UNK     1      17.095   1.610  31.868  1.00  0.00     0.165 HD
BRANCH  22  25
HETATM   25  O1  UNK     1      16.936   1.254  34.176  1.00  0.00    -0.294 OA
BRANCH  25  26
HETATM   26  C7  UNK     1      17.290   0.040  34.850  1.00  0.00     0.061 C 
HETATM   27  C10 UNK     1      18.386  -0.660  34.047  1.00  0.00     0.046 C 
HETATM   28  C11 UNK     1      16.038  -0.830  34.920  1.00  0.00     0.046 C 
HETATM   29  C9  UNK     1      17.782   0.390  36.254  1.00  0.00     0.046 C 
ENDBRANCH  25  26
ENDBRANCH  22  25
ENDBRANCH  16  21
ENDBRANCH  14  16
ENDBRANCH  13  14
ENDBRANCH   3  13
BRANCH   7  30
HETATM   30  C21 UNK     1      16.279  11.993  34.377  1.00  0.00    -0.019 A 
HETATM   31  C24 UNK     1      15.923  12.269  35.697  1.00  0.00     0.015 A 
HETATM   32  C26 UNK     1      15.901  13.587  36.152  1.00  0.00     0.037 A 
HETATM   33  C27 UNK     1      16.234  14.630  35.287  1.00  0.00     0.102 A 
HETATM   34  C25 UNK     1      16.589  14.354  33.966  1.00  0.00     0.037 A 
HETATM   35  C23 UNK     1      16.612  13.035  33.512  1.00  0.00     0.015 A 
BRANCH  33  36
HETATM   36  N2  UNK     1      16.211  15.972  35.750  1.00  0.00    -0.116 N 
HETATM   37  O7  UNK     1      15.469  16.270  36.717  1.00  0.00    -0.532 OA
HETATM   38  O8  UNK     1      16.936  16.823  35.181  1.00  0.00    -0.532 OA
ENDBRANCH  33  36
ENDBRANCH   7  30
TORSDOF 10
ENDMDL
MODEL 5
REMARK VINA RESULT:      -8.4     10.011     14.045
REMARK  10 active torsions:
REMARK  status: ('A' for Active; 'I' for Inactive)
REMARK    1  A    between atoms: C7_17  and  O1_1 
REMARK    2  A    between atoms: C8_18  and  O1_1 
REMARK    3  A    between atoms: C12_22  and  O2_2 
REMARK    4  A    between atoms: C5_15  and  O2_2 
REMARK    5  A    between atoms: C2_12  and  N1_9 
REMARK       I    between atoms: C8_18  and  N1_9 
REMARK    6  A    between atoms: C27_37  and  N2_10 
REMARK    7  A    between atoms: C1_11  and  C2_12 
REMARK    8  A    between atoms: C1_11  and  C3_13 
REMARK    9  A    between atoms: C2_12  and  C5_15 
REMARK   10  A    between atoms: C16_26  and  C21_31 
ROOT
HETATM    1  O4  UNK     1      18.096  -0.321  36.194  1.00  0.00    -0.313 OA
HETATM    2  O6  UNK     1      20.355  -2.749  33.838  1.00  0.00    -0.286 OA
HETATM    3  C12 UNK     1      17.981   1.603  33.104  1.00  0.00     0.082 A 
HETATM    4  C13 UNK     1      19.099  -0.773  34.035  1.00  0.00     0.049 A 
HETATM    5  C14 UNK     1      18.335   0.015  34.888  1.00  0.00     0.092 A 
HETATM    6  C15 UNK     1      17.774   1.206  34.425  1.00  0.00     0.075 A 
HETATM    7  C16 UNK     1      19.389  -2.354  35.976  1.00  0.00     0.054 A 
HETATM    8  C17 UNK     1      18.747   0.811  32.247  1.00  0.00     0.038 A 
HETATM    9  C18 UNK     1      19.676  -2.021  34.551  1.00  0.00     0.198 A 
HETATM   10  C19 UNK     1      19.309  -0.379  32.711  1.00  0.00     0.021 A 
HETATM   11  C20 UNK     1      18.633  -1.499  36.698  1.00  0.00     0.065 A 
HETATM   12  C22 UNK     1      18.261  -1.696  38.141  1.00  0.00     0.077 C 
ENDROOT
BRANCH   3  13
HETATM   13  O2  UNK     1      17.421   2.795  32.637  1.00  0.00    -0.277 OA
BRANCH  13  14
HETATM   14  C5  UNK     1      18.230   3.903  32.857  1.00  0.00     0.287 C 
HETATM   15  O3  UNK     1      18.886   4.122  33.870  1.00  0.00    -0.262 OA
BRANCH  14  16
HETATM   16  C2  UNK     1      18.211   4.853  31.662  1.00  0.00     0.190 C 
BRANCH  16  17
HETATM   17  C1  UNK     1      19.307   4.478  30.634  1.00  0.00     0.014 C 
HETATM   18  C4  UNK     1      20.304   5.624  30.412  1.00  0.00     0.012 C 
BRANCH  17  19
HETATM   19  C3  UNK     1      18.668   4.011  29.309  1.00  0.00     0.002 C 
HETATM   20  C6  UNK     1      18.391   2.514  29.261  1.00  0.00     0.005 C 
ENDBRANCH  17  19
ENDBRANCH  16  17
BRANCH  16  21
HETATM   21  N1  UNK     1      18.296   6.231  32.075  1.00  0.00    -0.323 N 
HETATM   22  C8  UNK     1      17.203   7.067  32.189  1.00  0.00     0.362 C 
HETATM   23  O5  UNK     1      16.038   6.757  31.958  1.00  0.00    -0.238 OA
HETATM   24  H8  UNK     1      19.198   6.604  32.356  1.00  0.00     0.165 HD
BRANCH  22  25
HETATM   25  O1  UNK     1      17.608   8.306  32.600  1.00  0.00    -0.294 OA
BRANCH  25  26
HETATM   26  C7  UNK     1      17.673   8.505  34.016  1.00  0.00     0.061 C 
HETATM   27  C10 UNK     1      16.939   9.801  34.360  1.00  0.00     0.046 C 
HETATM   28  C11 UNK     1      19.147   8.604  34.401  1.00  0.00     0.046 C 
HETATM   29  C9  UNK     1      17.016   7.308  34.705  1.00  0.00     0.046 C 
ENDBRANCH  25  26
ENDBRANCH  22  25
ENDBRANCH  16  21
ENDBRANCH  14  16
ENDBRANCH  13  14
ENDBRANCH   3  13
BRANCH   7  30
HETATM   30  C21 UNK     1      19.932  -3.580  36.545  1.00  0.00    -0.019 A 
HETATM   31  C24 UNK     1      21.096  -3.537  37.311  1.00  0.00     0.015 A 
HETATM   32  C26 UNK     1      21.617  -4.711  37.855  1.00  0.00     0.037 A 
HETATM   33  C27 UNK     1      20.973  -5.928  37.633  1.00  0.00     0.102 A 
HETATM   34  C25 UNK     1      19.808  -5.972  36.866  1.00  0.00     0.037 A 
HETATM   35  C23 UNK     1      19.288  -4.797  36.322  1.00  0.00     0.015 A 
BRANCH  33  36
HETATM   36  N2  UNK     1      21.503  -7.124  38.187  1.00  0.00    -0.116 N 
HETATM   37  O7  UNK     1      20.930  -7.643  39.174  1.00  0.00    -0.532 OA
HETATM   38  O8  UNK     1      22.530  -7.628  37.672  1.00  0.00    -0.532 OA
ENDBRANCH  33  36
ENDBRANCH   7  30
TORSDOF 10
ENDMDL
MODEL 6
REMARK VINA RESULT:      -8.4      2.673      4.883
REMARK  10 active torsions:
REMARK  status: ('A' for Active; 'I' for Inactive)
REMARK    1  A    between atoms: C7_17  and  O1_1 
REMARK    2  A    between atoms: C8_18  and  O1_1 
REMARK    3  A    between atoms: C12_22  and  O2_2 
REMARK    4  A    between atoms: C5_15  and  O2_2 
REMARK    5  A    between atoms: C2_12  and  N1_9 
REMARK       I    between atoms: C8_18  and  N1_9 
REMARK    6  A    between atoms: C27_37  and  N2_10 
REMARK    7  A    between atoms: C1_11  and  C2_12 
REMARK    8  A    between atoms: C1_11  and  C3_13 
REMARK    9  A    between atoms: C2_12  and  C5_15 
REMARK   10  A    between atoms: C16_26  and  C21_31 
ROOT
HETATM    1  O4  UNK     1      28.123  -8.263  38.482  1.00  0.00    -0.313 OA
HETATM    2  O6  UNK     1      25.297  -5.344  38.673  1.00  0.00    -0.286 OA
HETATM    3  C12 UNK     1      30.305  -5.348  38.505  1.00  0.00     0.082 A 
HETATM    4  C13 UNK     1      27.577  -5.905  38.578  1.00  0.00     0.049 A 
HETATM    5  C14 UNK     1      28.495  -6.946  38.513  1.00  0.00     0.092 A 
HETATM    6  C15 UNK     1      29.863  -6.670  38.476  1.00  0.00     0.075 A 
HETATM    7  C16 UNK     1      25.780  -7.672  38.585  1.00  0.00     0.054 A 
HETATM    8  C17 UNK     1      29.383  -4.303  38.571  1.00  0.00     0.038 A 
HETATM    9  C18 UNK     1      26.144  -6.227  38.616  1.00  0.00     0.198 A 
HETATM   10  C19 UNK     1      28.015  -4.579  38.607  1.00  0.00     0.021 A 
HETATM   11  C20 UNK     1      26.772  -8.585  38.520  1.00  0.00     0.065 A 
HETATM   12  C22 UNK     1      26.564 -10.073  38.480  1.00  0.00     0.077 C 
ENDROOT
BRANCH   3  13
HETATM   13  O2  UNK     1      31.674  -5.068  38.468  1.00  0.00    -0.277 OA
BRANCH  13  14
HETATM   14  C5  UNK     1      32.094  -4.548  37.250  1.00  0.00     0.287 C 
HETATM   15  O3  UNK     1      32.000  -3.376  36.899  1.00  0.00    -0.262 OA
BRANCH  14  16
HETATM   16  C2  UNK     1      32.702  -5.631  36.362  1.00  0.00     0.190 C 
BRANCH  16  17
HETATM   17  C1  UNK     1      34.220  -5.401  36.162  1.00  0.00     0.014 C 
HETATM   18  C4  UNK     1      34.515  -4.550  34.919  1.00  0.00     0.012 C 
BRANCH  17  19
HETATM   19  C3  UNK     1      34.970  -6.749  36.122  1.00  0.00     0.002 C 
HETATM   20  C6  UNK     1      35.947  -6.869  34.960  1.00  0.00     0.005 C 
ENDBRANCH  17  19
ENDBRANCH  16  17
BRANCH  16  21
HETATM   21  N1  UNK     1      31.997  -5.752  35.111  1.00  0.00    -0.323 N 
HETATM   22  C8  UNK     1      31.350  -6.902  34.702  1.00  0.00     0.362 C 
HETATM   23  O5  UNK     1      31.289  -7.951  35.334  1.00  0.00    -0.238 OA
HETATM   24  H8  UNK     1      31.916  -4.936  34.512  1.00  0.00     0.165 HD
BRANCH  22  25
HETATM   25  O1  UNK     1      30.779  -6.701  33.477  1.00  0.00    -0.294 OA
BRANCH  25  26
HETATM   26  C7  UNK     1      29.348  -6.746  33.438  1.00  0.00     0.061 C 
HETATM   27  C10 UNK     1      28.918  -8.112  32.906  1.00  0.00     0.046 C 
HETATM   28  C11 UNK     1      28.877  -5.633  32.505  1.00  0.00     0.046 C 
HETATM   29  C9  UNK     1      28.817  -6.521  34.854  1.00  0.00     0.046 C 
ENDBRANCH  25  26
ENDBRANCH  22  25
ENDBRANCH  16  21
ENDBRANCH  14  16
ENDBRANCH  13  14
ENDBRANCH   3  13
BRANCH   7  30
HETATM   30  C21 UNK     1      24.375  -8.054  38.623  1.00  0.00    -0.019 A 
HETATM   31  C24 UNK     1      23.671  -8.005  39.826  1.00  0.00     0.015 A 
HETATM   32  C26 UNK     1      22.326  -8.373  39.863  1.00  0.00     0.037 A 
HETATM   33  C27 UNK     1      21.685  -8.790  38.696  1.00  0.00     0.102 A 
HETATM   34  C25 UNK     1      22.389  -8.840  37.493  1.00  0.00     0.037 A 
HETATM   35  C23 UNK     1      23.734  -8.472  37.456  1.00  0.00     0.015 A 
BRANCH  33  36
HETATM   36  N2  UNK     1      20.316  -9.164  38.733  1.00  0.00    -0.116 N 
HETATM   37  O7  UNK     1      20.003 -10.354  38.493  1.00  0.00    -0.532 OA
HETATM   38  O8  UNK     1      19.456  -8.293  39.008  1.00  0.00    -0.532 OA
ENDBRANCH  33  36
ENDBRANCH   7  30
TORSDOF 10
ENDMDL
MODEL 7
REMARK VINA RESULT:      -8.3      2.656      4.648
REMARK  10 active torsions:
REMARK  status: ('A' for Active; 'I' for Inactive)
REMARK    1  A    between atoms: C7_17  and  O1_1 
REMARK    2  A    between atoms: C8_18  and  O1_1 
REMARK    3  A    between atoms: C12_22  and  O2_2 
REMARK    4  A    between atoms: C5_15  and  O2_2 
REMARK    5  A    between atoms: C2_12  and  N1_9 
REMARK       I    between atoms: C8_18  and  N1_9 
REMARK    6  A    between atoms: C27_37  and  N2_10 
REMARK    7  A    between atoms: C1_11  and  C2_12 
REMARK    8  A    between atoms: C1_11  and  C3_13 
REMARK    9  A    between atoms: C2_12  and  C5_15 
REMARK   10  A    between atoms: C16_26  and  C21_31 
ROOT
HETATM    1  O4  UNK     1      27.836  -8.357  38.477  1.00  0.00    -0.313 OA
HETATM    2  O6  UNK     1      25.075  -5.378  38.717  1.00  0.00    -0.286 OA
HETATM    3  C12 UNK     1      30.080  -5.490  38.490  1.00  0.00     0.082 A 
HETATM    4  C13 UNK     1      27.342  -5.988  38.592  1.00  0.00     0.049 A 
HETATM    5  C14 UNK     1      28.236  -7.049  38.511  1.00  0.00     0.092 A 
HETATM    6  C15 UNK     1      29.609  -6.802  38.459  1.00  0.00     0.075 A 
HETATM    7  C16 UNK     1      25.507  -7.715  38.611  1.00  0.00     0.054 A 
HETATM    8  C17 UNK     1      29.182  -4.425  38.572  1.00  0.00     0.038 A 
HETATM    9  C18 UNK     1      25.903  -6.279  38.645  1.00  0.00     0.198 A 
HETATM   10  C19 UNK     1      27.809  -4.672  38.623  1.00  0.00     0.021 A 
HETATM   11  C20 UNK     1      26.478  -8.650  38.528  1.00  0.00     0.065 A 
HETATM   12  C22 UNK     1      26.237 -10.132  38.483  1.00  0.00     0.077 C 
ENDROOT
BRANCH   3  13
HETATM   13  O2  UNK     1      31.455  -5.239  38.438  1.00  0.00    -0.277 OA
BRANCH  13  14
HETATM   14  C5  UNK     1      31.878  -4.761  37.204  1.00  0.00     0.287 C 
HETATM   15  O3  UNK     1      32.221  -3.608  36.961  1.00  0.00    -0.262 OA
BRANCH  14  16
HETATM   16  C2  UNK     1      31.866  -5.861  36.146  1.00  0.00     0.190 C 
BRANCH  16  17
HETATM   17  C1  UNK     1      33.300  -6.186  35.663  1.00  0.00     0.014 C 
HETATM   18  C4  UNK     1      33.628  -5.502  34.329  1.00  0.00     0.012 C 
BRANCH  17  19
HETATM   19  C3  UNK     1      33.512  -7.714  35.589  1.00  0.00     0.002 C 
HETATM   20  C6  UNK     1      32.735  -8.489  36.644  1.00  0.00     0.005 C 
ENDBRANCH  17  19
ENDBRANCH  16  17
BRANCH  16  21
HETATM   21  N1  UNK     1      30.979  -5.542  35.055  1.00  0.00    -0.323 N 
HETATM   22  C8  UNK     1      29.980  -6.383  34.606  1.00  0.00     0.362 C 
HETATM   23  O5  UNK     1      29.717  -7.490  35.064  1.00  0.00    -0.238 OA
HETATM   24  H8  UNK     1      31.047  -4.626  34.620  1.00  0.00     0.165 HD
BRANCH  22  25
HETATM   25  O1  UNK     1      29.316  -5.798  33.564  1.00  0.00    -0.294 OA
BRANCH  25  26
HETATM   26  C7  UNK     1      29.531  -6.387  32.277  1.00  0.00     0.061 C 
HETATM   27  C10 UNK     1      29.459  -5.285  31.220  1.00  0.00     0.046 C 
HETATM   28  C11 UNK     1      28.427  -7.418  32.053  1.00  0.00     0.046 C 
HETATM   29  C9  UNK     1      30.904  -7.058  32.272  1.00  0.00     0.046 C 
ENDBRANCH  25  26
ENDBRANCH  22  25
ENDBRANCH  16  21
ENDBRANCH  14  16
ENDBRANCH  13  14
ENDBRANCH   3  13
BRANCH   7  30
HETATM   30  C21 UNK     1      24.095  -8.068  38.663  1.00  0.00    -0.019 A 
HETATM   31  C24 UNK     1      23.423  -8.429  37.496  1.00  0.00     0.015 A 
HETATM   32  C26 UNK     1      22.070  -8.765  37.545  1.00  0.00     0.037 A 
HETATM   33  C27 UNK     1      21.389  -8.739  38.762  1.00  0.00     0.102 A 
HETATM   34  C25 UNK     1      22.060  -8.377  39.930  1.00  0.00     0.037 A 
HETATM   35  C23 UNK     1      23.414  -8.041  39.880  1.00  0.00     0.015 A 
BRANCH  33  36
HETATM   36  N2  UNK     1      20.011  -9.081  38.813  1.00  0.00    -0.116 N 
HETATM   37  O7  UNK     1      19.684 -10.236  39.178  1.00  0.00    -0.532 OA
HETATM   38  O8  UNK     1      19.159  -8.218  38.492  1.00  0.00    -0.532 OA
ENDBRANCH  33  36
ENDBRANCH   7  30
TORSDOF 10
ENDMDL
MODEL 8
REMARK VINA RESULT:      -8.3      2.468      4.646
REMARK  10 active torsions:
REMARK  status: ('A' for Active; 'I' for Inactive)
REMARK    1  A    between atoms: C7_17  and  O1_1 
REMARK    2  A    between atoms: C8_18  and  O1_1 
REMARK    3  A    between atoms: C12_22  and  O2_2 
REMARK    4  A    between atoms: C5_15  and  O2_2 
REMARK    5  A    between atoms: C2_12  and  N1_9 
REMARK       I    between atoms: C8_18  and  N1_9 
REMARK    6  A    between atoms: C27_37  and  N2_10 
REMARK    7  A    between atoms: C1_11  and  C2_12 
REMARK    8  A    between atoms: C1_11  and  C3_13 
REMARK    9  A    between atoms: C2_12  and  C5_15 
REMARK   10  A    between atoms: C16_26  and  C21_31 
ROOT
HETATM    1  O4  UNK     1      25.654  -5.664  38.885  1.00  0.00    -0.313 OA
HETATM    2  O6  UNK     1      25.720  -9.630  37.981  1.00  0.00    -0.286 OA
HETATM    3  C12 UNK     1      29.258  -6.156  38.710  1.00  0.00     0.082 A 
HETATM    4  C13 UNK     1      26.935  -7.664  38.408  1.00  0.00     0.049 A 
HETATM    5  C14 UNK     1      26.848  -6.312  38.717  1.00  0.00     0.092 A 
HETATM    6  C15 UNK     1      28.010  -5.554  38.870  1.00  0.00     0.075 A 
HETATM    7  C16 UNK     1      24.416  -7.694  38.440  1.00  0.00     0.054 A 
HETATM    8  C17 UNK     1      29.345  -7.513  38.400  1.00  0.00     0.038 A 
HETATM    9  C18 UNK     1      25.695  -8.436  38.253  1.00  0.00     0.198 A 
HETATM   10  C19 UNK     1      28.183  -8.272  38.248  1.00  0.00     0.021 A 
HETATM   11  C20 UNK     1      24.471  -6.379  38.741  1.00  0.00     0.065 A 
HETATM   12  C22 UNK     1      23.272  -5.500  38.960  1.00  0.00     0.077 C 
ENDROOT
BRANCH   3  13
HETATM   13  O2  UNK     1      30.423  -5.399  38.863  1.00  0.00    -0.277 OA
BRANCH  13  14
HETATM   14  C5  UNK     1      30.709  -4.606  37.759  1.00  0.00     0.287 C 
HETATM   15  O3  UNK     1      30.342  -3.447  37.593  1.00  0.00    -0.262 OA
BRANCH  14  16
HETATM   16  C2  UNK     1      31.557  -5.359  36.736  1.00  0.00     0.190 C 
BRANCH  16  17
HETATM   17  C1  UNK     1      32.977  -4.750  36.632  1.00  0.00     0.014 C 
HETATM   18  C4  UNK     1      33.207  -4.052  35.285  1.00  0.00     0.012 C 
BRANCH  17  19
HETATM   19  C3  UNK     1      34.048  -5.828  36.908  1.00  0.00     0.002 C 
HETATM   20  C6  UNK     1      33.507  -7.053  37.633  1.00  0.00     0.005 C 
ENDBRANCH  17  19
ENDBRANCH  16  17
BRANCH  16  21
HETATM   21  N1  UNK     1      30.900  -5.440  35.456  1.00  0.00    -0.323 N 
HETATM   22  C8  UNK     1      30.650  -6.626  34.794  1.00  0.00     0.362 C 
HETATM   23  O5  UNK     1      30.946  -7.746  35.198  1.00  0.00    -0.238 OA
HETATM   24  H8  UNK     1      30.546  -4.587  35.032  1.00  0.00     0.165 HD
BRANCH  22  25
HETATM   25  O1  UNK     1      30.017  -6.371  33.610  1.00  0.00    -0.294 OA
BRANCH  25  26
HETATM   26  C7  UNK     1      28.659  -6.815  33.519  1.00  0.00     0.061 C 
HETATM   27  C10 UNK     1      28.039  -6.775  34.915  1.00  0.00     0.046 C 
HETATM   28  C11 UNK     1      28.676  -8.244  32.980  1.00  0.00     0.046 C 
HETATM   29  C9  UNK     1      27.908  -5.888  32.563  1.00  0.00     0.046 C 
ENDBRANCH  25  26
ENDBRANCH  22  25
ENDBRANCH  16  21
ENDBRANCH  14  16
ENDBRANCH  13  14
ENDBRANCH   3  13
BRANCH   7  30
HETATM   30  C21 UNK     1      23.152  -8.404  38.297  1.00  0.00    -0.019 A 
HETATM   31  C24 UNK     1      22.784  -8.929  37.059  1.00  0.00     0.015 A 
HETATM   32  C26 UNK     1      21.573  -9.608  36.921  1.00  0.00     0.037 A 
HETATM   33  C27 UNK     1      20.731  -9.762  38.022  1.00  0.00     0.102 A 
HETATM   34  C25 UNK     1      21.099  -9.237  39.261  1.00  0.00     0.037 A 
HETATM   35  C23 UNK     1      22.310  -8.558  39.398  1.00  0.00     0.015 A 
BRANCH  33  36
HETATM   36  N2  UNK     1      19.498 -10.454  37.882  1.00  0.00    -0.116 N 
HETATM   37  O7  UNK     1      18.566  -9.913  37.241  1.00  0.00    -0.532 OA
HETATM   38  O8  UNK     1      19.377 -11.589  38.403  1.00  0.00    -0.532 OA
ENDBRANCH  33  36
ENDBRANCH   7  30
TORSDOF 10
ENDMDL
MODEL 9
REMARK VINA RESULT:      -8.2     10.302     14.345
REMARK  10 active torsions:
REMARK  status: ('A' for Active; 'I' for Inactive)
REMARK    1  A    between atoms: C7_17  and  O1_1 
REMARK    2  A    between atoms: C8_18  and  O1_1 
REMARK    3  A    between atoms: C12_22  and  O2_2 
REMARK    4  A    between atoms: C5_15  and  O2_2 
REMARK    5  A    between atoms: C2_12  and  N1_9 
REMARK       I    between atoms: C8_18  and  N1_9 
REMARK    6  A    between atoms: C27_37  and  N2_10 
REMARK    7  A    between atoms: C1_11  and  C2_12 
REMARK    8  A    between atoms: C1_11  and  C3_13 
REMARK    9  A    between atoms: C2_12  and  C5_15 
REMARK   10  A    between atoms: C16_26  and  C21_31 
ROOT
HETATM    1  O4  UNK     1      19.566  -1.254  34.077  1.00  0.00    -0.313 OA
HETATM    2  O6  UNK     1      18.512  -1.783  37.970  1.00  0.00    -0.286 OA
HETATM    3  C12 UNK     1      17.941   1.949  34.676  1.00  0.00     0.082 A 
HETATM    4  C13 UNK     1      18.516  -0.386  36.081  1.00  0.00     0.049 A 
HETATM    5  C14 UNK     1      18.902  -0.264  34.751  1.00  0.00     0.092 A 
HETATM    6  C15 UNK     1      18.615   0.905  34.045  1.00  0.00     0.075 A 
HETATM    7  C16 UNK     1      19.560  -2.679  36.031  1.00  0.00     0.054 A 
HETATM    8  C17 UNK     1      17.553   1.827  36.011  1.00  0.00     0.038 A 
HETATM    9  C18 UNK     1      18.832  -1.628  36.798  1.00  0.00     0.198 A 
HETATM   10  C19 UNK     1      17.840   0.657  36.717  1.00  0.00     0.021 A 
HETATM   11  C20 UNK     1      19.875  -2.434  34.741  1.00  0.00     0.065 A 
HETATM   12  C22 UNK     1      20.603  -3.393  33.842  1.00  0.00     0.077 C 
ENDROOT
BRANCH   3  13
HETATM   13  O2  UNK     1      17.652   3.122  33.971  1.00  0.00    -0.277 OA
BRANCH  13  14
HETATM   14  C5  UNK     1      18.618   4.108  34.129  1.00  0.00     0.287 C 
HETATM   15  O3  UNK     1      19.594   4.043  34.870  1.00  0.00    -0.262 OA
BRANCH  14  16
HETATM   16  C2  UNK     1      18.322   5.323  33.254  1.00  0.00     0.190 C 
BRANCH  16  17
HETATM   17  C1  UNK     1      19.630   5.959  32.723  1.00  0.00     0.014 C 
HETATM   18  C4  UNK     1      19.988   7.249  33.472  1.00  0.00     0.012 C 
BRANCH  17  19
HETATM   19  C3  UNK     1      19.538   6.190  31.199  1.00  0.00     0.002 C 
HETATM   20  C6  UNK     1      19.096   4.957  30.422  1.00  0.00     0.005 C 
ENDBRANCH  17  19
ENDBRANCH  16  17
BRANCH  16  21
HETATM   21  N1  UNK     1      17.485   6.278  33.935  1.00  0.00    -0.323 N 
HETATM   22  C8  UNK     1      16.369   6.863  33.369  1.00  0.00     0.362 C 
HETATM   23  O5  UNK     1      15.949   6.652  32.236  1.00  0.00    -0.238 OA
HETATM   24  H8  UNK     1      17.684   6.500  34.906  1.00  0.00     0.165 HD
BRANCH  22  25
HETATM   25  O1  UNK     1      15.792   7.720  34.263  1.00  0.00    -0.294 OA
BRANCH  25  26
HETATM   26  C7  UNK     1      15.861   9.111  33.929  1.00  0.00     0.061 C 
HETATM   27  C10 UNK     1      17.331   9.512  33.819  1.00  0.00     0.046 C 
HETATM   28  C11 UNK     1      15.175   9.889  35.050  1.00  0.00     0.046 C 
HETATM   29  C9  UNK     1      15.135   9.329  32.601  1.00  0.00     0.046 C 
ENDBRANCH  25  26
ENDBRANCH  22  25
ENDBRANCH  16  21
ENDBRANCH  14  16
ENDBRANCH  13  14
ENDBRANCH   3  13
BRANCH   7  30
HETATM   30  C21 UNK     1      19.904  -3.933  36.689  1.00  0.00    -0.019 A 
HETATM   31  C24 UNK     1      21.075  -4.028  37.440  1.00  0.00     0.015 A 
HETATM   32  C26 UNK     1      21.406  -5.228  38.068  1.00  0.00     0.037 A 
HETATM   33  C27 UNK     1      20.564  -6.334  37.947  1.00  0.00     0.102 A 
HETATM   34  C25 UNK     1      19.392  -6.240  37.195  1.00  0.00     0.037 A 
HETATM   35  C23 UNK     1      19.062  -5.039  36.566  1.00  0.00     0.015 A 
BRANCH  33  36
HETATM   36  N2  UNK     1      20.900  -7.556  38.587  1.00  0.00    -0.116 N 
HETATM   37  O7  UNK     1      21.904  -8.195  38.190  1.00  0.00    -0.532 OA
HETATM   38  O8  UNK     1      20.185  -7.962  39.534  1.00  0.00    -0.532 OA
ENDBRANCH  33  36
ENDBRANCH   7  30
TORSDOF 10
ENDMDL
MODEL 10
REMARK VINA RESULT:      -8.1     32.603     36.042
REMARK  10 active torsions:
REMARK  status: ('A' for Active; 'I' for Inactive)
REMARK    1  A    between atoms: C7_17  and  O1_1 
REMARK    2  A    between atoms: C8_18  and  O1_1 
REMARK    3  A    between atoms: C12_22  and  O2_2 
REMARK    4  A    between atoms: C5_15  and  O2_2 
REMARK    5  A    between atoms: C2_12  and  N1_9 
REMARK       I    between atoms: C8_18  and  N1_9 
REMARK    6  A    between atoms: C27_37  and  N2_10 
REMARK    7  A    between atoms: C1_11  and  C2_12 
REMARK    8  A    between atoms: C1_11  and  C3_13 
REMARK    9  A    between atoms: C2_12  and  C5_15 
REMARK   10  A    between atoms: C16_26  and  C21_31 
ROOT
HETATM    1  O4  UNK     1      14.867  10.728   8.219  1.00  0.00    -0.313 OA
HETATM    2  O6  UNK     1      18.506  10.120   9.932  1.00  0.00    -0.286 OA
HETATM    3  C12 UNK     1      14.137   7.669  10.056  1.00  0.00     0.082 A 
HETATM    4  C13 UNK     1      16.292   9.386   9.647  1.00  0.00     0.049 A 
HETATM    5  C14 UNK     1      15.072   9.647   9.034  1.00  0.00     0.092 A 
HETATM    6  C15 UNK     1      13.991   8.788   9.236  1.00  0.00     0.075 A 
HETATM    7  C16 UNK     1      17.147  11.475   8.526  1.00  0.00     0.054 A 
HETATM    8  C17 UNK     1      15.362   7.407  10.671  1.00  0.00     0.038 A 
HETATM    9  C18 UNK     1      17.412  10.308   9.415  1.00  0.00     0.198 A 
HETATM   10  C19 UNK     1      16.444   8.266  10.468  1.00  0.00     0.021 A 
HETATM   11  C20 UNK     1      15.914  11.611   7.991  1.00  0.00     0.065 A 
HETATM   12  C22 UNK     1      15.497  12.729   7.078  1.00  0.00     0.077 C 
ENDROOT
BRANCH   3  13
HETATM   13  O2  UNK     1      13.056   6.806  10.261  1.00  0.00    -0.277 OA
BRANCH  13  14
HETATM   14  C5  UNK     1      13.047   5.723   9.390  1.00  0.00     0.287 C 
HETATM   15  O3  UNK     1      13.932   4.879   9.287  1.00  0.00    -0.262 OA
BRANCH  14  16
HETATM   16  C2  UNK     1      11.776   5.698   8.546  1.00  0.00     0.190 C 
BRANCH  16  17
HETATM   17  C1  UNK     1      11.838   6.750   7.412  1.00  0.00     0.014 C 
HETATM   18  C4  UNK     1      10.946   7.964   7.703  1.00  0.00     0.012 C 
BRANCH  17  19
HETATM   19  C3  UNK     1      11.496   6.101   6.053  1.00  0.00     0.002 C 
HETATM   20  C6  UNK     1      10.013   6.153   5.710  1.00  0.00     0.005 C 
ENDBRANCH  17  19
ENDBRANCH  16  17
BRANCH  16  21
HETATM   21  N1  UNK     1      10.594   5.837   9.358  1.00  0.00    -0.323 N 
HETATM   22  C8  UNK     1       9.905   4.770   9.901  1.00  0.00     0.362 C 
HETATM   23  O5  UNK     1      10.200   3.586   9.769  1.00  0.00    -0.238 OA
HETATM   24  H8  UNK     1      10.271   6.769   9.598  1.00  0.00     0.165 HD
BRANCH  22  25
HETATM   25  O1  UNK     1       8.834   5.226  10.617  1.00  0.00    -0.294 OA
BRANCH  25  26
HETATM   26  C7  UNK     1       7.570   5.189   9.943  1.00  0.00     0.061 C 
HETATM   27  C10 UNK     1       6.976   3.790  10.102  1.00  0.00     0.046 C 
HETATM   28  C11 UNK     1       7.824   5.500   8.470  1.00  0.00     0.046 C 
HETATM   29  C9  UNK     1       6.656   6.243  10.567  1.00  0.00     0.046 C 
ENDBRANCH  25  26
ENDBRANCH  22  25
ENDBRANCH  16  21
ENDBRANCH  14  16
ENDBRANCH  13  14
ENDBRANCH   3  13
BRANCH   7  30
HETATM   30  C21 UNK     1      18.217  12.426   8.260  1.00  0.00    -0.019 A 
HETATM   31  C24 UNK     1      19.049  12.248   7.155  1.00  0.00     0.015 A 
HETATM   32  C26 UNK     1      20.075  13.158   6.900  1.00  0.00     0.037 A 
HETATM   33  C27 UNK     1      20.270  14.246   7.751  1.00  0.00     0.102 A 
HETATM   34  C25 UNK     1      19.438  14.424   8.857  1.00  0.00     0.037 A 
HETATM   35  C23 UNK     1      18.412  13.514   9.111  1.00  0.00     0.015 A 
BRANCH  33  36
HETATM   36  N2  UNK     1      21.314  15.172   7.492  1.00  0.00    -0.116 N 
HETATM   37  O7  UNK     1      21.070  16.186   6.794  1.00  0.00    -0.532 OA
HETATM   38  O8  UNK     1      22.453  14.953   7.970  1.00  0.00    -0.532 OA
ENDBRANCH  33  36
ENDBRANCH   7  30
TORSDOF 10
ENDMDL
