MODEL 1
REMARK VINA RESULT:      -8.5      0.000      0.000
REMARK  6 active torsions:
REMARK  status: ('A' for Active; 'I' for Inactive)
REMARK    1  A    between atoms: C11_17  and  S1_1 
REMARK    2  A    between atoms: C17_23  and  S1_1 
REMARK       I    between atoms: C10_16  and  N1_4 
REMARK    3  A    between atoms: C2_8  and  N1_4 
REMARK    4  A    between atoms: C1_7  and  C7_13 
REMARK    5  A    between atoms: C8_14  and  C9_15 
REMARK    6  A    between atoms: C10_16  and  C11_17 
ROOT
HETATM    1  C1  UNK     1      18.485   4.679  31.175  1.00  0.00    -0.036 A 
HETATM    2  C2  UNK     1      17.232   6.996  32.035  1.00  0.00     0.034 A 
HETATM    3  C3  UNK     1      18.509   5.804  30.366  1.00  0.00     0.013 A 
HETATM    4  C4  UNK     1      17.846   4.688  32.404  1.00  0.00     0.013 A 
HETATM    5  C5  UNK     1      17.879   6.970  30.799  1.00  0.00     0.030 A 
HETATM    6  C6  UNK     1      17.216   5.856  32.837  1.00  0.00     0.030 A 
ENDROOT
BRANCH   2   7
HETATM    7  N1  UNK     1      16.600   8.162  32.467  1.00  0.00    -0.327 N 
HETATM    8  C10 UNK     1      15.224   8.424  32.546  1.00  0.00     0.231 C 
HETATM    9  O1  UNK     1      14.312   7.666  32.228  1.00  0.00    -0.272 OA
HETATM   10  H6  UNK     1      17.225   8.910  32.757  1.00  0.00     0.169 HD
BRANCH   8  11
HETATM   11  C11 UNK     1      14.924   9.813  33.067  1.00  0.00     0.184 C 
BRANCH  11  12
HETATM   12  S1  UNK     1      15.763  10.035  34.655  1.00  0.00    -0.092 SA
BRANCH  12  13
HETATM   13  C17 UNK     1      16.983  11.290  34.188  1.00  0.00     0.159 A 
HETATM   14  S2  UNK     1      16.722  12.920  34.497  1.00  0.00    -0.045 SA
HETATM   15  C18 UNK     1      18.255  13.153  33.765  1.00  0.00     0.096 A 
HETATM   16  N3  UNK     1      18.843  12.049  33.354  1.00  0.00    -0.146 NA
HETATM   17  C19 UNK     1      18.815  14.514  33.640  1.00  0.00     0.081 C 
HETATM   18  N2  UNK     1      18.071  10.929  33.613  1.00  0.00    -0.135 NA
ENDBRANCH  12  13
ENDBRANCH  11  12
ENDBRANCH   8  11
ENDBRANCH   2   7
BRANCH   1  19
HETATM   19  C7  UNK     1      19.151   3.446  30.717  1.00  0.00     0.012 C 
HETATM   20  C9  UNK     1      18.586   2.217  30.693  1.00  0.00     0.012 C 
BRANCH  20  21
HETATM   21  C8  UNK     1      19.237   1.004  30.223  1.00  0.00    -0.036 A 
HETATM   22  C12 UNK     1      19.936   0.195  31.121  1.00  0.00     0.011 A 
HETATM   23  C14 UNK     1      20.561  -0.968  30.670  1.00  0.00     0.001 A 
HETATM   24  C16 UNK     1      20.487  -1.322  29.323  1.00  0.00     0.000 A 
HETATM   25  C15 UNK     1      19.789  -0.514  28.426  1.00  0.00     0.001 A 
HETATM   26  C13 UNK     1      19.164   0.649  28.876  1.00  0.00     0.011 A 
ENDBRANCH  20  21
ENDBRANCH   1  19
TORSDOF 6
ENDMDL
MODEL 2
REMARK VINA RESULT:      -8.5      8.907     13.157
REMARK  6 active torsions:
REMARK  status: ('A' for Active; 'I' for Inactive)
REMARK    1  A    between atoms: C11_17  and  S1_1 
REMARK    2  A    between atoms: C17_23  and  S1_1 
REMARK       I    between atoms: C10_16  and  N1_4 
REMARK    3  A    between atoms: C2_8  and  N1_4 
REMARK    4  A    between atoms: C1_7  and  C7_13 
REMARK    5  A    between atoms: C8_14  and  C9_15 
REMARK    6  A    between atoms: C10_16  and  C11_17 
ROOT
HETATM    1  C1  UNK     1      18.360   1.353  34.711  1.00  0.00    -0.036 A 
HETATM    2  C2  UNK     1      18.479  -1.271  35.596  1.00  0.00     0.034 A 
HETATM    3  C3  UNK     1      18.476   1.099  36.068  1.00  0.00     0.013 A 
HETATM    4  C4  UNK     1      18.302   0.322  33.787  1.00  0.00     0.013 A 
HETATM    5  C5  UNK     1      18.536  -0.221  36.513  1.00  0.00     0.030 A 
HETATM    6  C6  UNK     1      18.362  -0.999  34.233  1.00  0.00     0.030 A 
ENDROOT
BRANCH   2   7
HETATM    7  N1  UNK     1      18.537  -2.591  36.041  1.00  0.00    -0.327 N 
HETATM    8  C10 UNK     1      19.671  -3.399  36.211  1.00  0.00     0.231 C 
HETATM    9  O1  UNK     1      20.837  -3.090  35.980  1.00  0.00    -0.272 OA
HETATM   10  H6  UNK     1      17.638  -3.012  36.265  1.00  0.00     0.169 HD
BRANCH   8  11
HETATM   11  C11 UNK     1      19.329  -4.785  36.715  1.00  0.00     0.184 C 
BRANCH  11  12
HETATM   12  S1  UNK     1      20.806  -5.515  37.463  1.00  0.00    -0.092 SA
BRANCH  12  13
HETATM   13  C17 UNK     1      21.030  -6.946  36.375  1.00  0.00     0.159 A 
HETATM   14  S2  UNK     1      21.527  -8.433  36.979  1.00  0.00    -0.045 SA
HETATM   15  C18 UNK     1      21.422  -8.962  35.351  1.00  0.00     0.096 A 
HETATM   16  N3  UNK     1      21.040  -8.038  34.495  1.00  0.00    -0.146 NA
HETATM   17  C19 UNK     1      21.748 -10.361  35.007  1.00  0.00     0.081 C 
HETATM   18  N2  UNK     1      20.804  -6.825  35.119  1.00  0.00    -0.135 NA
ENDBRANCH  12  13
ENDBRANCH  11  12
ENDBRANCH   8  11
ENDBRANCH   2   7
BRANCH   1  19
HETATM   19  C7  UNK     1      18.297   2.748  34.240  1.00  0.00     0.012 C 
HETATM   20  C9  UNK     1      18.300   3.135  32.943  1.00  0.00     0.012 C 
BRANCH  20  21
HETATM   21  C8  UNK     1      18.218   4.511  32.478  1.00  0.00    -0.036 A 
HETATM   22  C12 UNK     1      17.596   5.478  33.267  1.00  0.00     0.011 A 
HETATM   23  C14 UNK     1      17.517   6.797  32.820  1.00  0.00     0.001 A 
HETATM   24  C16 UNK     1      18.060   7.149  31.585  1.00  0.00     0.000 A 
HETATM   25  C15 UNK     1      18.682   6.182  30.796  1.00  0.00     0.001 A 
HETATM   26  C13 UNK     1      18.761   4.862  31.242  1.00  0.00     0.011 A 
ENDBRANCH  20  21
ENDBRANCH   1  19
TORSDOF 6
ENDMDL
MODEL 3
REMARK VINA RESULT:      -8.5      5.225     10.324
REMARK  6 active torsions:
REMARK  status: ('A' for Active; 'I' for Inactive)
REMARK    1  A    between atoms: C11_17  and  S1_1 
REMARK    2  A    between atoms: C17_23  and  S1_1 
REMARK       I    between atoms: C10_16  and  N1_4 
REMARK    3  A    between atoms: C2_8  and  N1_4 
REMARK    4  A    between atoms: C1_7  and  C7_13 
REMARK    5  A    between atoms: C8_14  and  C9_15 
REMARK    6  A    between atoms: C10_16  and  C11_17 
ROOT
HETATM    1  C1  UNK     1      18.499   6.224  31.787  1.00  0.00    -0.036 A 
HETATM    2  C2  UNK     1      18.684   3.636  30.813  1.00  0.00     0.034 A 
HETATM    3  C3  UNK     1      18.049   5.172  32.567  1.00  0.00     0.013 A 
HETATM    4  C4  UNK     1      19.040   6.009  30.529  1.00  0.00     0.013 A 
HETATM    5  C5  UNK     1      18.143   3.869  32.078  1.00  0.00     0.030 A 
HETATM    6  C6  UNK     1      19.133   4.706  30.040  1.00  0.00     0.030 A 
ENDROOT
BRANCH   2   7
HETATM    7  N1  UNK     1      18.776   2.334  30.323  1.00  0.00    -0.327 N 
HETATM    8  C10 UNK     1      18.389   1.853  29.063  1.00  0.00     0.231 C 
HETATM    9  O1  UNK     1      17.876   2.501  28.154  1.00  0.00    -0.272 OA
HETATM   10  H6  UNK     1      19.172   1.655  30.969  1.00  0.00     0.169 HD
BRANCH   8  11
HETATM   11  C11 UNK     1      18.647   0.371  28.900  1.00  0.00     0.184 C 
BRANCH  11  12
HETATM   12  S1  UNK     1      20.334   0.009  29.442  1.00  0.00    -0.092 SA
BRANCH  12  13
HETATM   13  C17 UNK     1      19.995  -0.643  31.098  1.00  0.00     0.159 A 
HETATM   14  S2  UNK     1      20.782  -2.011  31.676  1.00  0.00    -0.045 SA
HETATM   15  C18 UNK     1      19.852  -1.763  33.096  1.00  0.00     0.096 A 
HETATM   16  N3  UNK     1      19.049  -0.721  33.054  1.00  0.00    -0.146 NA
HETATM   17  C19 UNK     1      19.995  -2.684  34.242  1.00  0.00     0.081 C 
HETATM   18  N2  UNK     1      19.140  -0.050  31.846  1.00  0.00    -0.135 NA
ENDBRANCH  12  13
ENDBRANCH  11  12
ENDBRANCH   8  11
ENDBRANCH   2   7
BRANCH   1  19
HETATM   19  C7  UNK     1      18.401   7.600  32.305  1.00  0.00     0.012 C 
HETATM   20  C9  UNK     1      17.405   8.069  33.092  1.00  0.00     0.012 C 
BRANCH  20  21
HETATM   21  C8  UNK     1      17.318   9.422  33.619  1.00  0.00    -0.036 A 
HETATM   22  C12 UNK     1      18.479  10.171  33.813  1.00  0.00     0.011 A 
HETATM   23  C14 UNK     1      18.395  11.468  34.319  1.00  0.00     0.001 A 
HETATM   24  C16 UNK     1      17.152  12.016  34.632  1.00  0.00     0.000 A 
HETATM   25  C15 UNK     1      15.991  11.267  34.439  1.00  0.00     0.001 A 
HETATM   26  C13 UNK     1      16.074   9.969  33.934  1.00  0.00     0.011 A 
ENDBRANCH  20  21
ENDBRANCH   1  19
TORSDOF 6
ENDMDL
MODEL 4
REMARK VINA RESULT:      -8.2      2.316      2.834
REMARK  6 active torsions:
REMARK  status: ('A' for Active; 'I' for Inactive)
REMARK    1  A    between atoms: C11_17  and  S1_1 
REMARK    2  A    between atoms: C17_23  and  S1_1 
REMARK       I    between atoms: C10_16  and  N1_4 
REMARK    3  A    between atoms: C2_8  and  N1_4 
REMARK    4  A    between atoms: C1_7  and  C7_13 
REMARK    5  A    between atoms: C8_14  and  C9_15 
REMARK    6  A    between atoms: C10_16  and  C11_17 
ROOT
HETATM    1  C1  UNK     1      18.646   4.153  30.931  1.00  0.00    -0.036 A 
HETATM    2  C2  UNK     1      17.845   6.599  31.959  1.00  0.00     0.034 A 
HETATM    3  C3  UNK     1      19.003   5.317  30.270  1.00  0.00     0.013 A 
HETATM    4  C4  UNK     1      17.896   4.187  32.096  1.00  0.00     0.013 A 
HETATM    5  C5  UNK     1      18.600   6.548  30.787  1.00  0.00     0.030 A 
HETATM    6  C6  UNK     1      17.493   5.419  32.613  1.00  0.00     0.030 A 
ENDROOT
BRANCH   2   7
HETATM    7  N1  UNK     1      17.440   7.829  32.475  1.00  0.00    -0.327 N 
HETATM    8  C10 UNK     1      18.019   8.564  33.521  1.00  0.00     0.231 C 
HETATM    9  O1  UNK     1      18.994   8.242  34.194  1.00  0.00    -0.272 OA
HETATM   10  H6  UNK     1      16.619   8.236  32.032  1.00  0.00     0.169 HD
BRANCH   8  11
HETATM   11  C11 UNK     1      17.290   9.862  33.796  1.00  0.00     0.184 C 
BRANCH  11  12
HETATM   12  S1  UNK     1      15.573   9.694  33.252  1.00  0.00    -0.092 SA
BRANCH  12  13
HETATM   13  C17 UNK     1      14.732  10.552  34.607  1.00  0.00     0.159 A 
HETATM   14  S2  UNK     1      13.362  11.486  34.334  1.00  0.00    -0.045 SA
HETATM   15  C18 UNK     1      13.402  11.772  36.025  1.00  0.00     0.096 A 
HETATM   16  N3  UNK     1      14.390  11.180  36.661  1.00  0.00    -0.146 NA
HETATM   17  C19 UNK     1      12.374  12.626  36.653  1.00  0.00     0.081 C 
HETATM   18  N2  UNK     1      15.188  10.445  35.801  1.00  0.00    -0.135 NA
ENDBRANCH  12  13
ENDBRANCH  11  12
ENDBRANCH   8  11
ENDBRANCH   2   7
BRANCH   1  19
HETATM   19  C7  UNK     1      19.072   2.853  30.385  1.00  0.00     0.012 C 
HETATM   20  C9  UNK     1      19.168   1.703  31.093  1.00  0.00     0.012 C 
BRANCH  20  21
HETATM   21  C8  UNK     1      19.571   0.415  30.550  1.00  0.00    -0.036 A 
HETATM   22  C12 UNK     1      19.747  -0.677  31.401  1.00  0.00     0.011 A 
HETATM   23  C14 UNK     1      20.133  -1.912  30.879  1.00  0.00     0.001 A 
HETATM   24  C16 UNK     1      20.345  -2.055  29.509  1.00  0.00     0.000 A 
HETATM   25  C15 UNK     1      20.169  -0.964  28.658  1.00  0.00     0.001 A 
HETATM   26  C13 UNK     1      19.783   0.271  29.178  1.00  0.00     0.011 A 
ENDBRANCH  20  21
ENDBRANCH   1  19
TORSDOF 6
ENDMDL
MODEL 5
REMARK VINA RESULT:      -8.2      8.991     12.882
REMARK  6 active torsions:
REMARK  status: ('A' for Active; 'I' for Inactive)
REMARK    1  A    between atoms: C11_17  and  S1_1 
REMARK    2  A    between atoms: C17_23  and  S1_1 
REMARK       I    between atoms: C10_16  and  N1_4 
REMARK    3  A    between atoms: C2_8  and  N1_4 
REMARK    4  A    between atoms: C1_7  and  C7_13 
REMARK    5  A    between atoms: C8_14  and  C9_15 
REMARK    6  A    between atoms: C10_16  and  C11_17 
ROOT
HETATM    1  C1  UNK     1      18.300   1.515  34.461  1.00  0.00    -0.036 A 
HETATM    2  C2  UNK     1      18.455  -1.033  35.539  1.00  0.00     0.034 A 
HETATM    3  C3  UNK     1      18.376   1.364  35.836  1.00  0.00     0.013 A 
HETATM    4  C4  UNK     1      18.298   0.419  33.614  1.00  0.00     0.013 A 
HETATM    5  C5  UNK     1      18.455   0.081  36.378  1.00  0.00     0.030 A 
HETATM    6  C6  UNK     1      18.377  -0.864  34.157  1.00  0.00     0.030 A 
ENDROOT
BRANCH   2   7
HETATM    7  N1  UNK     1      18.531  -2.315  36.081  1.00  0.00    -0.327 N 
HETATM    8  C10 UNK     1      19.661  -3.137  36.209  1.00  0.00     0.231 C 
HETATM    9  O1  UNK     1      20.805  -2.877  35.846  1.00  0.00    -0.272 OA
HETATM   10  H6  UNK     1      17.650  -2.694  36.422  1.00  0.00     0.169 HD
BRANCH   8  11
HETATM   11  C11 UNK     1      19.343  -4.470  36.852  1.00  0.00     0.184 C 
BRANCH  11  12
HETATM   12  S1  UNK     1      19.868  -5.795  35.738  1.00  0.00    -0.092 SA
BRANCH  12  13
HETATM   13  C17 UNK     1      20.968  -6.714  36.846  1.00  0.00     0.159 A 
HETATM   14  S2  UNK     1      20.801  -6.626  38.515  1.00  0.00    -0.045 SA
HETATM   15  C18 UNK     1      22.134  -7.704  38.557  1.00  0.00     0.096 A 
HETATM   16  N3  UNK     1      22.601  -8.049  37.376  1.00  0.00    -0.146 NA
HETATM   17  C19 UNK     1      22.665  -8.172  39.853  1.00  0.00     0.081 C 
HETATM   18  N2  UNK     1      21.893  -7.449  36.348  1.00  0.00    -0.135 NA
ENDBRANCH  12  13
ENDBRANCH  11  12
ENDBRANCH   8  11
ENDBRANCH   2   7
BRANCH   1  19
HETATM   19  C7  UNK     1      18.218   2.871  33.888  1.00  0.00     0.012 C 
HETATM   20  C9  UNK     1      18.293   3.166  32.569  1.00  0.00     0.012 C 
BRANCH  20  21
HETATM   21  C8  UNK     1      18.193   4.501  32.001  1.00  0.00    -0.036 A 
HETATM   22  C12 UNK     1      17.381   5.459  32.610  1.00  0.00     0.011 A 
HETATM   23  C14 UNK     1      17.284   6.739  32.064  1.00  0.00     0.001 A 
HETATM   24  C16 UNK     1      17.999   7.062  30.911  1.00  0.00     0.000 A 
HETATM   25  C15 UNK     1      18.810   6.105  30.302  1.00  0.00     0.001 A 
HETATM   26  C13 UNK     1      18.907   4.824  30.847  1.00  0.00     0.011 A 
ENDBRANCH  20  21
ENDBRANCH   1  19
TORSDOF 6
ENDMDL
MODEL 6
REMARK VINA RESULT:      -8.2      1.991      2.011
REMARK  6 active torsions:
REMARK  status: ('A' for Active; 'I' for Inactive)
REMARK    1  A    between atoms: C11_17  and  S1_1 
REMARK    2  A    between atoms: C17_23  and  S1_1 
REMARK       I    between atoms: C10_16  and  N1_4 
REMARK    3  A    between atoms: C2_8  and  N1_4 
REMARK    4  A    between atoms: C1_7  and  C7_13 
REMARK    5  A    between atoms: C8_14  and  C9_15 
REMARK    6  A    between atoms: C10_16  and  C11_17 
ROOT
HETATM    1  C1  UNK     1      18.724   4.114  30.892  1.00  0.00    -0.036 A 
HETATM    2  C2  UNK     1      17.527   6.517  31.580  1.00  0.00     0.034 A 
HETATM    3  C3  UNK     1      18.883   5.213  30.064  1.00  0.00     0.013 A 
HETATM    4  C4  UNK     1      17.979   4.191  32.058  1.00  0.00     0.013 A 
HETATM    5  C5  UNK     1      18.281   6.422  30.410  1.00  0.00     0.030 A 
HETATM    6  C6  UNK     1      17.377   5.401  32.404  1.00  0.00     0.030 A 
ENDROOT
BRANCH   2   7
HETATM    7  N1  UNK     1      16.923   7.725  31.926  1.00  0.00    -0.327 N 
HETATM    8  C10 UNK     1      15.558   8.045  31.918  1.00  0.00     0.231 C 
HETATM    9  O1  UNK     1      14.632   7.311  31.584  1.00  0.00    -0.272 OA
HETATM   10  H6  UNK     1      17.563   8.461  32.216  1.00  0.00     0.169 HD
BRANCH   8  11
HETATM   11  C11 UNK     1      15.289   9.468  32.361  1.00  0.00     0.184 C 
BRANCH  11  12
HETATM   12  S1  UNK     1      15.387   9.546  34.165  1.00  0.00    -0.092 SA
BRANCH  12  13
HETATM   13  C17 UNK     1      17.157   9.239  34.394  1.00  0.00     0.159 A 
HETATM   14  S2  UNK     1      18.304  10.402  34.001  1.00  0.00    -0.045 SA
HETATM   15  C18 UNK     1      19.448   9.240  34.533  1.00  0.00     0.096 A 
HETATM   16  N3  UNK     1      18.928   8.107  34.953  1.00  0.00    -0.146 NA
HETATM   17  C19 UNK     1      20.891   9.555  34.498  1.00  0.00     0.081 C 
HETATM   18  N2  UNK     1      17.546   8.113  34.867  1.00  0.00    -0.135 NA
ENDBRANCH  12  13
ENDBRANCH  11  12
ENDBRANCH   8  11
ENDBRANCH   2   7
BRANCH   1  19
HETATM   19  C7  UNK     1      19.361   2.836  30.527  1.00  0.00     0.012 C 
HETATM   20  C9  UNK     1      18.894   1.609  30.854  1.00  0.00     0.012 C 
BRANCH  20  21
HETATM   21  C8  UNK     1      19.512   0.348  30.477  1.00  0.00    -0.036 A 
HETATM   22  C12 UNK     1      19.585  -0.697  31.400  1.00  0.00     0.011 A 
HETATM   23  C14 UNK     1      20.178  -1.906  31.038  1.00  0.00     0.001 A 
HETATM   24  C16 UNK     1      20.699  -2.071  29.755  1.00  0.00     0.000 A 
HETATM   25  C15 UNK     1      20.626  -1.028  28.833  1.00  0.00     0.001 A 
HETATM   26  C13 UNK     1      20.033   0.182  29.194  1.00  0.00     0.011 A 
ENDBRANCH  20  21
ENDBRANCH   1  19
TORSDOF 6
ENDMDL
MODEL 7
REMARK VINA RESULT:      -8.1      2.303      2.896
REMARK  6 active torsions:
REMARK  status: ('A' for Active; 'I' for Inactive)
REMARK    1  A    between atoms: C11_17  and  S1_1 
REMARK    2  A    between atoms: C17_23  and  S1_1 
REMARK       I    between atoms: C10_16  and  N1_4 
REMARK    3  A    between atoms: C2_8  and  N1_4 
REMARK    4  A    between atoms: C1_7  and  C7_13 
REMARK    5  A    between atoms: C8_14  and  C9_15 
REMARK    6  A    between atoms: C10_16  and  C11_17 
ROOT
HETATM    1  C1  UNK     1      18.635   4.380  31.045  1.00  0.00    -0.036 A 
HETATM    2  C2  UNK     1      17.795   6.791  32.122  1.00  0.00     0.034 A 
HETATM    3  C3  UNK     1      18.771   5.540  30.300  1.00  0.00     0.013 A 
HETATM    4  C4  UNK     1      18.088   4.400  32.318  1.00  0.00     0.013 A 
HETATM    5  C5  UNK     1      18.348   6.754  30.842  1.00  0.00     0.030 A 
HETATM    6  C6  UNK     1      17.665   5.615  32.860  1.00  0.00     0.030 A 
ENDROOT
BRANCH   2   7
HETATM    7  N1  UNK     1      17.370   8.004  32.664  1.00  0.00    -0.327 N 
HETATM    8  C10 UNK     1      16.056   8.463  32.839  1.00  0.00     0.231 C 
HETATM    9  O1  UNK     1      15.024   7.875  32.526  1.00  0.00    -0.272 OA
HETATM   10  H6  UNK     1      18.116   8.628  32.965  1.00  0.00     0.169 HD
BRANCH   8  11
HETATM   11  C11 UNK     1      15.997   9.840  33.464  1.00  0.00     0.184 C 
BRANCH  11  12
HETATM   12  S1  UNK     1      14.334  10.513  33.237  1.00  0.00    -0.092 SA
BRANCH  12  13
HETATM   13  C17 UNK     1      13.990  11.068  34.927  1.00  0.00     0.159 A 
HETATM   14  S2  UNK     1      12.747  12.150  35.256  1.00  0.00    -0.045 SA
HETATM   15  C18 UNK     1      13.247  11.997  36.890  1.00  0.00     0.096 A 
HETATM   16  N3  UNK     1      14.264  11.185  37.082  1.00  0.00    -0.146 NA
HETATM   17  C19 UNK     1      12.543  12.747  37.950  1.00  0.00     0.081 C 
HETATM   18  N2  UNK     1      14.707  10.628  35.894  1.00  0.00    -0.135 NA
ENDBRANCH  12  13
ENDBRANCH  11  12
ENDBRANCH   8  11
ENDBRANCH   2   7
BRANCH   1  19
HETATM   19  C7  UNK     1      19.083   3.098  30.473  1.00  0.00     0.012 C 
HETATM   20  C9  UNK     1      18.981   1.893  31.082  1.00  0.00     0.012 C 
BRANCH  20  21
HETATM   21  C8  UNK     1      19.405   0.625  30.509  1.00  0.00    -0.036 A 
HETATM   22  C12 UNK     1      19.563   0.502  29.128  1.00  0.00     0.011 A 
HETATM   23  C14 UNK     1      19.969  -0.715  28.580  1.00  0.00     0.001 A 
HETATM   24  C16 UNK     1      20.216  -1.807  29.410  1.00  0.00     0.000 A 
HETATM   25  C15 UNK     1      20.057  -1.684  30.790  1.00  0.00     0.001 A 
HETATM   26  C13 UNK     1      19.651  -0.468  31.340  1.00  0.00     0.011 A 
ENDBRANCH  20  21
ENDBRANCH   1  19
TORSDOF 6
ENDMDL
MODEL 8
REMARK VINA RESULT:      -8.1      2.420      2.925
REMARK  6 active torsions:
REMARK  status: ('A' for Active; 'I' for Inactive)
REMARK    1  A    between atoms: C11_17  and  S1_1 
REMARK    2  A    between atoms: C17_23  and  S1_1 
REMARK       I    between atoms: C10_16  and  N1_4 
REMARK    3  A    between atoms: C2_8  and  N1_4 
REMARK    4  A    between atoms: C1_7  and  C7_13 
REMARK    5  A    between atoms: C8_14  and  C9_15 
REMARK    6  A    between atoms: C10_16  and  C11_17 
ROOT
HETATM    1  C1  UNK     1      18.556   4.879  31.313  1.00  0.00    -0.036 A 
HETATM    2  C2  UNK     1      17.696   7.091  32.743  1.00  0.00     0.034 A 
HETATM    3  C3  UNK     1      18.011   4.702  32.574  1.00  0.00     0.013 A 
HETATM    4  C4  UNK     1      18.681   6.140  30.752  1.00  0.00     0.013 A 
HETATM    5  C5  UNK     1      17.578   5.815  33.294  1.00  0.00     0.030 A 
HETATM    6  C6  UNK     1      18.247   7.253  31.473  1.00  0.00     0.030 A 
ENDROOT
BRANCH   2   7
HETATM    7  N1  UNK     1      17.265   8.204  33.464  1.00  0.00    -0.327 N 
HETATM    8  C10 UNK     1      16.241   9.106  33.136  1.00  0.00     0.231 C 
HETATM    9  O1  UNK     1      15.538   9.086  32.130  1.00  0.00    -0.272 OA
HETATM   10  H6  UNK     1      17.764   8.377  34.333  1.00  0.00     0.169 HD
BRANCH   8  11
HETATM   11  C11 UNK     1      16.068  10.194  34.174  1.00  0.00     0.184 C 
BRANCH  11  12
HETATM   12  S1  UNK     1      14.316  10.313  34.608  1.00  0.00    -0.092 SA
BRANCH  12  13
HETATM   13  C17 UNK     1      14.427  11.404  36.050  1.00  0.00     0.159 A 
HETATM   14  S2  UNK     1      14.827  13.028  35.889  1.00  0.00    -0.045 SA
HETATM   15  C18 UNK     1      14.665  13.085  37.595  1.00  0.00     0.096 A 
HETATM   16  N3  UNK     1      14.336  11.940  38.156  1.00  0.00    -0.146 NA
HETATM   17  C19 UNK     1      14.889  14.354  38.316  1.00  0.00     0.081 C 
HETATM   18  N2  UNK     1      14.193  10.931  37.218  1.00  0.00    -0.135 NA
ENDBRANCH  12  13
ENDBRANCH  11  12
ENDBRANCH   8  11
ENDBRANCH   2   7
BRANCH   1  19
HETATM   19  C7  UNK     1      19.013   3.703  30.552  1.00  0.00     0.012 C 
HETATM   20  C9  UNK     1      18.700   2.418  30.838  1.00  0.00     0.012 C 
BRANCH  20  21
HETATM   21  C8  UNK     1      19.135   1.258  30.076  1.00  0.00    -0.036 A 
HETATM   22  C12 UNK     1      18.563   0.985  28.833  1.00  0.00     0.011 A 
HETATM   23  C14 UNK     1      18.980  -0.128  28.103  1.00  0.00     0.001 A 
HETATM   24  C16 UNK     1      19.967  -0.968  28.616  1.00  0.00     0.000 A 
HETATM   25  C15 UNK     1      20.539  -0.697  29.858  1.00  0.00     0.001 A 
HETATM   26  C13 UNK     1      20.122   0.416  30.590  1.00  0.00     0.011 A 
ENDBRANCH  20  21
ENDBRANCH   1  19
TORSDOF 6
ENDMDL
MODEL 9
REMARK VINA RESULT:      -8.1      2.307      3.172
REMARK  6 active torsions:
REMARK  status: ('A' for Active; 'I' for Inactive)
REMARK    1  A    between atoms: C11_17  and  S1_1 
REMARK    2  A    between atoms: C17_23  and  S1_1 
REMARK       I    between atoms: C10_16  and  N1_4 
REMARK    3  A    between atoms: C2_8  and  N1_4 
REMARK    4  A    between atoms: C1_7  and  C7_13 
REMARK    5  A    between atoms: C8_14  and  C9_15 
REMARK    6  A    between atoms: C10_16  and  C11_17 
ROOT
HETATM    1  C1  UNK     1      18.477   4.955  31.229  1.00  0.00    -0.036 A 
HETATM    2  C2  UNK     1      17.401   7.245  32.359  1.00  0.00     0.034 A 
HETATM    3  C3  UNK     1      18.469   6.132  30.499  1.00  0.00     0.013 A 
HETATM    4  C4  UNK     1      17.957   4.899  32.512  1.00  0.00     0.013 A 
HETATM    5  C5  UNK     1      17.928   7.285  31.068  1.00  0.00     0.030 A 
HETATM    6  C6  UNK     1      17.416   6.052  33.081  1.00  0.00     0.030 A 
ENDROOT
BRANCH   2   7
HETATM    7  N1  UNK     1      16.858   8.397  32.927  1.00  0.00    -0.327 N 
HETATM    8  C10 UNK     1      17.514   9.388  33.673  1.00  0.00     0.231 C 
HETATM    9  O1  UNK     1      18.703   9.412  33.979  1.00  0.00    -0.272 OA
HETATM   10  H6  UNK     1      15.860   8.524  32.777  1.00  0.00     0.169 HD
BRANCH   8  11
HETATM   11  C11 UNK     1      16.581  10.492  34.124  1.00  0.00     0.184 C 
BRANCH  11  12
HETATM   12  S1  UNK     1      15.157   9.749  34.956  1.00  0.00    -0.092 SA
BRANCH  12  13
HETATM   13  C17 UNK     1      13.824  10.741  34.235  1.00  0.00     0.159 A 
HETATM   14  S2  UNK     1      13.136  12.024  35.074  1.00  0.00    -0.045 SA
HETATM   15  C18 UNK     1      12.151  12.212  33.683  1.00  0.00     0.096 A 
HETATM   16  N3  UNK     1      12.385  11.346  32.720  1.00  0.00    -0.146 NA
HETATM   17  C19 UNK     1      11.139  13.287  33.635  1.00  0.00     0.081 C 
HETATM   18  N2  UNK     1      13.395  10.462  33.059  1.00  0.00    -0.135 NA
ENDBRANCH  12  13
ENDBRANCH  11  12
ENDBRANCH   8  11
ENDBRANCH   2   7
BRANCH   1  19
HETATM   19  C7  UNK     1      19.049   3.737  30.629  1.00  0.00     0.012 C 
HETATM   20  C9  UNK     1      18.495   2.504  30.686  1.00  0.00     0.012 C 
BRANCH  20  21
HETATM   21  C8  UNK     1      19.050   1.305  30.077  1.00  0.00    -0.036 A 
HETATM   22  C12 UNK     1      18.677   0.944  28.782  1.00  0.00     0.011 A 
HETATM   23  C14 UNK     1      19.209  -0.206  28.199  1.00  0.00     0.001 A 
HETATM   24  C16 UNK     1      20.112  -0.995  28.910  1.00  0.00     0.000 A 
HETATM   25  C15 UNK     1      20.485  -0.635  30.205  1.00  0.00     0.001 A 
HETATM   26  C13 UNK     1      19.953   0.515  30.789  1.00  0.00     0.011 A 
ENDBRANCH  20  21
ENDBRANCH   1  19
TORSDOF 6
ENDMDL
MODEL 10
REMARK VINA RESULT:      -7.7     18.584     23.334
REMARK  6 active torsions:
REMARK  status: ('A' for Active; 'I' for Inactive)
REMARK    1  A    between atoms: C11_17  and  S1_1 
REMARK    2  A    between atoms: C17_23  and  S1_1 
REMARK       I    between atoms: C10_16  and  N1_4 
REMARK    3  A    between atoms: C2_8  and  N1_4 
REMARK    4  A    between atoms: C1_7  and  C7_13 
REMARK    5  A    between atoms: C8_14  and  C9_15 
REMARK    6  A    between atoms: C10_16  and  C11_17 
ROOT
HETATM    1  C1  UNK     1      19.055  -2.845  15.685  1.00  0.00    -0.036 A 
HETATM    2  C2  UNK     1      19.374  -5.372  14.594  1.00  0.00     0.034 A 
HETATM    3  C3  UNK     1      17.970  -3.469  15.091  1.00  0.00     0.013 A 
HETATM    4  C4  UNK     1      20.296  -3.457  15.744  1.00  0.00     0.013 A 
HETATM    5  C5  UNK     1      18.131  -4.741  14.542  1.00  0.00     0.030 A 
HETATM    6  C6  UNK     1      20.456  -4.730  15.195  1.00  0.00     0.030 A 
ENDROOT
BRANCH   2   7
HETATM    7  N1  UNK     1      19.535  -6.643  14.044  1.00  0.00    -0.327 N 
HETATM    8  C10 UNK     1      20.376  -7.031  12.991  1.00  0.00     0.231 C 
HETATM    9  O1  UNK     1      21.124  -6.306  12.341  1.00  0.00    -0.272 OA
HETATM   10  H6  UNK     1      18.964  -7.372  14.465  1.00  0.00     0.169 HD
BRANCH   8  11
HETATM   11  C11 UNK     1      20.273  -8.508  12.676  1.00  0.00     0.184 C 
BRANCH  11  12
HETATM   12  S1  UNK     1      21.940  -9.206  12.596  1.00  0.00    -0.092 SA
BRANCH  12  13
HETATM   13  C17 UNK     1      21.537 -10.972  12.586  1.00  0.00     0.159 A 
HETATM   14  S2  UNK     1      22.631 -12.115  12.021  1.00  0.00    -0.045 SA
HETATM   15  C18 UNK     1      21.413 -13.258  12.410  1.00  0.00     0.096 A 
HETATM   16  N3  UNK     1      20.313 -12.740  12.914  1.00  0.00    -0.146 NA
HETATM   17  C19 UNK     1      21.646 -14.696  12.172  1.00  0.00     0.081 C 
HETATM   18  N2  UNK     1      20.395 -11.362  13.018  1.00  0.00    -0.135 NA
ENDBRANCH  12  13
ENDBRANCH  11  12
ENDBRANCH   8  11
ENDBRANCH   2   7
BRANCH   1  19
HETATM   19  C7  UNK     1      18.885  -1.500  16.265  1.00  0.00     0.012 C 
HETATM   20  C9  UNK     1      19.171  -1.161  17.544  1.00  0.00     0.012 C 
BRANCH  20  21
HETATM   21  C8  UNK     1      19.021   0.170  18.112  1.00  0.00    -0.036 A 
HETATM   22  C12 UNK     1      19.191   1.296  17.305  1.00  0.00     0.011 A 
HETATM   23  C14 UNK     1      19.048   2.572  17.851  1.00  0.00     0.001 A 
HETATM   24  C16 UNK     1      18.737   2.722  19.201  1.00  0.00     0.000 A 
HETATM   25  C15 UNK     1      18.567   1.597  20.008  1.00  0.00     0.001 A 
HETATM   26  C13 UNK     1      18.710   0.321  19.464  1.00  0.00     0.011 A 
ENDBRANCH  20  21
ENDBRANCH   1  19
TORSDOF 6
ENDMDL
