MODEL 1
REMARK VINA RESULT:      -9.4      0.000      0.000
REMARK  4 active torsions:
REMARK  status: ('A' for Active; 'I' for Inactive)
REMARK    1  A    between atoms: C20_25  and  N2_5 
REMARK    2  A    between atoms: C9_14  and  N2_5 
REMARK    3  A    between atoms: C15_20  and  C6_11 
REMARK    4  A    between atoms: C15_20  and  C19_24 
ROOT
HETATM    1  O1  UNK     1      29.431  -6.040  34.067  1.00  0.00    -0.286 OA
HETATM    2  O2  UNK     1      35.389  -9.487  31.209  1.00  0.00    -0.267 OA
HETATM    3  N1  UNK     1      34.996  -7.781  32.722  1.00  0.00    -0.317 N 
HETATM    4  C1  UNK     1      32.716  -6.972  32.934  1.00  0.00     0.020 A 
HETATM    5  C2  UNK     1      32.310  -7.715  31.715  1.00  0.00     0.008 C 
HETATM    6  C3  UNK     1      31.736  -6.291  33.679  1.00  0.00     0.055 A 
HETATM    7  C4  UNK     1      34.041  -6.964  33.386  1.00  0.00     0.049 A 
HETATM    8  C5  UNK     1      30.962  -7.435  31.118  1.00  0.00    -0.010 A 
HETATM    9  C6  UNK     1      33.186  -8.640  31.257  1.00  0.00     0.095 C 
HETATM   10  C7  UNK     1      29.976  -6.838  31.922  1.00  0.00     0.026 A 
HETATM   11  C8  UNK     1      30.312  -6.376  33.287  1.00  0.00     0.196 C 
HETATM   12  C9  UNK     1      32.078  -5.550  34.815  1.00  0.00     0.048 A 
HETATM   13  C10 UNK     1      34.617  -8.678  31.728  1.00  0.00     0.263 C 
HETATM   14  C11 UNK     1      34.380  -6.194  34.514  1.00  0.00     0.033 A 
HETATM   15  C12 UNK     1      33.405  -5.489  35.217  1.00  0.00     0.033 A 
HETATM   16  C13 UNK     1      30.652  -7.614  29.759  1.00  0.00     0.013 A 
HETATM   17  C14 UNK     1      28.690  -6.571  31.429  1.00  0.00     0.016 A 
HETATM   18  C16 UNK     1      36.391  -7.748  33.156  1.00  0.00     0.159 C 
HETATM   19  C17 UNK     1      29.375  -7.341  29.258  1.00  0.00     0.001 A 
HETATM   20  C18 UNK     1      28.388  -6.841  30.098  1.00  0.00     0.001 A 
ENDROOT
BRANCH   9  21
HETATM   21  C15 UNK     1      32.785  -9.672  30.278  1.00  0.00     0.198 C 
HETATM   22  O3  UNK     1      33.144  -9.582  29.111  1.00  0.00    -0.286 OA
BRANCH  21  23
HETATM   23  C19 UNK     1      31.966 -10.813  30.742  1.00  0.00     0.015 A 
HETATM   24  C21 UNK     1      32.104 -11.253  32.046  1.00  0.00     0.015 A 
HETATM   25  C25 UNK     1      31.332 -12.330  32.483  1.00  0.00     0.001 A 
HETATM   26  C29 UNK     1      30.438 -12.948  31.609  1.00  0.00     0.000 A 
HETATM   27  C26 UNK     1      30.313 -12.489  30.298  1.00  0.00     0.001 A 
HETATM   28  C22 UNK     1      31.085 -11.412  29.861  1.00  0.00     0.015 A 
ENDBRANCH  21  23
ENDBRANCH   9  21
BRANCH  12  29
HETATM   29  N2  UNK     1      31.136  -4.820  35.574  1.00  0.00    -0.355 N 
HETATM   30  H8  UNK     1      30.897  -3.919  35.170  1.00  0.00     0.166 HD
BRANCH  29  31
HETATM   31  C20 UNK     1      30.513  -5.069  36.810  1.00  0.00     0.032 A 
HETATM   32  C23 UNK     1      30.119  -4.003  37.623  1.00  0.00     0.029 A 
HETATM   33  C27 UNK     1      29.500  -4.250  38.848  1.00  0.00     0.002 A 
HETATM   34  C30 UNK     1      29.272  -5.562  39.264  1.00  0.00     0.000 A 
HETATM   35  C28 UNK     1      29.665  -6.628  38.454  1.00  0.00     0.002 A 
HETATM   36  C24 UNK     1      30.284  -6.382  37.229  1.00  0.00     0.029 A 
ENDBRANCH  29  31
ENDBRANCH  12  29
TORSDOF 4
ENDMDL
MODEL 2
REMARK VINA RESULT:      -9.4      1.123      1.610
REMARK  4 active torsions:
REMARK  status: ('A' for Active; 'I' for Inactive)
REMARK    1  A    between atoms: C20_25  and  N2_5 
REMARK    2  A    between atoms: C9_14  and  N2_5 
REMARK    3  A    between atoms: C15_20  and  C6_11 
REMARK    4  A    between atoms: C15_20  and  C19_24 
ROOT
HETATM    1  O1  UNK     1      29.969  -6.211  33.709  1.00  0.00    -0.286 OA
HETATM    2  O2  UNK     1      36.797  -8.888  32.378  1.00  0.00    -0.267 OA
HETATM    3  N1  UNK     1      35.847  -7.334  33.804  1.00  0.00    -0.317 N 
HETATM    4  C1  UNK     1      33.516  -6.756  33.442  1.00  0.00     0.020 A 
HETATM    5  C2  UNK     1      33.520  -7.449  32.129  1.00  0.00     0.008 C 
HETATM    6  C3  UNK     1      32.310  -6.221  33.931  1.00  0.00     0.055 A 
HETATM    7  C4  UNK     1      34.671  -6.656  34.227  1.00  0.00     0.049 A 
HETATM    8  C5  UNK     1      32.349  -7.255  31.211  1.00  0.00    -0.010 A 
HETATM    9  C6  UNK     1      34.578  -8.254  31.880  1.00  0.00     0.095 C 
HETATM   10  C7  UNK     1      31.131  -6.808  31.752  1.00  0.00     0.026 A 
HETATM   11  C8  UNK     1      31.053  -6.411  33.175  1.00  0.00     0.196 C 
HETATM   12  C9  UNK     1      32.266  -5.531  35.146  1.00  0.00     0.048 A 
HETATM   13  C10 UNK     1      35.835  -8.192  32.709  1.00  0.00     0.263 C 
HETATM   14  C11 UNK     1      34.623  -5.937  35.435  1.00  0.00     0.033 A 
HETATM   15  C12 UNK     1      33.430  -5.375  35.886  1.00  0.00     0.033 A 
HETATM   16  C13 UNK     1      32.420  -7.368  29.812  1.00  0.00     0.013 A 
HETATM   17  C14 UNK     1      29.995  -6.628  30.949  1.00  0.00     0.016 A 
HETATM   18  C16 UNK     1      37.071  -7.201  34.591  1.00  0.00     0.159 C 
HETATM   19  C17 UNK     1      31.294  -7.181  29.004  1.00  0.00     0.001 A 
HETATM   20  C18 UNK     1      30.076  -6.833  29.575  1.00  0.00     0.001 A 
ENDROOT
BRANCH   9  21
HETATM   21  C15 UNK     1      34.555  -9.250  30.787  1.00  0.00     0.198 C 
HETATM   22  O3  UNK     1      35.148  -9.025  29.741  1.00  0.00    -0.286 OA
BRANCH  21  23
HETATM   23  C19 UNK     1      33.825 -10.519  30.996  1.00  0.00     0.015 A 
HETATM   24  C21 UNK     1      32.851 -10.893  30.089  1.00  0.00     0.015 A 
HETATM   25  C25 UNK     1      32.161 -12.089  30.287  1.00  0.00     0.001 A 
HETATM   26  C29 UNK     1      32.458 -12.890  31.390  1.00  0.00     0.000 A 
HETATM   27  C26 UNK     1      33.444 -12.496  32.294  1.00  0.00     0.001 A 
HETATM   28  C22 UNK     1      34.133 -11.299  32.096  1.00  0.00     0.015 A 
ENDBRANCH  21  23
ENDBRANCH   9  21
BRANCH  12  29
HETATM   29  N2  UNK     1      31.088  -4.945  35.661  1.00  0.00    -0.355 N 
HETATM   30  H8  UNK     1      30.702  -4.217  35.068  1.00  0.00     0.166 HD
BRANCH  29  31
HETATM   31  C20 UNK     1      30.380  -5.129  36.863  1.00  0.00     0.032 A 
HETATM   32  C23 UNK     1      30.188  -4.054  37.734  1.00  0.00     0.029 A 
HETATM   33  C27 UNK     1      29.486  -4.237  38.925  1.00  0.00     0.002 A 
HETATM   34  C30 UNK     1      28.974  -5.494  39.248  1.00  0.00     0.000 A 
HETATM   35  C28 UNK     1      29.165  -6.569  38.380  1.00  0.00     0.002 A 
HETATM   36  C24 UNK     1      29.867  -6.387  37.189  1.00  0.00     0.029 A 
ENDBRANCH  29  31
ENDBRANCH  12  29
TORSDOF 4
ENDMDL
MODEL 3
REMARK VINA RESULT:      -9.3      1.466      2.069
REMARK  4 active torsions:
REMARK  status: ('A' for Active; 'I' for Inactive)
REMARK    1  A    between atoms: C20_25  and  N2_5 
REMARK    2  A    between atoms: C9_14  and  N2_5 
REMARK    3  A    between atoms: C15_20  and  C6_11 
REMARK    4  A    between atoms: C15_20  and  C19_24 
ROOT
HETATM    1  O1  UNK     1      29.564  -7.630  35.053  1.00  0.00    -0.286 OA
HETATM    2  O2  UNK     1      35.629  -7.858  30.727  1.00  0.00    -0.267 OA
HETATM    3  N1  UNK     1      35.170  -7.496  32.965  1.00  0.00    -0.317 N 
HETATM    4  C1  UNK     1      32.840  -7.269  33.612  1.00  0.00     0.020 A 
HETATM    5  C2  UNK     1      32.428  -7.155  32.190  1.00  0.00     0.008 C 
HETATM    6  C3  UNK     1      31.851  -7.310  34.611  1.00  0.00     0.055 A 
HETATM    7  C4  UNK     1      34.186  -7.377  33.984  1.00  0.00     0.049 A 
HETATM    8  C5  UNK     1      31.021  -6.735  31.881  1.00  0.00    -0.010 A 
HETATM    9  C6  UNK     1      33.360  -7.492  31.268  1.00  0.00     0.095 C 
HETATM   10  C7  UNK     1      30.038  -6.878  32.875  1.00  0.00     0.026 A 
HETATM   11  C8  UNK     1      30.419  -7.310  34.238  1.00  0.00     0.196 C 
HETATM   12  C9  UNK     1      32.193  -7.382  35.964  1.00  0.00     0.048 A 
HETATM   13  C10 UNK     1      34.816  -7.636  31.627  1.00  0.00     0.263 C 
HETATM   14  C11 UNK     1      34.522  -7.423  35.349  1.00  0.00     0.033 A 
HETATM   15  C12 UNK     1      33.532  -7.419  36.330  1.00  0.00     0.033 A 
HETATM   16  C13 UNK     1      30.639  -6.082  30.697  1.00  0.00     0.013 A 
HETATM   17  C14 UNK     1      28.701  -6.524  32.640  1.00  0.00     0.016 A 
HETATM   18  C16 UNK     1      36.581  -7.565  33.339  1.00  0.00     0.159 C 
HETATM   19  C17 UNK     1      29.309  -5.718  30.459  1.00  0.00     0.001 A 
HETATM   20  C18 UNK     1      28.337  -5.959  31.421  1.00  0.00     0.001 A 
ENDROOT
BRANCH   9  21
HETATM   21  C15 UNK     1      32.998  -7.750  29.858  1.00  0.00     0.198 C 
HETATM   22  O3  UNK     1      33.427  -7.023  28.972  1.00  0.00    -0.286 OA
BRANCH  21  23
HETATM   23  C19 UNK     1      32.132  -8.909  29.546  1.00  0.00     0.015 A 
HETATM   24  C21 UNK     1      31.223  -8.810  28.509  1.00  0.00     0.015 A 
HETATM   25  C25 UNK     1      30.407  -9.903  28.216  1.00  0.00     0.001 A 
HETATM   26  C29 UNK     1      30.513 -11.073  28.967  1.00  0.00     0.000 A 
HETATM   27  C26 UNK     1      31.436 -11.153  30.010  1.00  0.00     0.001 A 
HETATM   28  C22 UNK     1      32.253 -10.060  30.302  1.00  0.00     0.015 A 
ENDBRANCH  21  23
ENDBRANCH   9  21
BRANCH  12  29
HETATM   29  N2  UNK     1      31.237  -7.389  37.004  1.00  0.00    -0.355 N 
HETATM   30  H8  UNK     1      30.973  -8.320  37.311  1.00  0.00     0.166 HD
BRANCH  29  31
HETATM   31  C20 UNK     1      30.533  -6.359  37.656  1.00  0.00     0.032 A 
HETATM   32  C23 UNK     1      29.526  -6.671  38.572  1.00  0.00     0.029 A 
HETATM   33  C27 UNK     1      28.829  -5.650  39.219  1.00  0.00     0.002 A 
HETATM   34  C30 UNK     1      29.137  -4.316  38.951  1.00  0.00     0.000 A 
HETATM   35  C28 UNK     1      30.142  -4.002  38.037  1.00  0.00     0.002 A 
HETATM   36  C24 UNK     1      30.840  -5.023  37.390  1.00  0.00     0.029 A 
ENDBRANCH  29  31
ENDBRANCH  12  29
TORSDOF 4
ENDMDL
MODEL 4
REMARK VINA RESULT:      -9.2      0.994      1.525
REMARK  4 active torsions:
REMARK  status: ('A' for Active; 'I' for Inactive)
REMARK    1  A    between atoms: C20_25  and  N2_5 
REMARK    2  A    between atoms: C9_14  and  N2_5 
REMARK    3  A    between atoms: C15_20  and  C6_11 
REMARK    4  A    between atoms: C15_20  and  C19_24 
ROOT
HETATM    1  O1  UNK     1      28.709  -7.106  34.027  1.00  0.00    -0.286 OA
HETATM    2  O2  UNK     1      35.048  -9.694  31.081  1.00  0.00    -0.267 OA
HETATM    3  N1  UNK     1      34.422  -7.939  32.454  1.00  0.00    -0.317 N 
HETATM    4  C1  UNK     1      32.045  -7.539  32.753  1.00  0.00     0.020 A 
HETATM    5  C2  UNK     1      31.722  -8.468  31.640  1.00  0.00     0.008 C 
HETATM    6  C3  UNK     1      30.997  -6.973  33.500  1.00  0.00     0.055 A 
HETATM    7  C4  UNK     1      33.368  -7.244  33.105  1.00  0.00     0.049 A 
HETATM    8  C5  UNK     1      30.315  -8.501  31.118  1.00  0.00    -0.010 A 
HETATM    9  C6  UNK     1      32.730  -9.260  31.208  1.00  0.00     0.095 C 
HETATM   10  C7  UNK     1      29.280  -8.011  31.932  1.00  0.00     0.026 A 
HETATM   11  C8  UNK     1      29.595  -7.357  33.220  1.00  0.00     0.196 C 
HETATM   12  C9  UNK     1      31.253  -6.069  34.534  1.00  0.00     0.048 A 
HETATM   13  C10 UNK     1      34.166  -8.989  31.577  1.00  0.00     0.263 C 
HETATM   14  C11 UNK     1      33.616  -6.312  34.130  1.00  0.00     0.033 A 
HETATM   15  C12 UNK     1      32.565  -5.726  34.833  1.00  0.00     0.033 A 
HETATM   16  C13 UNK     1      29.972  -8.873  29.807  1.00  0.00     0.013 A 
HETATM   17  C14 UNK     1      27.942  -8.035  31.509  1.00  0.00     0.016 A 
HETATM   18  C16 UNK     1      35.807  -7.608  32.781  1.00  0.00     0.159 C 
HETATM   19  C17 UNK     1      28.642  -8.891  29.376  1.00  0.00     0.001 A 
HETATM   20  C18 UNK     1      27.625  -8.493  30.234  1.00  0.00     0.001 A 
ENDROOT
BRANCH   9  21
HETATM   21  C15 UNK     1      32.478 -10.445  30.360  1.00  0.00     0.198 C 
HETATM   22  O3  UNK     1      32.761 -10.418  29.170  1.00  0.00    -0.286 OA
BRANCH  21  23
HETATM   23  C19 UNK     1      31.901 -11.656  30.984  1.00  0.00     0.015 A 
HETATM   24  C21 UNK     1      30.943 -12.376  30.295  1.00  0.00     0.015 A 
HETATM   25  C25 UNK     1      30.399 -13.518  30.884  1.00  0.00     0.001 A 
HETATM   26  C29 UNK     1      30.823 -13.918  32.151  1.00  0.00     0.000 A 
HETATM   27  C26 UNK     1      31.791 -13.178  32.830  1.00  0.00     0.001 A 
HETATM   28  C22 UNK     1      32.335 -12.036  32.241  1.00  0.00     0.015 A 
ENDBRANCH  21  23
ENDBRANCH   9  21
BRANCH  12  29
HETATM   29  N2  UNK     1      30.233  -5.446  35.288  1.00  0.00    -0.355 N 
HETATM   30  H8  UNK     1      29.623  -4.850  34.736  1.00  0.00     0.166 HD
BRANCH  29  31
HETATM   31  C20 UNK     1      29.935  -5.441  36.663  1.00  0.00     0.032 A 
HETATM   32  C23 UNK     1      29.409  -6.585  37.269  1.00  0.00     0.029 A 
HETATM   33  C27 UNK     1      29.114  -6.580  38.633  1.00  0.00     0.002 A 
HETATM   34  C30 UNK     1      29.344  -5.433  39.393  1.00  0.00     0.000 A 
HETATM   35  C28 UNK     1      29.868  -4.290  38.789  1.00  0.00     0.002 A 
HETATM   36  C24 UNK     1      30.163  -4.294  37.426  1.00  0.00     0.029 A 
ENDBRANCH  29  31
ENDBRANCH  12  29
TORSDOF 4
ENDMDL
MODEL 5
REMARK VINA RESULT:      -9.0      4.137      7.302
REMARK  4 active torsions:
REMARK  status: ('A' for Active; 'I' for Inactive)
REMARK    1  A    between atoms: C20_25  and  N2_5 
REMARK    2  A    between atoms: C9_14  and  N2_5 
REMARK    3  A    between atoms: C15_20  and  C6_11 
REMARK    4  A    between atoms: C15_20  and  C19_24 
ROOT
HETATM    1  O1  UNK     1      26.264  -6.083  38.614  1.00  0.00    -0.286 OA
HETATM    2  O2  UNK     1      30.679  -8.581  33.153  1.00  0.00    -0.267 OA
HETATM    3  N1  UNK     1      29.040  -9.461  34.528  1.00  0.00    -0.317 N 
HETATM    4  C1  UNK     1      28.226  -8.065  36.342  1.00  0.00     0.020 A 
HETATM    5  C2  UNK     1      29.337  -7.102  36.135  1.00  0.00     0.008 C 
HETATM    6  C3  UNK     1      27.229  -7.768  37.288  1.00  0.00     0.055 A 
HETATM    7  C4  UNK     1      28.122  -9.242  35.591  1.00  0.00     0.049 A 
HETATM    8  C5  UNK     1      29.563  -6.034  37.164  1.00  0.00    -0.010 A 
HETATM    9  C6  UNK     1      30.042  -7.237  34.987  1.00  0.00     0.095 C 
HETATM   10  C7  UNK     1      28.511  -5.698  38.033  1.00  0.00     0.026 A 
HETATM   11  C8  UNK     1      27.255  -6.478  38.014  1.00  0.00     0.196 C 
HETATM   12  C9  UNK     1      26.183  -8.660  37.540  1.00  0.00     0.048 A 
HETATM   13  C10 UNK     1      29.947  -8.480  34.140  1.00  0.00     0.263 C 
HETATM   14  C11 UNK     1      27.081 -10.147  35.870  1.00  0.00     0.033 A 
HETATM   15  C12 UNK     1      26.124  -9.858  36.842  1.00  0.00     0.033 A 
HETATM   16  C13 UNK     1      30.808  -5.428  37.408  1.00  0.00     0.013 A 
HETATM   17  C14 UNK     1      28.654  -4.693  39.002  1.00  0.00     0.016 A 
HETATM   18  C16 UNK     1      28.969 -10.706  33.767  1.00  0.00     0.159 C 
HETATM   19  C17 UNK     1      30.960  -4.432  38.378  1.00  0.00     0.001 A 
HETATM   20  C18 UNK     1      29.877  -4.049  39.160  1.00  0.00     0.001 A 
ENDROOT
BRANCH   9  21
HETATM   21  C15 UNK     1      30.935  -6.167  34.493  1.00  0.00     0.198 C 
HETATM   22  O3  UNK     1      30.493  -5.287  33.766  1.00  0.00    -0.286 OA
BRANCH  21  23
HETATM   23  C19 UNK     1      32.353  -6.175  34.913  1.00  0.00     0.015 A 
HETATM   24  C21 UNK     1      32.892  -7.333  35.443  1.00  0.00     0.015 A 
HETATM   25  C25 UNK     1      34.229  -7.339  35.840  1.00  0.00     0.001 A 
HETATM   26  C29 UNK     1      35.004  -6.188  35.699  1.00  0.00     0.000 A 
HETATM   27  C26 UNK     1      34.442  -5.030  35.162  1.00  0.00     0.001 A 
HETATM   28  C22 UNK     1      33.104  -5.023  34.766  1.00  0.00     0.015 A 
ENDBRANCH  21  23
ENDBRANCH   9  21
BRANCH  12  29
HETATM   29  N2  UNK     1      25.180  -8.423  38.506  1.00  0.00    -0.355 N 
HETATM   30  H8  UNK     1      25.513  -8.483  39.464  1.00  0.00     0.166 HD
BRANCH  29  31
HETATM   31  C20 UNK     1      23.798  -8.182  38.402  1.00  0.00     0.032 A 
HETATM   32  C23 UNK     1      23.127  -7.502  39.422  1.00  0.00     0.029 A 
HETATM   33  C27 UNK     1      21.757  -7.262  39.319  1.00  0.00     0.002 A 
HETATM   34  C30 UNK     1      21.054  -7.701  38.196  1.00  0.00     0.000 A 
HETATM   35  C28 UNK     1      21.721  -8.381  37.177  1.00  0.00     0.002 A 
HETATM   36  C24 UNK     1      23.091  -8.621  37.280  1.00  0.00     0.029 A 
ENDBRANCH  29  31
ENDBRANCH  12  29
TORSDOF 4
ENDMDL
MODEL 6
REMARK VINA RESULT:      -9.0      1.322      1.831
REMARK  4 active torsions:
REMARK  status: ('A' for Active; 'I' for Inactive)
REMARK    1  A    between atoms: C20_25  and  N2_5 
REMARK    2  A    between atoms: C9_14  and  N2_5 
REMARK    3  A    between atoms: C15_20  and  C6_11 
REMARK    4  A    between atoms: C15_20  and  C19_24 
ROOT
HETATM    1  O1  UNK     1      28.190  -6.674  34.641  1.00  0.00    -0.286 OA
HETATM    2  O2  UNK     1      34.604  -7.880  31.042  1.00  0.00    -0.267 OA
HETATM    3  N1  UNK     1      33.929  -6.758  32.950  1.00  0.00    -0.317 N 
HETATM    4  C1  UNK     1      31.542  -6.545  33.341  1.00  0.00     0.020 A 
HETATM    5  C2  UNK     1      31.247  -7.011  31.963  1.00  0.00     0.008 C 
HETATM    6  C3  UNK     1      30.476  -6.311  34.229  1.00  0.00     0.055 A 
HETATM    7  C4  UNK     1      32.855  -6.370  33.795  1.00  0.00     0.049 A 
HETATM    8  C5  UNK     1      29.844  -6.882  31.446  1.00  0.00    -0.010 A 
HETATM    9  C6  UNK     1      32.276  -7.571  31.287  1.00  0.00     0.095 C 
HETATM   10  C7  UNK     1      28.792  -6.744  32.368  1.00  0.00     0.026 A 
HETATM   11  C8  UNK     1      29.086  -6.596  33.810  1.00  0.00     0.196 C 
HETATM   12  C9  UNK     1      30.705  -5.839  35.525  1.00  0.00     0.048 A 
HETATM   13  C10 UNK     1      33.703  -7.422  31.748  1.00  0.00     0.263 C 
HETATM   14  C11 UNK     1      33.075  -5.869  35.092  1.00  0.00     0.033 A 
HETATM   15  C12 UNK     1      32.006  -5.601  35.945  1.00  0.00     0.033 A 
HETATM   16  C13 UNK     1      29.517  -6.760  30.085  1.00  0.00     0.013 A 
HETATM   17  C14 UNK     1      27.458  -6.641  31.948  1.00  0.00     0.016 A 
HETATM   18  C16 UNK     1      35.304  -6.540  33.394  1.00  0.00     0.159 C 
HETATM   19  C17 UNK     1      28.189  -6.647  29.659  1.00  0.00     0.001 A 
HETATM   20  C18 UNK     1      27.158  -6.611  30.589  1.00  0.00     0.001 A 
ENDROOT
BRANCH   9  21
HETATM   21  C15 UNK     1      32.057  -8.372  30.063  1.00  0.00     0.198 C 
HETATM   22  O3  UNK     1      32.350  -7.909  28.968  1.00  0.00    -0.286 OA
BRANCH  21  23
HETATM   23  C19 UNK     1      31.502  -9.736  30.195  1.00  0.00     0.015 A 
HETATM   24  C21 UNK     1      30.550 -10.167  29.289  1.00  0.00     0.015 A 
HETATM   25  C25 UNK     1      30.026 -11.453  29.416  1.00  0.00     0.001 A 
HETATM   26  C29 UNK     1      30.463 -12.286  30.446  1.00  0.00     0.000 A 
HETATM   27  C26 UNK     1      31.424 -11.833  31.349  1.00  0.00     0.001 A 
HETATM   28  C22 UNK     1      31.948 -10.547  31.223  1.00  0.00     0.015 A 
ENDBRANCH  21  23
ENDBRANCH   9  21
BRANCH  12  29
HETATM   29  N2  UNK     1      29.666  -5.555  36.439  1.00  0.00    -0.355 N 
HETATM   30  H8  UNK     1      29.305  -4.609  36.366  1.00  0.00     0.166 HD
BRANCH  29  31
HETATM   31  C20 UNK     1      29.077  -6.306  37.473  1.00  0.00     0.032 A 
HETATM   32  C23 UNK     1      28.164  -5.705  38.342  1.00  0.00     0.029 A 
HETATM   33  C27 UNK     1      27.579  -6.449  39.366  1.00  0.00     0.002 A 
HETATM   34  C30 UNK     1      27.905  -7.797  39.524  1.00  0.00     0.000 A 
HETATM   35  C28 UNK     1      28.816  -8.399  38.657  1.00  0.00     0.002 A 
HETATM   36  C24 UNK     1      29.402  -7.655  37.633  1.00  0.00     0.029 A 
ENDBRANCH  29  31
ENDBRANCH  12  29
TORSDOF 4
ENDMDL
MODEL 7
REMARK VINA RESULT:      -9.0      2.717      7.311
REMARK  4 active torsions:
REMARK  status: ('A' for Active; 'I' for Inactive)
REMARK    1  A    between atoms: C20_25  and  N2_5 
REMARK    2  A    between atoms: C9_14  and  N2_5 
REMARK    3  A    between atoms: C15_20  and  C6_11 
REMARK    4  A    between atoms: C15_20  and  C19_24 
ROOT
HETATM    1  O1  UNK     1      29.477  -9.637  33.958  1.00  0.00    -0.286 OA
HETATM    2  O2  UNK     1      35.970  -6.235  35.309  1.00  0.00    -0.267 OA
HETATM    3  N1  UNK     1      35.130  -7.689  33.717  1.00  0.00    -0.317 N 
HETATM    4  C1  UNK     1      32.929  -8.638  34.112  1.00  0.00     0.020 A 
HETATM    5  C2  UNK     1      32.939  -8.147  35.513  1.00  0.00     0.008 C 
HETATM    6  C3  UNK     1      31.773  -9.263  33.614  1.00  0.00     0.055 A 
HETATM    7  C4  UNK     1      34.026  -8.460  33.260  1.00  0.00     0.049 A 
HETATM    8  C5  UNK     1      31.876  -8.635  36.453  1.00  0.00    -0.010 A 
HETATM    9  C6  UNK     1      33.898  -7.243  35.824  1.00  0.00     0.095 C 
HETATM   10  C7  UNK     1      30.692  -9.168  35.918  1.00  0.00     0.026 A 
HETATM   11  C8  UNK     1      30.561  -9.364  34.457  1.00  0.00     0.196 C 
HETATM   12  C9  UNK     1      31.730  -9.771  32.312  1.00  0.00     0.048 A 
HETATM   13  C10 UNK     1      35.086  -7.007  34.929  1.00  0.00     0.263 C 
HETATM   14  C11 UNK     1      33.984  -8.998  31.961  1.00  0.00     0.033 A 
HETATM   15  C12 UNK     1      32.846  -9.653  31.495  1.00  0.00     0.033 A 
HETATM   16  C13 UNK     1      32.037  -8.714  37.847  1.00  0.00     0.013 A 
HETATM   17  C14 UNK     1      29.652  -9.621  36.744  1.00  0.00     0.016 A 
HETATM   18  C16 UNK     1      36.299  -7.532  32.854  1.00  0.00     0.159 C 
HETATM   19  C17 UNK     1      31.008  -9.172  38.677  1.00  0.00     0.001 A 
HETATM   20  C18 UNK     1      29.808  -9.604  38.127  1.00  0.00     0.001 A 
ENDROOT
BRANCH   9  21
HETATM   21  C15 UNK     1      33.825  -6.427  37.055  1.00  0.00     0.198 C 
HETATM   22  O3  UNK     1      34.584  -6.655  37.988  1.00  0.00    -0.286 OA
BRANCH  21  23
HETATM   23  C19 UNK     1      32.837  -5.327  37.122  1.00  0.00     0.015 A 
HETATM   24  C21 UNK     1      31.826  -5.387  38.063  1.00  0.00     0.015 A 
HETATM   25  C25 UNK     1      30.895  -4.350  38.125  1.00  0.00     0.001 A 
HETATM   26  C29 UNK     1      30.991  -3.273  37.245  1.00  0.00     0.000 A 
HETATM   27  C26 UNK     1      32.019  -3.231  36.303  1.00  0.00     0.001 A 
HETATM   28  C22 UNK     1      32.950  -4.268  36.241  1.00  0.00     0.015 A 
ENDBRANCH  21  23
ENDBRANCH   9  21
BRANCH  12  29
HETATM   29  N2  UNK     1      30.605 -10.440  31.779  1.00  0.00    -0.355 N 
HETATM   30  H8  UNK     1      30.391 -11.316  32.246  1.00  0.00     0.166 HD
BRANCH  29  31
HETATM   31  C20 UNK     1      29.761 -10.160  30.689  1.00  0.00     0.032 A 
HETATM   32  C23 UNK     1      28.798  -9.153  30.789  1.00  0.00     0.029 A 
HETATM   33  C27 UNK     1      27.962  -8.875  29.708  1.00  0.00     0.002 A 
HETATM   34  C30 UNK     1      28.086  -9.604  28.524  1.00  0.00     0.000 A 
HETATM   35  C28 UNK     1      29.046 -10.610  28.422  1.00  0.00     0.002 A 
HETATM   36  C24 UNK     1      29.883 -10.888  29.503  1.00  0.00     0.029 A 
ENDBRANCH  29  31
ENDBRANCH  12  29
TORSDOF 4
ENDMDL
MODEL 8
REMARK VINA RESULT:      -8.9      2.607      7.165
REMARK  4 active torsions:
REMARK  status: ('A' for Active; 'I' for Inactive)
REMARK    1  A    between atoms: C20_25  and  N2_5 
REMARK    2  A    between atoms: C9_14  and  N2_5 
REMARK    3  A    between atoms: C15_20  and  C6_11 
REMARK    4  A    between atoms: C15_20  and  C19_24 
ROOT
HETATM    1  O1  UNK     1      28.630  -7.231  32.425  1.00  0.00    -0.286 OA
HETATM    2  O2  UNK     1      34.862  -6.907  36.500  1.00  0.00    -0.267 OA
HETATM    3  N1  UNK     1      34.321  -7.240  34.275  1.00  0.00    -0.317 N 
HETATM    4  C1  UNK     1      31.973  -7.523  33.721  1.00  0.00     0.020 A 
HETATM    5  C2  UNK     1      31.625  -7.676  35.157  1.00  0.00     0.008 C 
HETATM    6  C3  UNK     1      30.942  -7.492  32.766  1.00  0.00     0.055 A 
HETATM    7  C4  UNK     1      33.298  -7.368  33.296  1.00  0.00     0.049 A 
HETATM    8  C5  UNK     1      30.244  -8.143  35.515  1.00  0.00    -0.010 A 
HETATM    9  C6  UNK     1      32.584  -7.329  36.046  1.00  0.00     0.095 C 
HETATM   10  C7  UNK     1      29.217  -8.009  34.566  1.00  0.00     0.026 A 
HETATM   11  C8  UNK     1      29.527  -7.541  33.198  1.00  0.00     0.196 C 
HETATM   12  C9  UNK     1      31.225  -7.384  31.401  1.00  0.00     0.048 A 
HETATM   13  C10 UNK     1      34.019  -7.135  35.630  1.00  0.00     0.263 C 
HETATM   14  C11 UNK     1      33.575  -7.286  31.920  1.00  0.00     0.033 A 
HETATM   15  C12 UNK     1      32.545  -7.301  30.981  1.00  0.00     0.033 A 
HETATM   16  C13 UNK     1      29.931  -8.829  36.701  1.00  0.00     0.013 A 
HETATM   17  C14 UNK     1      27.901  -8.407  34.849  1.00  0.00     0.016 A 
HETATM   18  C16 UNK     1      35.712  -7.122  33.845  1.00  0.00     0.159 C 
HETATM   19  C17 UNK     1      28.623  -9.237  36.986  1.00  0.00     0.001 A 
HETATM   20  C18 UNK     1      27.605  -9.006  36.070  1.00  0.00     0.001 A 
ENDROOT
BRANCH   9  21
HETATM   21  C15 UNK     1      32.274  -7.108  37.475  1.00  0.00     0.198 C 
HETATM   22  O3  UNK     1      32.779  -7.825  38.329  1.00  0.00    -0.286 OA
BRANCH  21  23
HETATM   23  C19 UNK     1      31.367  -5.999  37.843  1.00  0.00     0.015 A 
HETATM   24  C21 UNK     1      30.321  -6.246  38.713  1.00  0.00     0.015 A 
HETATM   25  C25 UNK     1      29.465  -5.200  39.059  1.00  0.00     0.001 A 
HETATM   26  C29 UNK     1      29.670  -3.927  38.528  1.00  0.00     0.000 A 
HETATM   27  C26 UNK     1      30.731  -3.698  37.651  1.00  0.00     0.001 A 
HETATM   28  C22 UNK     1      31.587  -4.744  37.305  1.00  0.00     0.015 A 
ENDBRANCH  21  23
ENDBRANCH   9  21
BRANCH  12  29
HETATM   29  N2  UNK     1      30.226  -7.386  30.402  1.00  0.00    -0.355 N 
HETATM   30  H8  UNK     1      29.720  -6.508  30.327  1.00  0.00     0.166 HD
BRANCH  29  31
HETATM   31  C20 UNK     1      29.753  -8.385  29.532  1.00  0.00     0.032 A 
HETATM   32  C23 UNK     1      30.622  -8.986  28.618  1.00  0.00     0.029 A 
HETATM   33  C27 UNK     1      30.153  -9.978  27.756  1.00  0.00     0.002 A 
HETATM   34  C30 UNK     1      28.815 -10.371  27.806  1.00  0.00     0.000 A 
HETATM   35  C28 UNK     1      27.946  -9.772  28.717  1.00  0.00     0.002 A 
HETATM   36  C24 UNK     1      28.414  -8.780  29.579  1.00  0.00     0.029 A 
ENDBRANCH  29  31
ENDBRANCH  12  29
TORSDOF 4
ENDMDL
MODEL 9
REMARK VINA RESULT:      -8.8      2.563      4.655
REMARK  4 active torsions:
REMARK  status: ('A' for Active; 'I' for Inactive)
REMARK    1  A    between atoms: C20_25  and  N2_5 
REMARK    2  A    between atoms: C9_14  and  N2_5 
REMARK    3  A    between atoms: C15_20  and  C6_11 
REMARK    4  A    between atoms: C15_20  and  C19_24 
ROOT
HETATM    1  O1  UNK     1      30.728  -9.188  36.071  1.00  0.00    -0.286 OA
HETATM    2  O2  UNK     1      30.058  -8.183  28.715  1.00  0.00    -0.267 OA
HETATM    3  N1  UNK     1      28.950  -7.475  30.619  1.00  0.00    -0.317 N 
HETATM    4  C1  UNK     1      29.583  -8.493  32.731  1.00  0.00     0.020 A 
HETATM    5  C2  UNK     1      30.365  -9.539  32.024  1.00  0.00     0.008 C 
HETATM    6  C3  UNK     1      29.612  -8.449  34.137  1.00  0.00     0.055 A 
HETATM    7  C4  UNK     1      28.849  -7.524  32.036  1.00  0.00     0.049 A 
HETATM    8  C5  UNK     1      30.867 -10.715  32.809  1.00  0.00    -0.010 A 
HETATM    9  C6  UNK     1      30.608  -9.319  30.711  1.00  0.00     0.095 C 
HETATM   10  C7  UNK     1      30.972 -10.601  34.206  1.00  0.00     0.026 A 
HETATM   11  C8  UNK     1      30.468  -9.391  34.891  1.00  0.00     0.196 C 
HETATM   12  C9  UNK     1      28.865  -7.504  34.845  1.00  0.00     0.048 A 
HETATM   13  C10 UNK     1      29.854  -8.275  29.928  1.00  0.00     0.263 C 
HETATM   14  C11 UNK     1      28.080  -6.594  32.758  1.00  0.00     0.033 A 
HETATM   15  C12 UNK     1      28.085  -6.590  34.151  1.00  0.00     0.033 A 
HETATM   16  C13 UNK     1      31.122 -11.980  32.252  1.00  0.00     0.013 A 
HETATM   17  C14 UNK     1      31.454 -11.658  34.993  1.00  0.00     0.016 A 
HETATM   18  C16 UNK     1      28.156  -6.497  29.879  1.00  0.00     0.159 C 
HETATM   19  C17 UNK     1      31.595 -13.040  33.032  1.00  0.00     0.001 A 
HETATM   20  C18 UNK     1      31.783 -12.873  34.398  1.00  0.00     0.001 A 
ENDROOT
BRANCH   9  21
HETATM   21  C15 UNK     1      31.638 -10.083  29.974  1.00  0.00     0.198 C 
HETATM   22  O3  UNK     1      31.304 -10.972  29.201  1.00  0.00    -0.286 OA
BRANCH  21  23
HETATM   23  C19 UNK     1      33.061  -9.736  30.175  1.00  0.00     0.015 A 
HETATM   24  C21 UNK     1      33.904 -10.665  30.758  1.00  0.00     0.015 A 
HETATM   25  C25 UNK     1      35.247 -10.337  30.949  1.00  0.00     0.001 A 
HETATM   26  C29 UNK     1      35.722  -9.086  30.554  1.00  0.00     0.000 A 
HETATM   27  C26 UNK     1      34.855  -8.164  29.968  1.00  0.00     0.001 A 
HETATM   28  C22 UNK     1      33.513  -8.492  29.777  1.00  0.00     0.015 A 
ENDBRANCH  21  23
ENDBRANCH   9  21
BRANCH  12  29
HETATM   29  N2  UNK     1      28.833  -7.444  36.256  1.00  0.00    -0.355 N 
HETATM   30  H8  UNK     1      28.520  -8.304  36.695  1.00  0.00     0.166 HD
BRANCH  29  31
HETATM   31  C20 UNK     1      29.091  -6.405  37.170  1.00  0.00     0.032 A 
HETATM   32  C23 UNK     1      28.405  -6.356  38.386  1.00  0.00     0.029 A 
HETATM   33  C27 UNK     1      28.661  -5.328  39.293  1.00  0.00     0.002 A 
HETATM   34  C30 UNK     1      29.603  -4.345  38.986  1.00  0.00     0.000 A 
HETATM   35  C28 UNK     1      30.289  -4.391  37.772  1.00  0.00     0.002 A 
HETATM   36  C24 UNK     1      30.033  -5.420  36.865  1.00  0.00     0.029 A 
ENDBRANCH  29  31
ENDBRANCH  12  29
TORSDOF 4
ENDMDL
MODEL 10
REMARK VINA RESULT:      -8.6     29.054     32.329
REMARK  4 active torsions:
REMARK  status: ('A' for Active; 'I' for Inactive)
REMARK    1  A    between atoms: C20_25  and  N2_5 
REMARK    2  A    between atoms: C9_14  and  N2_5 
REMARK    3  A    between atoms: C15_20  and  C6_11 
REMARK    4  A    between atoms: C15_20  and  C19_24 
ROOT
HETATM    1  O1  UNK     1      21.653  12.175  13.815  1.00  0.00    -0.286 OA
HETATM    2  O2  UNK     1      17.278  12.660   7.800  1.00  0.00    -0.267 OA
HETATM    3  N1  UNK     1      19.535  12.872   8.261  1.00  0.00    -0.317 N 
HETATM    4  C1  UNK     1      20.209  12.875  10.595  1.00  0.00     0.020 A 
HETATM    5  C2  UNK     1      18.797  13.025  11.030  1.00  0.00     0.008 C 
HETATM    6  C3  UNK     1      21.211  12.703  11.566  1.00  0.00     0.055 A 
HETATM    7  C4  UNK     1      20.565  12.859   9.241  1.00  0.00     0.049 A 
HETATM    8  C5  UNK     1      18.520  13.343  12.470  1.00  0.00    -0.010 A 
HETATM    9  C6  UNK     1      17.853  12.811  10.085  1.00  0.00     0.095 C 
HETATM   10  C7  UNK     1      19.512  13.070  13.427  1.00  0.00     0.026 A 
HETATM   11  C8  UNK     1      20.848  12.604  12.997  1.00  0.00     0.196 C 
HETATM   12  C9  UNK     1      22.557  12.592  11.204  1.00  0.00     0.048 A 
HETATM   13  C10 UNK     1      18.194  12.769   8.618  1.00  0.00     0.263 C 
HETATM   14  C11 UNK     1      21.924  12.773   8.887  1.00  0.00     0.033 A 
HETATM   15  C12 UNK     1      22.910  12.647   9.863  1.00  0.00     0.033 A 
HETATM   16  C13 UNK     1      17.373  14.020  12.918  1.00  0.00     0.013 A 
HETATM   17  C14 UNK     1      19.304  13.325  14.791  1.00  0.00     0.016 A 
HETATM   18  C16 UNK     1      19.895  12.900   6.845  1.00  0.00     0.159 C 
HETATM   19  C17 UNK     1      17.163  14.286  14.275  1.00  0.00     0.001 A 
HETATM   20  C18 UNK     1      18.118  13.918  15.214  1.00  0.00     0.001 A 
ENDROOT
BRANCH   9  21
HETATM   21  C15 UNK     1      16.434  12.594  10.440  1.00  0.00     0.198 C 
HETATM   22  O3  UNK     1      15.639  13.523  10.381  1.00  0.00    -0.286 OA
BRANCH  21  23
HETATM   23  C19 UNK     1      16.001  11.239  10.844  1.00  0.00     0.015 A 
HETATM   24  C21 UNK     1      16.703  10.142  10.380  1.00  0.00     0.015 A 
HETATM   25  C25 UNK     1      16.294   8.864  10.760  1.00  0.00     0.001 A 
HETATM   26  C29 UNK     1      15.189   8.705  11.596  1.00  0.00     0.000 A 
HETATM   27  C26 UNK     1      14.494   9.824  12.054  1.00  0.00     0.001 A 
HETATM   28  C22 UNK     1      14.903  11.103  11.674  1.00  0.00     0.015 A 
ENDBRANCH  21  23
ENDBRANCH   9  21
BRANCH  12  29
HETATM   29  N2  UNK     1      23.602  12.456  12.145  1.00  0.00    -0.355 N 
HETATM   30  H8  UNK     1      23.320  12.651  13.101  1.00  0.00     0.166 HD
BRANCH  29  31
HETATM   31  C20 UNK     1      24.971  12.162  12.009  1.00  0.00     0.032 A 
HETATM   32  C23 UNK     1      25.388  10.845  11.803  1.00  0.00     0.029 A 
HETATM   33  C27 UNK     1      26.746  10.554  11.667  1.00  0.00     0.002 A 
HETATM   34  C30 UNK     1      27.690  11.580  11.738  1.00  0.00     0.000 A 
HETATM   35  C28 UNK     1      27.276  12.896  11.944  1.00  0.00     0.002 A 
HETATM   36  C24 UNK     1      25.918  13.186  12.080  1.00  0.00     0.029 A 
ENDBRANCH  29  31
ENDBRANCH  12  29
TORSDOF 4
ENDMDL
