MODEL 1
REMARK VINA RESULT:      -9.5      0.000      0.000
REMARK  8 active torsions:
REMARK  status: ('A' for Active; 'I' for Inactive)
REMARK    1  A    between atoms: C12_18  and  O2_2 
REMARK    2  A    between atoms: C2_8  and  O2_2 
REMARK    3  A    between atoms: C15_21  and  O3_3 
REMARK    4  A    between atoms: C16_22  and  O5_5 
REMARK    5  A    between atoms: C1_7  and  C4_10 
REMARK    6  A    between atoms: C6_12  and  C8_14 
REMARK    7  A    between atoms: C6_12  and  C9_15 
REMARK    8  A    between atoms: C12_18  and  C8_14 
ROOT
HETATM    1  O1  UNK     1      18.935  -2.020  37.430  1.00  0.00    -0.306 OA
HETATM    2  O4  UNK     1      18.911  -0.503  33.648  1.00  0.00    -0.284 OA
HETATM    3  C1  UNK     1      19.450  -2.735  36.360  1.00  0.00     0.124 A 
HETATM    4  C2  UNK     1      19.467  -2.299  35.088  1.00  0.00     0.164 A 
HETATM    5  C3  UNK     1      18.391  -0.193  35.927  1.00  0.00     0.051 A 
HETATM    6  C5  UNK     1      18.425  -0.769  37.195  1.00  0.00     0.090 A 
HETATM    7  C7  UNK     1      18.921  -0.954  34.785  1.00  0.00     0.221 A 
HETATM    8  C13 UNK     1      17.858   1.085  35.747  1.00  0.00     0.018 A 
HETATM    9  C14 UNK     1      17.925  -0.068  38.293  1.00  0.00     0.038 A 
HETATM   10  C18 UNK     1      17.359   1.785  36.847  1.00  0.00     0.001 A 
HETATM   11  C19 UNK     1      17.392   1.209  38.118  1.00  0.00     0.003 A 
ENDROOT
BRANCH   4  12
HETATM   12  O2  UNK     1      19.958  -3.050  34.042  1.00  0.00    -0.272 OA
BRANCH  12  13
HETATM   13  C12 UNK     1      20.980  -2.449  33.346  1.00  0.00     0.264 C 
HETATM   14  O6  UNK     1      22.050  -2.062  33.800  1.00  0.00    -0.265 OA
BRANCH  13  15
HETATM   15  C8  UNK     1      20.574  -2.350  31.891  1.00  0.00     0.116 C 
BRANCH  15  16
HETATM   16  C6  UNK     1      21.248  -1.173  31.187  1.00  0.00     0.048 C 
BRANCH  16  17
HETATM   17  C9  UNK     1      20.306  -0.475  30.241  1.00  0.00    -0.058 A 
HETATM   18  C20 UNK     1      20.102  -0.996  28.972  1.00  0.00     0.007 A 
HETATM   19  C22 UNK     1      19.230  -0.350  28.095  1.00  0.00     0.001 A 
HETATM   20  C24 UNK     1      18.571   0.811  28.499  1.00  0.00     0.000 A 
HETATM   21  C23 UNK     1      18.784   1.326  29.777  1.00  0.00     0.001 A 
HETATM   22  C21 UNK     1      19.656   0.680  30.653  1.00  0.00     0.007 A 
ENDBRANCH  16  17
ENDBRANCH  15  16
ENDBRANCH  13  15
ENDBRANCH  12  13
ENDBRANCH   4  12
BRANCH   3  23
HETATM   23  C4  UNK     1      19.966  -4.059  36.750  1.00  0.00     0.004 A 
HETATM   24  C10 UNK     1      19.307  -5.216  36.334  1.00  0.00     0.054 A 
HETATM   25  C15 UNK     1      19.795  -6.469  36.703  1.00  0.00     0.102 A 
HETATM   26  C16 UNK     1      20.943  -6.566  37.488  1.00  0.00     0.101 A 
HETATM   27  C17 UNK     1      21.603  -5.410  37.905  1.00  0.00     0.040 A 
HETATM   28  C11 UNK     1      21.115  -4.157  37.535  1.00  0.00     0.017 A 
BRANCH  25  29
HETATM   29  O3  UNK     1      19.142  -7.591  36.290  1.00  0.00    -0.353 OA
HETATM   30  C25 UNK     1      17.937  -7.404  35.549  1.00  0.00     0.210 C 
ENDBRANCH  25  29
BRANCH  26  31
HETATM   31  O5  UNK     1      21.430  -7.784  37.856  1.00  0.00    -0.353 OA
HETATM   32  C26 UNK     1      21.677  -7.990  39.246  1.00  0.00     0.210 C 
ENDBRANCH  26  31
ENDBRANCH   3  23
TORSDOF 8
ENDMDL
MODEL 2
REMARK VINA RESULT:      -9.2     10.343     13.800
REMARK  8 active torsions:
REMARK  status: ('A' for Active; 'I' for Inactive)
REMARK    1  A    between atoms: C12_18  and  O2_2 
REMARK    2  A    between atoms: C2_8  and  O2_2 
REMARK    3  A    between atoms: C15_21  and  O3_3 
REMARK    4  A    between atoms: C16_22  and  O5_5 
REMARK    5  A    between atoms: C1_7  and  C4_10 
REMARK    6  A    between atoms: C6_12  and  C8_14 
REMARK    7  A    between atoms: C6_12  and  C9_15 
REMARK    8  A    between atoms: C12_18  and  C8_14 
ROOT
HETATM    1  O1  UNK     1      29.370  -6.516  35.137  1.00  0.00    -0.306 OA
HETATM    2  O4  UNK     1      31.947  -4.214  37.297  1.00  0.00    -0.284 OA
HETATM    3  C1  UNK     1      30.457  -5.895  34.543  1.00  0.00     0.124 A 
HETATM    4  C2  UNK     1      31.341  -5.118  35.193  1.00  0.00     0.164 A 
HETATM    5  C3  UNK     1      30.028  -5.584  37.280  1.00  0.00     0.051 A 
HETATM    6  C5  UNK     1      29.181  -6.355  36.485  1.00  0.00     0.090 A 
HETATM    7  C7  UNK     1      31.174  -4.910  36.652  1.00  0.00     0.221 A 
HETATM    8  C13 UNK     1      29.786  -5.455  38.649  1.00  0.00     0.018 A 
HETATM    9  C14 UNK     1      28.086  -7.002  37.058  1.00  0.00     0.038 A 
HETATM   10  C18 UNK     1      28.689  -6.104  39.219  1.00  0.00     0.001 A 
HETATM   11  C19 UNK     1      27.841  -6.876  38.425  1.00  0.00     0.003 A 
ENDROOT
BRANCH   4  12
HETATM   12  O2  UNK     1      32.394  -4.488  34.565  1.00  0.00    -0.272 OA
BRANCH  12  13
HETATM   13  C12 UNK     1      33.633  -4.961  34.928  1.00  0.00     0.264 C 
HETATM   14  O6  UNK     1      34.487  -4.364  35.573  1.00  0.00    -0.265 OA
BRANCH  13  15
HETATM   15  C8  UNK     1      33.778  -6.374  34.406  1.00  0.00     0.116 C 
BRANCH  15  16
HETATM   16  C6  UNK     1      34.366  -7.315  35.455  1.00  0.00     0.048 C 
BRANCH  16  17
HETATM   17  C9  UNK     1      33.295  -7.925  36.322  1.00  0.00    -0.058 A 
HETATM   18  C20 UNK     1      32.388  -8.812  35.762  1.00  0.00     0.007 A 
HETATM   19  C22 UNK     1      31.395  -9.377  36.564  1.00  0.00     0.001 A 
HETATM   20  C24 UNK     1      31.322  -9.048  37.917  1.00  0.00     0.000 A 
HETATM   21  C23 UNK     1      32.239  -8.154  38.468  1.00  0.00     0.001 A 
HETATM   22  C21 UNK     1      33.231  -7.589  37.666  1.00  0.00     0.007 A 
ENDBRANCH  16  17
ENDBRANCH  15  16
ENDBRANCH  13  15
ENDBRANCH  12  13
ENDBRANCH   4  12
BRANCH   3  23
HETATM   23  C4  UNK     1      30.544  -6.151  33.095  1.00  0.00     0.004 A 
HETATM   24  C10 UNK     1      30.213  -5.145  32.186  1.00  0.00     0.054 A 
HETATM   25  C15 UNK     1      30.294  -5.388  30.815  1.00  0.00     0.102 A 
HETATM   26  C16 UNK     1      30.708  -6.636  30.352  1.00  0.00     0.101 A 
HETATM   27  C17 UNK     1      31.039  -7.643  31.259  1.00  0.00     0.040 A 
HETATM   28  C11 UNK     1      30.957  -7.400  32.630  1.00  0.00     0.017 A 
BRANCH  25  29
HETATM   29  O3  UNK     1      29.968  -4.397  29.939  1.00  0.00    -0.353 OA
HETATM   30  C25 UNK     1      30.041  -3.056  30.421  1.00  0.00     0.210 C 
ENDBRANCH  25  29
BRANCH  26  31
HETATM   31  O5  UNK     1      30.792  -6.886  29.015  1.00  0.00    -0.353 OA
HETATM   32  C26 UNK     1      30.647  -8.243  28.599  1.00  0.00     0.210 C 
ENDBRANCH  26  31
ENDBRANCH   3  23
TORSDOF 8
ENDMDL
MODEL 3
REMARK VINA RESULT:      -9.2      3.975      6.780
REMARK  8 active torsions:
REMARK  status: ('A' for Active; 'I' for Inactive)
REMARK    1  A    between atoms: C12_18  and  O2_2 
REMARK    2  A    between atoms: C2_8  and  O2_2 
REMARK    3  A    between atoms: C15_21  and  O3_3 
REMARK    4  A    between atoms: C16_22  and  O5_5 
REMARK    5  A    between atoms: C1_7  and  C4_10 
REMARK    6  A    between atoms: C6_12  and  C8_14 
REMARK    7  A    between atoms: C6_12  and  C9_15 
REMARK    8  A    between atoms: C12_18  and  C8_14 
ROOT
HETATM    1  O1  UNK     1      17.516   5.139  34.543  1.00  0.00    -0.306 OA
HETATM    2  O4  UNK     1      18.505   6.027  30.692  1.00  0.00    -0.284 OA
HETATM    3  C1  UNK     1      18.116   4.202  33.717  1.00  0.00     0.124 A 
HETATM    4  C2  UNK     1      18.462   4.426  32.436  1.00  0.00     0.164 A 
HETATM    5  C3  UNK     1      17.588   6.759  32.737  1.00  0.00     0.051 A 
HETATM    6  C5  UNK     1      17.271   6.391  34.043  1.00  0.00     0.090 A 
HETATM    7  C7  UNK     1      18.211   5.765  31.850  1.00  0.00     0.221 A 
HETATM    8  C13 UNK     1      17.315   8.051  32.282  1.00  0.00     0.018 A 
HETATM    9  C14 UNK     1      16.677   7.316  34.903  1.00  0.00     0.038 A 
HETATM   10  C18 UNK     1      16.721   8.974  33.144  1.00  0.00     0.001 A 
HETATM   11  C19 UNK     1      16.402   8.607  34.452  1.00  0.00     0.003 A 
ENDROOT
BRANCH   4  12
HETATM   12  O2  UNK     1      19.029   3.462  31.631  1.00  0.00    -0.272 OA
BRANCH  12  13
HETATM   13  C12 UNK     1      18.173   2.937  30.691  1.00  0.00     0.264 C 
HETATM   14  O6  UNK     1      16.966   2.767  30.809  1.00  0.00    -0.265 OA
BRANCH  13  15
HETATM   15  C8  UNK     1      18.973   2.604  29.449  1.00  0.00     0.116 C 
BRANCH  15  16
HETATM   16  C6  UNK     1      18.576   1.254  28.856  1.00  0.00     0.048 C 
BRANCH  16  17
HETATM   17  C9  UNK     1      19.294   0.115  29.531  1.00  0.00    -0.058 A 
HETATM   18  C20 UNK     1      19.959  -0.827  28.759  1.00  0.00     0.007 A 
HETATM   19  C22 UNK     1      20.624  -1.882  29.384  1.00  0.00     0.001 A 
HETATM   20  C24 UNK     1      20.617  -1.984  30.775  1.00  0.00     0.000 A 
HETATM   21  C23 UNK     1      19.944  -1.032  31.541  1.00  0.00     0.001 A 
HETATM   22  C21 UNK     1      19.279   0.023  30.916  1.00  0.00     0.007 A 
ENDBRANCH  16  17
ENDBRANCH  15  16
ENDBRANCH  13  15
ENDBRANCH  12  13
ENDBRANCH   4  12
BRANCH   3  23
HETATM   23  C4  UNK     1      18.323   2.902  34.376  1.00  0.00     0.004 A 
HETATM   24  C10 UNK     1      17.682   1.762  33.891  1.00  0.00     0.054 A 
HETATM   25  C15 UNK     1      17.878   0.531  34.516  1.00  0.00     0.102 A 
HETATM   26  C16 UNK     1      18.715   0.439  35.627  1.00  0.00     0.101 A 
HETATM   27  C17 UNK     1      19.357   1.578  36.114  1.00  0.00     0.040 A 
HETATM   28  C11 UNK     1      19.161   2.809  35.488  1.00  0.00     0.017 A 
BRANCH  25  29
HETATM   29  O3  UNK     1      17.247  -0.575  34.031  1.00  0.00    -0.353 OA
HETATM   30  C25 UNK     1      16.000  -0.924  34.631  1.00  0.00     0.210 C 
ENDBRANCH  25  29
BRANCH  26  31
HETATM   31  O5  UNK     1      18.915  -0.758  36.247  1.00  0.00    -0.353 OA
HETATM   32  C26 UNK     1      18.183  -0.995  37.449  1.00  0.00     0.210 C 
ENDBRANCH  26  31
ENDBRANCH   3  23
TORSDOF 8
ENDMDL
MODEL 4
REMARK VINA RESULT:      -9.1      9.406     12.888
REMARK  8 active torsions:
REMARK  status: ('A' for Active; 'I' for Inactive)
REMARK    1  A    between atoms: C12_18  and  O2_2 
REMARK    2  A    between atoms: C2_8  and  O2_2 
REMARK    3  A    between atoms: C15_21  and  O3_3 
REMARK    4  A    between atoms: C16_22  and  O5_5 
REMARK    5  A    between atoms: C1_7  and  C4_10 
REMARK    6  A    between atoms: C6_12  and  C8_14 
REMARK    7  A    between atoms: C6_12  and  C9_15 
REMARK    8  A    between atoms: C12_18  and  C8_14 
ROOT
HETATM    1  O1  UNK     1      28.062  -7.768  35.520  1.00  0.00    -0.306 OA
HETATM    2  O4  UNK     1      30.784  -4.920  36.561  1.00  0.00    -0.284 OA
HETATM    3  C1  UNK     1      28.899  -7.190  34.579  1.00  0.00     0.124 A 
HETATM    4  C2  UNK     1      29.814  -6.242  34.852  1.00  0.00     0.164 A 
HETATM    5  C3  UNK     1      29.088  -6.408  37.249  1.00  0.00     0.051 A 
HETATM    6  C5  UNK     1      28.176  -7.373  36.828  1.00  0.00     0.090 A 
HETATM    7  C7  UNK     1      29.969  -5.779  36.253  1.00  0.00     0.221 A 
HETATM    8  C13 UNK     1      29.160  -6.044  38.595  1.00  0.00     0.018 A 
HETATM    9  C14 UNK     1      27.328  -7.982  37.754  1.00  0.00     0.038 A 
HETATM   10  C18 UNK     1      28.311  -6.655  39.520  1.00  0.00     0.001 A 
HETATM   11  C19 UNK     1      27.397  -7.622  39.100  1.00  0.00     0.003 A 
ENDROOT
BRANCH   4  12
HETATM   12  O2  UNK     1      30.609  -5.664  33.887  1.00  0.00    -0.272 OA
BRANCH  12  13
HETATM   13  C12 UNK     1      31.951  -5.923  34.031  1.00  0.00     0.264 C 
HETATM   14  O6  UNK     1      32.819  -5.131  34.377  1.00  0.00    -0.265 OA
BRANCH  13  15
HETATM   15  C8  UNK     1      32.196  -7.379  33.699  1.00  0.00     0.116 C 
BRANCH  15  16
HETATM   16  C6  UNK     1      33.166  -8.036  34.681  1.00  0.00     0.048 C 
BRANCH  16  17
HETATM   17  C9  UNK     1      32.475  -8.453  35.952  1.00  0.00    -0.058 A 
HETATM   18  C20 UNK     1      31.500  -9.439  35.908  1.00  0.00     0.007 A 
HETATM   19  C22 UNK     1      30.860  -9.827  37.085  1.00  0.00     0.001 A 
HETATM   20  C24 UNK     1      31.202  -9.223  38.295  1.00  0.00     0.000 A 
HETATM   21  C23 UNK     1      32.183  -8.232  38.327  1.00  0.00     0.001 A 
HETATM   22  C21 UNK     1      32.823  -7.845  37.150  1.00  0.00     0.007 A 
ENDBRANCH  16  17
ENDBRANCH  15  16
ENDBRANCH  13  15
ENDBRANCH  12  13
ENDBRANCH   4  12
BRANCH   3  23
HETATM   23  C4  UNK     1      28.674  -7.703  33.217  1.00  0.00     0.004 A 
HETATM   24  C10 UNK     1      28.030  -6.909  32.268  1.00  0.00     0.054 A 
HETATM   25  C15 UNK     1      27.817  -7.395  30.979  1.00  0.00     0.102 A 
HETATM   26  C16 UNK     1      28.248  -8.677  30.637  1.00  0.00     0.101 A 
HETATM   27  C17 UNK     1      28.892  -9.472  31.585  1.00  0.00     0.040 A 
HETATM   28  C11 UNK     1      29.105  -8.985  32.874  1.00  0.00     0.017 A 
BRANCH  25  29
HETATM   29  O3  UNK     1      27.187  -6.609  30.062  1.00  0.00    -0.353 OA
HETATM   30  C25 UNK     1      25.771  -6.480  30.183  1.00  0.00     0.210 C 
ENDBRANCH  25  29
BRANCH  26  31
HETATM   31  O5  UNK     1      28.046  -9.163  29.381  1.00  0.00    -0.353 OA
HETATM   32  C26 UNK     1      29.206  -9.506  28.624  1.00  0.00     0.210 C 
ENDBRANCH  26  31
ENDBRANCH   3  23
TORSDOF 8
ENDMDL
MODEL 5
REMARK VINA RESULT:      -9.1     10.390     13.485
REMARK  8 active torsions:
REMARK  status: ('A' for Active; 'I' for Inactive)
REMARK    1  A    between atoms: C12_18  and  O2_2 
REMARK    2  A    between atoms: C2_8  and  O2_2 
REMARK    3  A    between atoms: C15_21  and  O3_3 
REMARK    4  A    between atoms: C16_22  and  O5_5 
REMARK    5  A    between atoms: C1_7  and  C4_10 
REMARK    6  A    between atoms: C6_12  and  C8_14 
REMARK    7  A    between atoms: C6_12  and  C9_15 
REMARK    8  A    between atoms: C12_18  and  C8_14 
ROOT
HETATM    1  O1  UNK     1      28.851  -6.860  35.325  1.00  0.00    -0.306 OA
HETATM    2  O4  UNK     1      31.544  -4.508  37.280  1.00  0.00    -0.284 OA
HETATM    3  C1  UNK     1      29.905  -6.257  34.656  1.00  0.00     0.124 A 
HETATM    4  C2  UNK     1      30.824  -5.465  35.237  1.00  0.00     0.164 A 
HETATM    5  C3  UNK     1      29.626  -5.873  37.403  1.00  0.00     0.051 A 
HETATM    6  C5  UNK     1      28.736  -6.663  36.676  1.00  0.00     0.090 A 
HETATM    7  C7  UNK     1      30.736  -5.219  36.696  1.00  0.00     0.221 A 
HETATM    8  C13 UNK     1      29.458  -5.708  38.780  1.00  0.00     0.018 A 
HETATM    9  C14 UNK     1      27.673  -7.292  37.324  1.00  0.00     0.038 A 
HETATM   10  C18 UNK     1      28.394  -6.339  39.426  1.00  0.00     0.001 A 
HETATM   11  C19 UNK     1      27.503  -7.130  38.699  1.00  0.00     0.003 A 
ENDROOT
BRANCH   4  12
HETATM   12  O2  UNK     1      31.842  -4.855  34.536  1.00  0.00    -0.272 OA
BRANCH  12  13
HETATM   13  C12 UNK     1      33.096  -5.337  34.826  1.00  0.00     0.264 C 
HETATM   14  O6  UNK     1      33.983  -4.755  35.438  1.00  0.00    -0.265 OA
BRANCH  13  15
HETATM   15  C8  UNK     1      33.210  -6.740  34.270  1.00  0.00     0.116 C 
BRANCH  15  16
HETATM   16  C6  UNK     1      33.867  -7.698  35.262  1.00  0.00     0.048 C 
BRANCH  16  17
HETATM   17  C9  UNK     1      32.872  -8.244  36.253  1.00  0.00    -0.058 A 
HETATM   18  C20 UNK     1      31.893  -9.127  35.821  1.00  0.00     0.007 A 
HETATM   19  C22 UNK     1      30.971  -9.632  36.739  1.00  0.00     0.001 A 
HETATM   20  C24 UNK     1      31.039  -9.249  38.078  1.00  0.00     0.000 A 
HETATM   21  C23 UNK     1      32.028  -8.360  38.500  1.00  0.00     0.001 A 
HETATM   22  C21 UNK     1      32.949  -7.855  37.582  1.00  0.00     0.007 A 
ENDBRANCH  16  17
ENDBRANCH  15  16
ENDBRANCH  13  15
ENDBRANCH  12  13
ENDBRANCH   4  12
BRANCH   3  23
HETATM   23  C4  UNK     1      29.913  -6.551  33.213  1.00  0.00     0.004 A 
HETATM   24  C10 UNK     1      30.108  -7.859  32.766  1.00  0.00     0.054 A 
HETATM   25  C15 UNK     1      30.115  -8.136  31.400  1.00  0.00     0.102 A 
HETATM   26  C16 UNK     1      29.928  -7.106  30.478  1.00  0.00     0.101 A 
HETATM   27  C17 UNK     1      29.733  -5.799  30.923  1.00  0.00     0.040 A 
HETATM   28  C11 UNK     1      29.725  -5.522  32.290  1.00  0.00     0.017 A 
BRANCH  25  29
HETATM   29  O3  UNK     1      30.306  -9.417  30.977  1.00  0.00    -0.353 OA
HETATM   30  C25 UNK     1      29.934 -10.459  31.878  1.00  0.00     0.210 C 
ENDBRANCH  25  29
BRANCH  26  31
HETATM   31  O5  UNK     1      29.933  -7.365  29.140  1.00  0.00    -0.353 OA
HETATM   32  C26 UNK     1      31.193  -7.301  28.473  1.00  0.00     0.210 C 
ENDBRANCH  26  31
ENDBRANCH   3  23
TORSDOF 8
ENDMDL
MODEL 6
REMARK VINA RESULT:      -9.0      4.846      8.124
REMARK  8 active torsions:
REMARK  status: ('A' for Active; 'I' for Inactive)
REMARK    1  A    between atoms: C12_18  and  O2_2 
REMARK    2  A    between atoms: C2_8  and  O2_2 
REMARK    3  A    between atoms: C15_21  and  O3_3 
REMARK    4  A    between atoms: C16_22  and  O5_5 
REMARK    5  A    between atoms: C1_7  and  C4_10 
REMARK    6  A    between atoms: C6_12  and  C8_14 
REMARK    7  A    between atoms: C6_12  and  C9_15 
REMARK    8  A    between atoms: C12_18  and  C8_14 
ROOT
HETATM    1  O1  UNK     1      19.198   0.016  32.498  1.00  0.00    -0.306 OA
HETATM    2  O4  UNK     1      18.433   2.709  29.537  1.00  0.00    -0.284 OA
HETATM    3  C1  UNK     1      18.524   1.200  32.754  1.00  0.00     0.124 A 
HETATM    4  C2  UNK     1      18.245   2.134  31.827  1.00  0.00     0.164 A 
HETATM    5  C3  UNK     1      19.360   0.631  30.156  1.00  0.00     0.051 A 
HETATM    6  C5  UNK     1      19.594  -0.247  31.212  1.00  0.00     0.090 A 
HETATM    7  C7  UNK     1      18.660   1.896  30.423  1.00  0.00     0.221 A 
HETATM    8  C13 UNK     1      19.788   0.310  28.865  1.00  0.00     0.018 A 
HETATM    9  C14 UNK     1      20.259  -1.452  30.984  1.00  0.00     0.038 A 
HETATM   10  C18 UNK     1      20.452  -0.897  28.639  1.00  0.00     0.001 A 
HETATM   11  C19 UNK     1      20.687  -1.776  29.697  1.00  0.00     0.003 A 
ENDROOT
BRANCH   4  12
HETATM   12  O2  UNK     1      17.602   3.316  32.121  1.00  0.00    -0.272 OA
BRANCH  12  13
HETATM   13  C12 UNK     1      18.436   4.405  32.215  1.00  0.00     0.264 C 
HETATM   14  O6  UNK     1      19.292   4.747  31.407  1.00  0.00    -0.265 OA
BRANCH  13  15
HETATM   15  C8  UNK     1      18.117   5.144  33.497  1.00  0.00     0.116 C 
BRANCH  15  16
HETATM   16  C6  UNK     1      19.309   5.954  34.004  1.00  0.00     0.048 C 
BRANCH  16  17
HETATM   17  C9  UNK     1      19.020   7.433  34.002  1.00  0.00    -0.058 A 
HETATM   18  C20 UNK     1      20.018   8.323  34.370  1.00  0.00     0.007 A 
HETATM   19  C22 UNK     1      19.751   9.692  34.369  1.00  0.00     0.001 A 
HETATM   20  C24 UNK     1      18.488  10.156  34.000  1.00  0.00     0.000 A 
HETATM   21  C23 UNK     1      17.493   9.251  33.633  1.00  0.00     0.001 A 
HETATM   22  C21 UNK     1      17.760   7.882  33.634  1.00  0.00     0.007 A 
ENDBRANCH  16  17
ENDBRANCH  15  16
ENDBRANCH  13  15
ENDBRANCH  12  13
ENDBRANCH   4  12
BRANCH   3  23
HETATM   23  C4  UNK     1      18.155   1.356  34.171  1.00  0.00     0.004 A 
HETATM   24  C10 UNK     1      16.980   0.781  34.655  1.00  0.00     0.054 A 
HETATM   25  C15 UNK     1      16.630   0.930  35.997  1.00  0.00     0.102 A 
HETATM   26  C16 UNK     1      17.456   1.654  36.856  1.00  0.00     0.101 A 
HETATM   27  C17 UNK     1      18.631   2.230  36.374  1.00  0.00     0.040 A 
HETATM   28  C11 UNK     1      18.981   2.080  35.032  1.00  0.00     0.017 A 
BRANCH  25  29
HETATM   29  O3  UNK     1      15.480   0.363  36.456  1.00  0.00    -0.353 OA
HETATM   30  C25 UNK     1      14.460   1.247  36.918  1.00  0.00     0.210 C 
ENDBRANCH  25  29
BRANCH  26  31
HETATM   31  O5  UNK     1      17.125   1.806  38.169  1.00  0.00    -0.353 OA
HETATM   32  C26 UNK     1      17.891   1.068  39.119  1.00  0.00     0.210 C 
ENDBRANCH  26  31
ENDBRANCH   3  23
TORSDOF 8
ENDMDL
MODEL 7
REMARK VINA RESULT:      -9.0     10.567     13.191
REMARK  8 active torsions:
REMARK  status: ('A' for Active; 'I' for Inactive)
REMARK    1  A    between atoms: C12_18  and  O2_2 
REMARK    2  A    between atoms: C2_8  and  O2_2 
REMARK    3  A    between atoms: C15_21  and  O3_3 
REMARK    4  A    between atoms: C16_22  and  O5_5 
REMARK    5  A    between atoms: C1_7  and  C4_10 
REMARK    6  A    between atoms: C6_12  and  C8_14 
REMARK    7  A    between atoms: C6_12  and  C9_15 
REMARK    8  A    between atoms: C12_18  and  C8_14 
ROOT
HETATM    1  O1  UNK     1      28.135  -8.443  35.523  1.00  0.00    -0.306 OA
HETATM    2  O4  UNK     1      30.105  -5.086  36.728  1.00  0.00    -0.284 OA
HETATM    3  C1  UNK     1      28.854  -7.666  34.628  1.00  0.00     0.124 A 
HETATM    4  C2  UNK     1      29.520  -6.544  34.957  1.00  0.00     0.164 A 
HETATM    5  C3  UNK     1      28.765  -6.935  37.317  1.00  0.00     0.051 A 
HETATM    6  C5  UNK     1      28.110  -8.069  36.841  1.00  0.00     0.090 A 
HETATM    7  C7  UNK     1      29.516  -6.097  36.370  1.00  0.00     0.221 A 
HETATM    8  C13 UNK     1      28.703  -6.602  38.672  1.00  0.00     0.018 A 
HETATM    9  C14 UNK     1      27.388  -8.878  37.720  1.00  0.00     0.038 A 
HETATM   10  C18 UNK     1      27.982  -7.413  39.549  1.00  0.00     0.001 A 
HETATM   11  C19 UNK     1      27.325  -8.549  39.074  1.00  0.00     0.003 A 
ENDROOT
BRANCH   4  12
HETATM   12  O2  UNK     1      30.199  -5.776  34.036  1.00  0.00    -0.272 OA
BRANCH  12  13
HETATM   13  C12 UNK     1      31.562  -5.756  34.212  1.00  0.00     0.264 C 
HETATM   14  O6  UNK     1      32.237  -4.817  34.616  1.00  0.00    -0.265 OA
BRANCH  13  15
HETATM   15  C8  UNK     1      32.114  -7.113  33.831  1.00  0.00     0.116 C 
BRANCH  15  16
HETATM   16  C6  UNK     1      33.156  -7.610  34.831  1.00  0.00     0.048 C 
BRANCH  16  17
HETATM   17  C9  UNK     1      32.515  -8.247  36.036  1.00  0.00    -0.058 A 
HETATM   18  C20 UNK     1      31.787  -9.418  35.882  1.00  0.00     0.007 A 
HETATM   19  C22 UNK     1      31.193 -10.009  36.997  1.00  0.00     0.001 A 
HETATM   20  C24 UNK     1      31.333  -9.421  38.254  1.00  0.00     0.000 A 
HETATM   21  C23 UNK     1      32.066  -8.244  38.397  1.00  0.00     0.001 A 
HETATM   22  C21 UNK     1      32.660  -7.653  37.281  1.00  0.00     0.007 A 
ENDBRANCH  16  17
ENDBRANCH  15  16
ENDBRANCH  13  15
ENDBRANCH  12  13
ENDBRANCH   4  12
BRANCH   3  23
HETATM   23  C4  UNK     1      28.800  -8.179  33.249  1.00  0.00     0.004 A 
HETATM   24  C10 UNK     1      29.477  -9.352  32.912  1.00  0.00     0.054 A 
HETATM   25  C15 UNK     1      29.427  -9.837  31.606  1.00  0.00     0.102 A 
HETATM   26  C16 UNK     1      28.699  -9.150  30.635  1.00  0.00     0.101 A 
HETATM   27  C17 UNK     1      28.021  -7.978  30.970  1.00  0.00     0.040 A 
HETATM   28  C11 UNK     1      28.072  -7.493  32.276  1.00  0.00     0.017 A 
BRANCH  25  29
HETATM   29  O3  UNK     1      30.092 -10.983  31.291  1.00  0.00    -0.353 OA
HETATM   30  C25 UNK     1      31.517 -10.924  31.283  1.00  0.00     0.210 C 
ENDBRANCH  25  29
BRANCH  26  31
HETATM   31  O5  UNK     1      28.641  -9.614  29.355  1.00  0.00    -0.353 OA
HETATM   32  C26 UNK     1      29.653  -9.161  28.456  1.00  0.00     0.210 C 
ENDBRANCH  26  31
ENDBRANCH   3  23
TORSDOF 8
ENDMDL
MODEL 8
REMARK VINA RESULT:      -8.9     10.318     13.385
REMARK  8 active torsions:
REMARK  status: ('A' for Active; 'I' for Inactive)
REMARK    1  A    between atoms: C12_18  and  O2_2 
REMARK    2  A    between atoms: C2_8  and  O2_2 
REMARK    3  A    between atoms: C15_21  and  O3_3 
REMARK    4  A    between atoms: C16_22  and  O5_5 
REMARK    5  A    between atoms: C1_7  and  C4_10 
REMARK    6  A    between atoms: C6_12  and  C8_14 
REMARK    7  A    between atoms: C6_12  and  C9_15 
REMARK    8  A    between atoms: C12_18  and  C8_14 
ROOT
HETATM    1  O1  UNK     1      28.448  -8.137  36.495  1.00  0.00    -0.306 OA
HETATM    2  O4  UNK     1      30.974 -10.556  38.586  1.00  0.00    -0.284 OA
HETATM    3  C1  UNK     1      29.712  -8.446  36.019  1.00  0.00     0.124 A 
HETATM    4  C2  UNK     1      30.597  -9.231  36.660  1.00  0.00     0.164 A 
HETATM    5  C3  UNK     1      28.863  -9.515  38.450  1.00  0.00     0.051 A 
HETATM    6  C5  UNK     1      28.048  -8.678  37.689  1.00  0.00     0.090 A 
HETATM    7  C7  UNK     1      30.211  -9.833  37.958  1.00  0.00     0.221 A 
HETATM    8  C13 UNK     1      28.402 -10.037  39.660  1.00  0.00     0.018 A 
HETATM    9  C14 UNK     1      26.765  -8.359  38.136  1.00  0.00     0.038 A 
HETATM   10  C18 UNK     1      27.118  -9.717  40.105  1.00  0.00     0.001 A 
HETATM   11  C19 UNK     1      26.301  -8.879  39.344  1.00  0.00     0.003 A 
ENDROOT
BRANCH   4  12
HETATM   12  O2  UNK     1      31.860  -9.492  36.173  1.00  0.00    -0.272 OA
BRANCH  12  13
HETATM   13  C12 UNK     1      32.737  -8.438  36.283  1.00  0.00     0.264 C 
HETATM   14  O6  UNK     1      33.388  -7.927  35.380  1.00  0.00    -0.265 OA
BRANCH  13  15
HETATM   15  C8  UNK     1      32.764  -7.985  37.727  1.00  0.00     0.116 C 
BRANCH  15  16
HETATM   16  C6  UNK     1      33.030  -6.487  37.853  1.00  0.00     0.048 C 
BRANCH  16  17
HETATM   17  C9  UNK     1      31.752  -5.702  37.989  1.00  0.00    -0.058 A 
HETATM   18  C20 UNK     1      30.696  -6.237  38.712  1.00  0.00     0.007 A 
HETATM   19  C22 UNK     1      29.511  -5.510  38.838  1.00  0.00     0.001 A 
HETATM   20  C24 UNK     1      29.396  -4.256  38.239  1.00  0.00     0.000 A 
HETATM   21  C23 UNK     1      30.464  -3.729  37.514  1.00  0.00     0.001 A 
HETATM   22  C21 UNK     1      31.648  -4.455  37.388  1.00  0.00     0.007 A 
ENDBRANCH  16  17
ENDBRANCH  15  16
ENDBRANCH  13  15
ENDBRANCH  12  13
ENDBRANCH   4  12
BRANCH   3  23
HETATM   23  C4  UNK     1      30.014  -7.803  34.729  1.00  0.00     0.004 A 
HETATM   24  C10 UNK     1      29.994  -8.552  33.552  1.00  0.00     0.054 A 
HETATM   25  C15 UNK     1      30.280  -7.942  32.331  1.00  0.00     0.102 A 
HETATM   26  C16 UNK     1      30.586  -6.583  32.285  1.00  0.00     0.101 A 
HETATM   27  C17 UNK     1      30.607  -5.832  33.461  1.00  0.00     0.040 A 
HETATM   28  C11 UNK     1      30.320  -6.442  34.682  1.00  0.00     0.017 A 
BRANCH  25  29
HETATM   29  O3  UNK     1      30.257  -8.686  31.189  1.00  0.00    -0.353 OA
HETATM   30  C25 UNK     1      28.976  -9.013  30.655  1.00  0.00     0.210 C 
ENDBRANCH  25  29
BRANCH  26  31
HETATM   31  O5  UNK     1      30.868  -5.975  31.099  1.00  0.00    -0.353 OA
HETATM   32  C26 UNK     1      29.838  -5.173  30.522  1.00  0.00     0.210 C 
ENDBRANCH  26  31
ENDBRANCH   3  23
TORSDOF 8
ENDMDL
MODEL 9
REMARK VINA RESULT:      -8.9     16.039     20.304
REMARK  8 active torsions:
REMARK  status: ('A' for Active; 'I' for Inactive)
REMARK    1  A    between atoms: C12_18  and  O2_2 
REMARK    2  A    between atoms: C2_8  and  O2_2 
REMARK    3  A    between atoms: C15_21  and  O3_3 
REMARK    4  A    between atoms: C16_22  and  O5_5 
REMARK    5  A    between atoms: C1_7  and  C4_10 
REMARK    6  A    between atoms: C6_12  and  C8_14 
REMARK    7  A    between atoms: C6_12  and  C9_15 
REMARK    8  A    between atoms: C12_18  and  C8_14 
ROOT
HETATM    1  O1  UNK     1      19.265  -1.201  17.601  1.00  0.00    -0.306 OA
HETATM    2  O4  UNK     1      19.066   2.162  15.308  1.00  0.00    -0.284 OA
HETATM    3  C1  UNK     1      19.180  -1.271  16.219  1.00  0.00     0.124 A 
HETATM    4  C2  UNK     1      19.105  -0.204  15.404  1.00  0.00     0.164 A 
HETATM    5  C3  UNK     1      19.236   1.223  17.464  1.00  0.00     0.051 A 
HETATM    6  C5  UNK     1      19.297   0.036  18.192  1.00  0.00     0.090 A 
HETATM    7  C7  UNK     1      19.131   1.154  15.999  1.00  0.00     0.221 A 
HETATM    8  C13 UNK     1      19.272   2.455  18.121  1.00  0.00     0.018 A 
HETATM    9  C14 UNK     1      19.394   0.075  19.583  1.00  0.00     0.038 A 
HETATM   10  C18 UNK     1      19.370   2.491  19.513  1.00  0.00     0.001 A 
HETATM   11  C19 UNK     1      19.431   1.303  20.243  1.00  0.00     0.003 A 
ENDROOT
BRANCH   4  12
HETATM   12  O2  UNK     1      18.990  -0.310  14.035  1.00  0.00    -0.272 OA
BRANCH  12  13
HETATM   13  C12 UNK     1      20.111  -0.802  13.410  1.00  0.00     0.264 C 
HETATM   14  O6  UNK     1      21.277  -0.580  13.710  1.00  0.00    -0.265 OA
BRANCH  13  15
HETATM   15  C8  UNK     1      19.670  -1.696  12.271  1.00  0.00     0.116 C 
BRANCH  15  16
HETATM   16  C6  UNK     1      20.601  -2.893  12.088  1.00  0.00     0.048 C 
BRANCH  16  17
HETATM   17  C9  UNK     1      19.967  -3.970  11.246  1.00  0.00    -0.058 A 
HETATM   18  C20 UNK     1      18.920  -3.645  10.397  1.00  0.00     0.007 A 
HETATM   19  C22 UNK     1      18.333  -4.641   9.617  1.00  0.00     0.001 A 
HETATM   20  C24 UNK     1      18.799  -5.953   9.696  1.00  0.00     0.000 A 
HETATM   21  C23 UNK     1      19.852  -6.269  10.554  1.00  0.00     0.001 A 
HETATM   22  C21 UNK     1      20.440  -5.272  11.334  1.00  0.00     0.007 A 
ENDBRANCH  16  17
ENDBRANCH  15  16
ENDBRANCH  13  15
ENDBRANCH  12  13
ENDBRANCH   4  12
BRANCH   3  23
HETATM   23  C4  UNK     1      19.156  -2.655  15.715  1.00  0.00     0.004 A 
HETATM   24  C10 UNK     1      20.322  -3.421  15.720  1.00  0.00     0.054 A 
HETATM   25  C15 UNK     1      20.298  -4.731  15.241  1.00  0.00     0.102 A 
HETATM   26  C16 UNK     1      19.109  -5.276  14.758  1.00  0.00     0.101 A 
HETATM   27  C17 UNK     1      17.943  -4.511  14.753  1.00  0.00     0.040 A 
HETATM   28  C11 UNK     1      17.966  -3.201  15.231  1.00  0.00     0.017 A 
BRANCH  25  29
HETATM   29  O3  UNK     1      21.444  -5.469  15.252  1.00  0.00    -0.353 OA
HETATM   30  C25 UNK     1      22.387  -5.186  16.284  1.00  0.00     0.210 C 
ENDBRANCH  25  29
BRANCH  26  31
HETATM   31  O5  UNK     1      19.073  -6.554  14.289  1.00  0.00    -0.353 OA
HETATM   32  C26 UNK     1      17.878  -6.968  13.628  1.00  0.00     0.210 C 
ENDBRANCH  26  31
ENDBRANCH   3  23
TORSDOF 8
ENDMDL
MODEL 10
REMARK VINA RESULT:      -8.8     10.534     13.657
REMARK  8 active torsions:
REMARK  status: ('A' for Active; 'I' for Inactive)
REMARK    1  A    between atoms: C12_18  and  O2_2 
REMARK    2  A    between atoms: C2_8  and  O2_2 
REMARK    3  A    between atoms: C15_21  and  O3_3 
REMARK    4  A    between atoms: C16_22  and  O5_5 
REMARK    5  A    between atoms: C1_7  and  C4_10 
REMARK    6  A    between atoms: C6_12  and  C8_14 
REMARK    7  A    between atoms: C6_12  and  C9_15 
REMARK    8  A    between atoms: C12_18  and  C8_14 
ROOT
HETATM    1  O1  UNK     1      30.688  -5.703  35.090  1.00  0.00    -0.306 OA
HETATM    2  O4  UNK     1      27.314  -7.552  36.432  1.00  0.00    -0.284 OA
HETATM    3  C1  UNK     1      29.933  -6.520  34.263  1.00  0.00     0.124 A 
HETATM    4  C2  UNK     1      28.815  -7.165  34.642  1.00  0.00     0.164 A 
HETATM    5  C3  UNK     1      29.121  -6.112  36.898  1.00  0.00     0.051 A 
HETATM    6  C5  UNK     1      30.267  -5.511  36.380  1.00  0.00     0.090 A 
HETATM    7  C7  UNK     1      28.325  -6.992  36.030  1.00  0.00     0.221 A 
HETATM    8  C13 UNK     1      28.740  -5.879  38.222  1.00  0.00     0.018 A 
HETATM    9  C14 UNK     1      31.040  -4.674  37.185  1.00  0.00     0.038 A 
HETATM   10  C18 UNK     1      29.515  -5.041  39.025  1.00  0.00     0.001 A 
HETATM   11  C19 UNK     1      30.663  -4.439  38.507  1.00  0.00     0.003 A 
ENDROOT
BRANCH   4  12
HETATM   12  O2  UNK     1      28.106  -7.997  33.803  1.00  0.00    -0.272 OA
BRANCH  12  13
HETATM   13  C12 UNK     1      28.732  -9.190  33.528  1.00  0.00     0.264 C 
HETATM   14  O6  UNK     1      29.030  -9.626  32.423  1.00  0.00    -0.265 OA
BRANCH  13  15
HETATM   15  C8  UNK     1      29.015  -9.894  34.838  1.00  0.00     0.116 C 
BRANCH  15  16
HETATM   16  C6  UNK     1      30.491 -10.260  34.984  1.00  0.00     0.048 C 
BRANCH  16  17
HETATM   17  C9  UNK     1      31.147  -9.496  36.104  1.00  0.00    -0.058 A 
HETATM   18  C20 UNK     1      32.325  -8.806  35.861  1.00  0.00     0.007 A 
HETATM   19  C22 UNK     1      32.933  -8.097  36.898  1.00  0.00     0.001 A 
HETATM   20  C24 UNK     1      32.355  -8.087  38.167  1.00  0.00     0.000 A 
HETATM   21  C23 UNK     1      31.171  -8.785  38.400  1.00  0.00     0.001 A 
HETATM   22  C21 UNK     1      30.563  -9.493  37.363  1.00  0.00     0.007 A 
ENDBRANCH  16  17
ENDBRANCH  15  16
ENDBRANCH  13  15
ENDBRANCH  12  13
ENDBRANCH   4  12
BRANCH   3  23
HETATM   23  C4  UNK     1      30.494  -6.640  32.906  1.00  0.00     0.004 A 
HETATM   24  C10 UNK     1      31.701  -7.311  32.706  1.00  0.00     0.054 A 
HETATM   25  C15 UNK     1      32.232  -7.423  31.421  1.00  0.00     0.102 A 
HETATM   26  C16 UNK     1      31.557  -6.866  30.336  1.00  0.00     0.101 A 
HETATM   27  C17 UNK     1      30.350  -6.195  30.535  1.00  0.00     0.040 A 
HETATM   28  C11 UNK     1      29.819  -6.083  31.820  1.00  0.00     0.017 A 
BRANCH  25  29
HETATM   29  O3  UNK     1      33.411  -8.081  31.239  1.00  0.00    -0.353 OA
HETATM   30  C25 UNK     1      34.606  -7.369  31.555  1.00  0.00     0.210 C 
ENDBRANCH  25  29
BRANCH  26  31
HETATM   31  O5  UNK     1      32.065  -6.969  29.076  1.00  0.00    -0.353 OA
HETATM   32  C26 UNK     1      31.585  -8.044  28.270  1.00  0.00     0.210 C 
ENDBRANCH  26  31
ENDBRANCH   3  23
TORSDOF 8
ENDMDL
