MODEL 1
REMARK VINA RESULT:      -9.1      0.000      0.000
REMARK  6 active torsions:
REMARK  status: ('A' for Active; 'I' for Inactive)
REMARK    1  A    between atoms: C12_19  and  O3_3 
REMARK    2  A    between atoms: C20_27  and  O3_3 
REMARK    3  A    between atoms: C28_35  and  O6_6 
REMARK    4  A    between atoms: C1_8  and  C10_17 
REMARK    5  A    between atoms: C12_19  and  C6_13 
REMARK    6  A    between atoms: C20_27  and  C22_29 
ROOT
HETATM    1  O1  UNK     1      29.801  -4.514  31.519  1.00  0.00    -0.293 OA
HETATM    2  N1  UNK     1      30.568  -9.183  31.738  1.00  0.00    -0.362 N 
HETATM    3  C1  UNK     1      31.548  -6.616  32.444  1.00  0.00     0.104 C 
HETATM    4  C2  UNK     1      30.209  -6.841  31.748  1.00  0.00     0.024 C 
HETATM    5  C3  UNK     1      29.777  -8.087  31.457  1.00  0.00     0.020 C 
HETATM    6  C4  UNK     1      28.442  -8.370  30.819  1.00  0.00     0.058 C 
HETATM    7  C5  UNK     1      27.461  -7.219  31.004  1.00  0.00     0.014 C 
HETATM    8  C6  UNK     1      32.375  -7.899  32.569  1.00  0.00     0.052 C 
HETATM    9  C7  UNK     1      28.092  -5.900  30.595  1.00  0.00     0.084 C 
HETATM   10  C8  UNK     1      29.393  -5.659  31.330  1.00  0.00     0.158 C 
HETATM   11  C9  UNK     1      31.861  -9.106  32.235  1.00  0.00     0.018 C 
HETATM   12  C13 UNK     1      32.573 -10.429  32.319  1.00  0.00     0.069 C 
HETATM   13  H8  UNK     1      30.212 -10.099  31.492  1.00  0.00     0.165 HD
ENDROOT
BRANCH   3  14
HETATM   14  C10 UNK     1      31.331  -6.001  33.800  1.00  0.00     0.029 A 
HETATM   15  C11 UNK     1      30.318  -6.607  34.700  1.00  0.00     0.194 A 
HETATM   16  O4  UNK     1      29.659  -7.586  34.373  1.00  0.00    -0.287 OA
HETATM   17  C15 UNK     1      30.146  -5.965  36.016  1.00  0.00     0.049 A 
HETATM   18  C16 UNK     1      30.924  -4.852  36.336  1.00  0.00     0.089 A 
HETATM   19  C17 UNK     1      29.217  -6.462  36.935  1.00  0.00     0.025 A 
HETATM   20  O2  UNK     1      31.850  -4.324  35.472  1.00  0.00    -0.321 OA
HETATM   21  C18 UNK     1      30.777  -4.229  37.575  1.00  0.00     0.039 A 
HETATM   22  C14 UNK     1      31.999  -4.931  34.250  1.00  0.00     0.154 A 
HETATM   23  C21 UNK     1      29.850  -4.722  38.493  1.00  0.00     0.009 A 
HETATM   24  C19 UNK     1      29.073  -5.836  38.175  1.00  0.00    -0.061 A 
HETATM   25  C23 UNK     1      28.084  -6.359  39.161  1.00  0.00     0.048 C 
ENDBRANCH   3  14
BRANCH   8  26
HETATM   26  C12 UNK     1      33.754  -7.733  33.061  1.00  0.00     0.292 C 
HETATM   27  O5  UNK     1      34.571  -7.008  32.526  1.00  0.00    -0.259 OA
BRANCH  26  28
HETATM   28  O3  UNK     1      33.910  -8.506  34.162  1.00  0.00    -0.313 OA
BRANCH  28  29
HETATM   29  C20 UNK     1      33.917  -7.796  35.405  1.00  0.00     0.217 C 
BRANCH  29  30
HETATM   30  C22 UNK     1      32.926  -8.430  36.337  1.00  0.00    -0.034 A 
HETATM   31  C24 UNK     1      32.737  -7.900  37.607  1.00  0.00     0.012 A 
HETATM   32  C26 UNK     1      31.817  -8.491  38.473  1.00  0.00     0.037 A 
HETATM   33  C28 UNK     1      31.091  -9.608  38.062  1.00  0.00     0.068 A 
HETATM   34  C27 UNK     1      31.287 -10.136  36.785  1.00  0.00     0.037 A 
HETATM   35  C25 UNK     1      32.207  -9.545  35.920  1.00  0.00     0.012 A 
BRANCH  33  36
HETATM   36  O6  UNK     1      30.193 -10.185  38.907  1.00  0.00    -0.356 OA
HETATM   37  C29 UNK     1      28.838  -9.751  38.808  1.00  0.00     0.210 C 
ENDBRANCH  33  36
ENDBRANCH  29  30
ENDBRANCH  28  29
ENDBRANCH  26  28
ENDBRANCH   8  26
TORSDOF 6
ENDMDL
MODEL 2
REMARK VINA RESULT:      -9.0      2.328      6.770
REMARK  6 active torsions:
REMARK  status: ('A' for Active; 'I' for Inactive)
REMARK    1  A    between atoms: C12_19  and  O3_3 
REMARK    2  A    between atoms: C20_27  and  O3_3 
REMARK    3  A    between atoms: C28_35  and  O6_6 
REMARK    4  A    between atoms: C1_8  and  C10_17 
REMARK    5  A    between atoms: C12_19  and  C6_13 
REMARK    6  A    between atoms: C20_27  and  C22_29 
ROOT
HETATM    1  O1  UNK     1      26.923 -10.063  36.483  1.00  0.00    -0.293 OA
HETATM    2  N1  UNK     1      30.086  -7.150  38.467  1.00  0.00    -0.362 N 
HETATM    3  C1  UNK     1      29.500  -8.790  36.229  1.00  0.00     0.104 C 
HETATM    4  C2  UNK     1      28.518  -8.545  37.370  1.00  0.00     0.024 C 
HETATM    5  C3  UNK     1      28.837  -7.734  38.401  1.00  0.00     0.020 C 
HETATM    6  C4  UNK     1      27.888  -7.415  39.526  1.00  0.00     0.058 C 
HETATM    7  C5  UNK     1      26.435  -7.663  39.140  1.00  0.00     0.014 C 
HETATM    8  C6  UNK     1      30.885  -8.197  36.500  1.00  0.00     0.052 C 
HETATM    9  C7  UNK     1      26.264  -9.047  38.539  1.00  0.00     0.084 C 
HETATM   10  C8  UNK     1      27.205  -9.263  37.374  1.00  0.00     0.158 C 
HETATM   11  C9  UNK     1      31.116  -7.404  37.573  1.00  0.00     0.018 C 
HETATM   12  C13 UNK     1      32.428  -6.764  37.940  1.00  0.00     0.069 C 
HETATM   13  H8  UNK     1      30.290  -6.557  39.264  1.00  0.00     0.165 HD
ENDROOT
BRANCH   3  14
HETATM   14  C10 UNK     1      28.944  -8.249  34.940  1.00  0.00     0.029 A 
HETATM   15  C11 UNK     1      28.994  -9.108  33.729  1.00  0.00     0.194 A 
HETATM   16  O4  UNK     1      29.470 -10.235  33.750  1.00  0.00    -0.287 OA
HETATM   17  C15 UNK     1      28.437  -8.528  32.493  1.00  0.00     0.049 A 
HETATM   18  C16 UNK     1      27.907  -7.238  32.527  1.00  0.00     0.089 A 
HETATM   19  C17 UNK     1      28.437  -9.257  31.301  1.00  0.00     0.025 A 
HETATM   20  O2  UNK     1      27.881  -6.478  33.670  1.00  0.00    -0.321 OA
HETATM   21  C18 UNK     1      27.374  -6.670  31.369  1.00  0.00     0.039 A 
HETATM   22  C14 UNK     1      28.403  -7.030  34.813  1.00  0.00     0.154 A 
HETATM   23  C21 UNK     1      27.374  -7.395  30.179  1.00  0.00     0.009 A 
HETATM   24  C19 UNK     1      27.903  -8.686  30.144  1.00  0.00    -0.061 A 
HETATM   25  C23 UNK     1      27.900  -9.458  28.868  1.00  0.00     0.048 C 
ENDBRANCH   3  14
BRANCH   8  26
HETATM   26  C12 UNK     1      31.939  -8.548  35.532  1.00  0.00     0.292 C 
HETATM   27  O5  UNK     1      32.509  -9.622  35.526  1.00  0.00    -0.259 OA
BRANCH  26  28
HETATM   28  O3  UNK     1      32.128  -7.492  34.705  1.00  0.00    -0.313 OA
BRANCH  28  29
HETATM   29  C20 UNK     1      32.355  -7.830  33.333  1.00  0.00     0.217 C 
BRANCH  29  30
HETATM   30  C22 UNK     1      31.652  -6.832  32.460  1.00  0.00    -0.034 A 
HETATM   31  C24 UNK     1      31.495  -7.091  31.105  1.00  0.00     0.012 A 
HETATM   32  C26 UNK     1      30.843  -6.162  30.294  1.00  0.00     0.037 A 
HETATM   33  C28 UNK     1      30.352  -4.979  30.846  1.00  0.00     0.068 A 
HETATM   34  C27 UNK     1      30.514  -4.725  32.208  1.00  0.00     0.037 A 
HETATM   35  C25 UNK     1      31.165  -5.654  33.018  1.00  0.00     0.012 A 
BRANCH  33  36
HETATM   36  O6  UNK     1      29.715  -4.073  30.054  1.00  0.00    -0.356 OA
HETATM   37  C29 UNK     1      30.023  -2.697  30.265  1.00  0.00     0.210 C 
ENDBRANCH  33  36
ENDBRANCH  29  30
ENDBRANCH  28  29
ENDBRANCH  26  28
ENDBRANCH   8  26
TORSDOF 6
ENDMDL
MODEL 3
REMARK VINA RESULT:      -9.0      2.354      6.478
REMARK  6 active torsions:
REMARK  status: ('A' for Active; 'I' for Inactive)
REMARK    1  A    between atoms: C12_19  and  O3_3 
REMARK    2  A    between atoms: C20_27  and  O3_3 
REMARK    3  A    between atoms: C28_35  and  O6_6 
REMARK    4  A    between atoms: C1_8  and  C10_17 
REMARK    5  A    between atoms: C12_19  and  C6_13 
REMARK    6  A    between atoms: C20_27  and  C22_29 
ROOT
HETATM    1  O1  UNK     1      29.764  -7.910  36.633  1.00  0.00    -0.293 OA
HETATM    2  N1  UNK     1      34.044  -5.884  36.684  1.00  0.00    -0.362 N 
HETATM    3  C1  UNK     1      32.284  -7.596  35.264  1.00  0.00     0.104 C 
HETATM    4  C2  UNK     1      31.891  -6.861  36.542  1.00  0.00     0.024 C 
HETATM    5  C3  UNK     1      32.759  -6.037  37.166  1.00  0.00     0.020 C 
HETATM    6  C4  UNK     1      32.408  -5.247  38.400  1.00  0.00     0.058 C 
HETATM    7  C5  UNK     1      30.903  -5.075  38.563  1.00  0.00     0.014 C 
HETATM    8  C6  UNK     1      33.769  -7.444  34.924  1.00  0.00     0.052 C 
HETATM    9  C7  UNK     1      30.189  -6.410  38.439  1.00  0.00     0.084 C 
HETATM   10  C8  UNK     1      30.543  -7.107  37.143  1.00  0.00     0.158 C 
HETATM   11  C9  UNK     1      34.570  -6.602  35.619  1.00  0.00     0.018 C 
HETATM   12  C13 UNK     1      36.036  -6.366  35.377  1.00  0.00     0.069 C 
HETATM   13  H8  UNK     1      34.668  -5.265  37.189  1.00  0.00     0.165 HD
ENDROOT
BRANCH   3  14
HETATM   14  C10 UNK     1      31.435  -7.126  34.114  1.00  0.00     0.029 A 
HETATM   15  C11 UNK     1      30.629  -8.128  33.371  1.00  0.00     0.194 A 
HETATM   16  O4  UNK     1      30.636  -9.316  33.666  1.00  0.00    -0.287 OA
HETATM   17  C15 UNK     1      29.817  -7.615  32.252  1.00  0.00     0.049 A 
HETATM   18  C16 UNK     1      29.849  -6.251  31.961  1.00  0.00     0.089 A 
HETATM   19  C17 UNK     1      29.025  -8.478  31.493  1.00  0.00     0.025 A 
HETATM   20  O2  UNK     1      30.609  -5.359  32.674  1.00  0.00    -0.321 OA
HETATM   21  C18 UNK     1      29.088  -5.744  30.907  1.00  0.00     0.039 A 
HETATM   22  C14 UNK     1      31.361  -5.851  33.713  1.00  0.00     0.154 A 
HETATM   23  C21 UNK     1      28.297  -6.603  30.147  1.00  0.00     0.009 A 
HETATM   24  C19 UNK     1      28.264  -7.967  30.439  1.00  0.00    -0.061 A 
HETATM   25  C23 UNK     1      27.415  -8.883  29.622  1.00  0.00     0.048 C 
ENDBRANCH   3  14
BRANCH   8  26
HETATM   26  C12 UNK     1      34.265  -8.271  33.811  1.00  0.00     0.292 C 
HETATM   27  O5  UNK     1      34.482  -9.464  33.910  1.00  0.00    -0.259 OA
BRANCH  26  28
HETATM   28  O3  UNK     1      34.420  -7.477  32.725  1.00  0.00    -0.313 OA
BRANCH  28  29
HETATM   29  C20 UNK     1      34.880  -8.146  31.546  1.00  0.00     0.217 C 
BRANCH  29  30
HETATM   30  C22 UNK     1      33.733  -8.298  30.591  1.00  0.00    -0.034 A 
HETATM   31  C24 UNK     1      33.148  -7.170  30.029  1.00  0.00     0.012 A 
HETATM   32  C26 UNK     1      32.081  -7.312  29.143  1.00  0.00     0.037 A 
HETATM   33  C28 UNK     1      31.606  -8.584  28.822  1.00  0.00     0.068 A 
HETATM   34  C27 UNK     1      32.198  -9.713  29.390  1.00  0.00     0.037 A 
HETATM   35  C25 UNK     1      33.265  -9.569  30.276  1.00  0.00     0.012 A 
BRANCH  33  36
HETATM   36  O6  UNK     1      30.565  -8.723  27.956  1.00  0.00    -0.356 OA
HETATM   37  C29 UNK     1      30.095 -10.047  27.714  1.00  0.00     0.210 C 
ENDBRANCH  33  36
ENDBRANCH  29  30
ENDBRANCH  28  29
ENDBRANCH  26  28
ENDBRANCH   8  26
TORSDOF 6
ENDMDL
MODEL 4
REMARK VINA RESULT:      -9.0      2.264      6.712
REMARK  6 active torsions:
REMARK  status: ('A' for Active; 'I' for Inactive)
REMARK    1  A    between atoms: C12_19  and  O3_3 
REMARK    2  A    between atoms: C20_27  and  O3_3 
REMARK    3  A    between atoms: C28_35  and  O6_6 
REMARK    4  A    between atoms: C1_8  and  C10_17 
REMARK    5  A    between atoms: C12_19  and  C6_13 
REMARK    6  A    between atoms: C20_27  and  C22_29 
ROOT
HETATM    1  O1  UNK     1      28.592 -10.119  38.823  1.00  0.00    -0.293 OA
HETATM    2  N1  UNK     1      28.424  -5.430  38.183  1.00  0.00    -0.362 N 
HETATM    3  C1  UNK     1      29.984  -7.778  37.872  1.00  0.00     0.104 C 
HETATM    4  C2  UNK     1      28.548  -7.787  38.387  1.00  0.00     0.024 C 
HETATM    5  C3  UNK     1      27.840  -6.642  38.493  1.00  0.00     0.020 C 
HETATM    6  C4  UNK     1      26.404  -6.598  38.946  1.00  0.00     0.058 C 
HETATM    7  C5  UNK     1      25.707  -7.943  38.781  1.00  0.00     0.014 C 
HETATM    8  C6  UNK     1      30.545  -6.364  37.699  1.00  0.00     0.052 C 
HETATM    9  C7  UNK     1      26.533  -9.059  39.397  1.00  0.00     0.084 C 
HETATM   10  C8  UNK     1      27.940  -9.076  38.840  1.00  0.00     0.158 C 
HETATM   11  C9  UNK     1      29.759  -5.271  37.841  1.00  0.00     0.018 C 
HETATM   12  C13 UNK     1      30.193  -3.837  37.693  1.00  0.00     0.069 C 
HETATM   13  H8  UNK     1      27.860  -4.594  38.287  1.00  0.00     0.165 HD
ENDROOT
BRANCH   3  14
HETATM   14  C10 UNK     1      30.074  -8.536  36.575  1.00  0.00     0.029 A 
HETATM   15  C11 UNK     1      29.254  -8.076  35.426  1.00  0.00     0.194 A 
HETATM   16  O4  UNK     1      28.512  -7.105  35.503  1.00  0.00    -0.287 OA
HETATM   17  C15 UNK     1      29.379  -8.855  34.180  1.00  0.00     0.049 A 
HETATM   18  C16 UNK     1      30.239  -9.953  34.149  1.00  0.00     0.089 A 
HETATM   19  C17 UNK     1      28.648  -8.501  33.043  1.00  0.00     0.025 A 
HETATM   20  O2  UNK     1      30.979 -10.344  35.236  1.00  0.00    -0.321 OA
HETATM   21  C18 UNK     1      30.373 -10.704  32.981  1.00  0.00     0.039 A 
HETATM   22  C14 UNK     1      30.853  -9.610  36.390  1.00  0.00     0.154 A 
HETATM   23  C21 UNK     1      29.644 -10.354  31.845  1.00  0.00     0.009 A 
HETATM   24  C19 UNK     1      28.785  -9.255  31.875  1.00  0.00    -0.061 A 
HETATM   25  C23 UNK     1      28.009  -8.884  30.656  1.00  0.00     0.048 C 
ENDBRANCH   3  14
BRANCH   8  26
HETATM   26  C12 UNK     1      31.980  -6.272  37.382  1.00  0.00     0.292 C 
HETATM   27  O5  UNK     1      32.857  -6.612  38.152  1.00  0.00    -0.259 OA
BRANCH  26  28
HETATM   28  O3  UNK     1      32.110  -5.762  36.134  1.00  0.00    -0.313 OA
BRANCH  28  29
HETATM   29  C20 UNK     1      32.831  -6.588  35.214  1.00  0.00     0.217 C 
BRANCH  29  30
HETATM   30  C22 UNK     1      32.176  -6.508  33.866  1.00  0.00    -0.034 A 
HETATM   31  C24 UNK     1      31.171  -5.575  33.642  1.00  0.00     0.012 A 
HETATM   32  C26 UNK     1      30.562  -5.502  32.390  1.00  0.00     0.037 A 
HETATM   33  C28 UNK     1      30.963  -6.363  31.369  1.00  0.00     0.068 A 
HETATM   34  C27 UNK     1      31.973  -7.298  31.601  1.00  0.00     0.037 A 
HETATM   35  C25 UNK     1      32.581  -7.370  32.853  1.00  0.00     0.012 A 
BRANCH  33  36
HETATM   36  O6  UNK     1      30.369  -6.292  30.146  1.00  0.00    -0.356 OA
HETATM   37  C29 UNK     1      30.981  -7.019  29.083  1.00  0.00     0.210 C 
ENDBRANCH  33  36
ENDBRANCH  29  30
ENDBRANCH  28  29
ENDBRANCH  26  28
ENDBRANCH   8  26
TORSDOF 6
ENDMDL
MODEL 5
REMARK VINA RESULT:      -8.9      2.347      6.536
REMARK  6 active torsions:
REMARK  status: ('A' for Active; 'I' for Inactive)
REMARK    1  A    between atoms: C12_19  and  O3_3 
REMARK    2  A    between atoms: C20_27  and  O3_3 
REMARK    3  A    between atoms: C28_35  and  O6_6 
REMARK    4  A    between atoms: C1_8  and  C10_17 
REMARK    5  A    between atoms: C12_19  and  C6_13 
REMARK    6  A    between atoms: C20_27  and  C22_29 
ROOT
HETATM    1  O1  UNK     1      29.459  -8.662  38.528  1.00  0.00    -0.293 OA
HETATM    2  N1  UNK     1      30.464  -4.232  37.189  1.00  0.00    -0.362 N 
HETATM    3  C1  UNK     1      31.163  -6.969  36.931  1.00  0.00     0.104 C 
HETATM    4  C2  UNK     1      29.966  -6.481  37.740  1.00  0.00     0.024 C 
HETATM    5  C3  UNK     1      29.661  -5.168  37.810  1.00  0.00     0.020 C 
HETATM    6  C4  UNK     1      28.462  -4.636  38.550  1.00  0.00     0.058 C 
HETATM    7  C5  UNK     1      27.396  -5.704  38.760  1.00  0.00     0.014 C 
HETATM    8  C6  UNK     1      32.038  -5.823  36.415  1.00  0.00     0.052 C 
HETATM    9  C7  UNK     1      28.001  -6.963  39.355  1.00  0.00     0.084 C 
HETATM   10  C8  UNK     1      29.155  -7.470  38.517  1.00  0.00     0.158 C 
HETATM   11  C9  UNK     1      31.656  -4.530  36.544  1.00  0.00     0.018 C 
HETATM   12  C13 UNK     1      32.425  -3.324  36.075  1.00  0.00     0.069 C 
HETATM   13  H8  UNK     1      30.206  -3.256  37.275  1.00  0.00     0.165 HD
ENDROOT
BRANCH   3  14
HETATM   14  C10 UNK     1      30.701  -7.829  35.786  1.00  0.00     0.029 A 
HETATM   15  C11 UNK     1      31.330  -9.161  35.600  1.00  0.00     0.194 A 
HETATM   16  O4  UNK     1      32.208  -9.576  36.345  1.00  0.00    -0.287 OA
HETATM   17  C15 UNK     1      30.841  -9.961  34.462  1.00  0.00     0.049 A 
HETATM   18  C16 UNK     1      29.839  -9.438  33.645  1.00  0.00     0.089 A 
HETATM   19  C17 UNK     1      31.370 -11.228  34.203  1.00  0.00     0.025 A 
HETATM   20  O2  UNK     1      29.285  -8.200  33.854  1.00  0.00    -0.321 OA
HETATM   21  C18 UNK     1      29.361 -10.178  32.563  1.00  0.00     0.039 A 
HETATM   22  C14 UNK     1      29.750  -7.465  34.916  1.00  0.00     0.154 A 
HETATM   23  C21 UNK     1      29.888 -11.442  32.302  1.00  0.00     0.009 A 
HETATM   24  C19 UNK     1      30.889 -11.967  33.120  1.00  0.00    -0.061 A 
HETATM   25  C23 UNK     1      31.449 -13.320  32.836  1.00  0.00     0.048 C 
ENDBRANCH   3  14
BRANCH   8  26
HETATM   26  C12 UNK     1      33.309  -6.214  35.783  1.00  0.00     0.292 C 
HETATM   27  O5  UNK     1      34.322  -6.453  36.413  1.00  0.00    -0.259 OA
BRANCH  26  28
HETATM   28  O3  UNK     1      33.127  -6.250  34.441  1.00  0.00    -0.313 OA
BRANCH  28  29
HETATM   29  C20 UNK     1      33.877  -7.256  33.754  1.00  0.00     0.217 C 
BRANCH  29  30
HETATM   30  C22 UNK     1      33.092  -7.726  32.565  1.00  0.00    -0.034 A 
HETATM   31  C24 UNK     1      33.394  -8.949  31.979  1.00  0.00     0.012 A 
HETATM   32  C26 UNK     1      32.664  -9.385  30.873  1.00  0.00     0.037 A 
HETATM   33  C28 UNK     1      31.636  -8.594  30.362  1.00  0.00     0.068 A 
HETATM   34  C27 UNK     1      31.338  -7.368  30.955  1.00  0.00     0.037 A 
HETATM   35  C25 UNK     1      32.068  -6.933  32.061  1.00  0.00     0.012 A 
BRANCH  33  36
HETATM   36  O6  UNK     1      30.923  -9.020  29.283  1.00  0.00    -0.356 OA
HETATM   37  C29 UNK     1      29.664  -8.393  29.048  1.00  0.00     0.210 C 
ENDBRANCH  33  36
ENDBRANCH  29  30
ENDBRANCH  28  29
ENDBRANCH  26  28
ENDBRANCH   8  26
TORSDOF 6
ENDMDL
MODEL 6
REMARK VINA RESULT:      -8.9      2.389      6.632
REMARK  6 active torsions:
REMARK  status: ('A' for Active; 'I' for Inactive)
REMARK    1  A    between atoms: C12_19  and  O3_3 
REMARK    2  A    between atoms: C20_27  and  O3_3 
REMARK    3  A    between atoms: C28_35  and  O6_6 
REMARK    4  A    between atoms: C1_8  and  C10_17 
REMARK    5  A    between atoms: C12_19  and  C6_13 
REMARK    6  A    between atoms: C20_27  and  C22_29 
ROOT
HETATM    1  O1  UNK     1      27.125  -9.977  36.423  1.00  0.00    -0.293 OA
HETATM    2  N1  UNK     1      29.962  -6.810  38.508  1.00  0.00    -0.362 N 
HETATM    3  C1  UNK     1      29.590  -8.488  36.252  1.00  0.00     0.104 C 
HETATM    4  C2  UNK     1      28.554  -8.330  37.361  1.00  0.00     0.024 C 
HETATM    5  C3  UNK     1      28.770  -7.498  38.402  1.00  0.00     0.020 C 
HETATM    6  C4  UNK     1      27.762  -7.265  39.496  1.00  0.00     0.058 C 
HETATM    7  C5  UNK     1      26.348  -7.635  39.064  1.00  0.00     0.014 C 
HETATM    8  C6  UNK     1      30.910  -7.779  36.567  1.00  0.00     0.052 C 
HETATM    9  C7  UNK     1      26.315  -9.027  38.457  1.00  0.00     0.084 C 
HETATM   10  C8  UNK     1      27.309  -9.158  37.323  1.00  0.00     0.158 C 
HETATM   11  C9  UNK     1      31.038  -6.973  37.648  1.00  0.00     0.018 C 
HETATM   12  C13 UNK     1      32.278  -6.224  38.056  1.00  0.00     0.069 C 
HETATM   13  H8  UNK     1      30.089  -6.204  39.311  1.00  0.00     0.165 HD
ENDROOT
BRANCH   3  14
HETATM   14  C10 UNK     1      29.031  -7.992  34.946  1.00  0.00     0.029 A 
HETATM   15  C11 UNK     1      29.048  -8.905  33.775  1.00  0.00     0.194 A 
HETATM   16  O4  UNK     1      29.500 -10.041  33.841  1.00  0.00    -0.287 OA
HETATM   17  C15 UNK     1      28.490  -8.369  32.520  1.00  0.00     0.049 A 
HETATM   18  C16 UNK     1      27.988  -7.067  32.502  1.00  0.00     0.089 A 
HETATM   19  C17 UNK     1      28.460  -9.150  31.362  1.00  0.00     0.025 A 
HETATM   20  O2  UNK     1      27.993  -6.257  33.609  1.00  0.00    -0.321 OA
HETATM   21  C18 UNK     1      27.456  -6.539  31.325  1.00  0.00     0.039 A 
HETATM   22  C14 UNK     1      28.516  -6.769  34.770  1.00  0.00     0.154 A 
HETATM   23  C21 UNK     1      27.426  -7.317  30.168  1.00  0.00     0.009 A 
HETATM   24  C19 UNK     1      27.926  -8.619  30.186  1.00  0.00    -0.061 A 
HETATM   25  C23 UNK     1      27.890  -9.447  28.946  1.00  0.00     0.048 C 
ENDBRANCH   3  14
BRANCH   8  26
HETATM   26  C12 UNK     1      32.020  -8.036  35.634  1.00  0.00     0.292 C 
HETATM   27  O5  UNK     1      32.618  -9.094  35.582  1.00  0.00    -0.259 OA
BRANCH  26  28
HETATM   28  O3  UNK     1      32.223  -6.920  34.894  1.00  0.00    -0.313 OA
BRANCH  28  29
HETATM   29  C20 UNK     1      33.281  -7.013  33.934  1.00  0.00     0.217 C 
BRANCH  29  30
HETATM   30  C22 UNK     1      32.687  -7.183  32.567  1.00  0.00    -0.034 A 
HETATM   31  C24 UNK     1      31.631  -6.373  32.168  1.00  0.00     0.012 A 
HETATM   32  C26 UNK     1      31.078  -6.532  30.898  1.00  0.00     0.037 A 
HETATM   33  C28 UNK     1      31.587  -7.501  30.033  1.00  0.00     0.068 A 
HETATM   34  C27 UNK     1      32.648  -8.310  30.440  1.00  0.00     0.037 A 
HETATM   35  C25 UNK     1      33.199  -8.151  31.710  1.00  0.00     0.012 A 
BRANCH  33  36
HETATM   36  O6  UNK     1      31.049  -7.655  28.792  1.00  0.00    -0.356 OA
HETATM   37  C29 UNK     1      31.398  -8.838  28.075  1.00  0.00     0.210 C 
ENDBRANCH  33  36
ENDBRANCH  29  30
ENDBRANCH  28  29
ENDBRANCH  26  28
ENDBRANCH   8  26
TORSDOF 6
ENDMDL
MODEL 7
REMARK VINA RESULT:      -8.8      2.156      6.353
REMARK  6 active torsions:
REMARK  status: ('A' for Active; 'I' for Inactive)
REMARK    1  A    between atoms: C12_19  and  O3_3 
REMARK    2  A    between atoms: C20_27  and  O3_3 
REMARK    3  A    between atoms: C28_35  and  O6_6 
REMARK    4  A    between atoms: C1_8  and  C10_17 
REMARK    5  A    between atoms: C12_19  and  C6_13 
REMARK    6  A    between atoms: C20_27  and  C22_29 
ROOT
HETATM    1  O1  UNK     1      27.295  -7.247  36.772  1.00  0.00    -0.293 OA
HETATM    2  N1  UNK     1      31.696  -6.230  38.196  1.00  0.00    -0.362 N 
HETATM    3  C1  UNK     1      30.110  -7.758  36.407  1.00  0.00     0.104 C 
HETATM    4  C2  UNK     1      29.532  -6.723  37.368  1.00  0.00     0.024 C 
HETATM    5  C3  UNK     1      30.334  -6.004  38.182  1.00  0.00     0.020 C 
HETATM    6  C4  UNK     1      29.822  -4.935  39.111  1.00  0.00     0.058 C 
HETATM    7  C5  UNK     1      28.455  -4.411  38.688  1.00  0.00     0.014 C 
HETATM    8  C6  UNK     1      31.607  -8.001  36.627  1.00  0.00     0.052 C 
HETATM    9  C7  UNK     1      27.489  -5.556  38.445  1.00  0.00     0.084 C 
HETATM   10  C8  UNK     1      28.048  -6.550  37.450  1.00  0.00     0.158 C 
HETATM   11  C9  UNK     1      32.328  -7.235  37.479  1.00  0.00     0.018 C 
HETATM   12  C13 UNK     1      33.798  -7.376  37.773  1.00  0.00     0.069 C 
HETATM   13  H8  UNK     1      32.260  -5.676  38.830  1.00  0.00     0.165 HD
ENDROOT
BRANCH   3  14
HETATM   14  C10 UNK     1      29.853  -7.345  34.983  1.00  0.00     0.029 A 
HETATM   15  C11 UNK     1      29.250  -8.334  34.055  1.00  0.00     0.194 A 
HETATM   16  O4  UNK     1      28.958  -9.468  34.413  1.00  0.00    -0.287 OA
HETATM   17  C15 UNK     1      29.020  -7.878  32.672  1.00  0.00     0.049 A 
HETATM   18  C16 UNK     1      29.372  -6.575  32.320  1.00  0.00     0.089 A 
HETATM   19  C17 UNK     1      28.457  -8.735  31.724  1.00  0.00     0.025 A 
HETATM   20  O2  UNK     1      29.928  -5.692  33.211  1.00  0.00    -0.321 OA
HETATM   21  C18 UNK     1      29.164  -6.123  31.017  1.00  0.00     0.039 A 
HETATM   22  C14 UNK     1      30.137  -6.130  34.495  1.00  0.00     0.154 A 
HETATM   23  C21 UNK     1      28.602  -6.976  30.068  1.00  0.00     0.009 A 
HETATM   24  C19 UNK     1      28.249  -8.279  30.420  1.00  0.00    -0.061 A 
HETATM   25  C23 UNK     1      27.648  -9.188  29.401  1.00  0.00     0.048 C 
ENDBRANCH   3  14
BRANCH   8  26
HETATM   26  C12 UNK     1      32.198  -9.114  35.866  1.00  0.00     0.292 C 
HETATM   27  O5  UNK     1      31.924 -10.282  36.067  1.00  0.00    -0.259 OA
BRANCH  26  28
HETATM   28  O3  UNK     1      33.058  -8.599  34.954  1.00  0.00    -0.313 OA
BRANCH  28  29
HETATM   29  C20 UNK     1      33.517  -9.525  33.964  1.00  0.00     0.217 C 
BRANCH  29  30
HETATM   30  C22 UNK     1      32.996  -9.105  32.621  1.00  0.00    -0.034 A 
HETATM   31  C24 UNK     1      32.318 -10.022  31.827  1.00  0.00     0.012 A 
HETATM   32  C26 UNK     1      31.835  -9.631  30.578  1.00  0.00     0.037 A 
HETATM   33  C28 UNK     1      32.032  -8.324  30.132  1.00  0.00     0.068 A 
HETATM   34  C27 UNK     1      32.713  -7.409  30.935  1.00  0.00     0.037 A 
HETATM   35  C25 UNK     1      33.196  -7.800  32.183  1.00  0.00     0.012 A 
BRANCH  33  36
HETATM   36  O6  UNK     1      31.560  -7.942  28.914  1.00  0.00    -0.356 OA
HETATM   37  C29 UNK     1      31.105  -8.975  28.042  1.00  0.00     0.210 C 
ENDBRANCH  33  36
ENDBRANCH  29  30
ENDBRANCH  28  29
ENDBRANCH  26  28
ENDBRANCH   8  26
TORSDOF 6
ENDMDL
MODEL 8
REMARK VINA RESULT:      -8.8      2.512      6.843
REMARK  6 active torsions:
REMARK  status: ('A' for Active; 'I' for Inactive)
REMARK    1  A    between atoms: C12_19  and  O3_3 
REMARK    2  A    between atoms: C20_27  and  O3_3 
REMARK    3  A    between atoms: C28_35  and  O6_6 
REMARK    4  A    between atoms: C1_8  and  C10_17 
REMARK    5  A    between atoms: C12_19  and  C6_13 
REMARK    6  A    between atoms: C20_27  and  C22_29 
ROOT
HETATM    1  O1  UNK     1      30.125 -10.258  38.443  1.00  0.00    -0.293 OA
HETATM    2  N1  UNK     1      28.326  -5.926  39.098  1.00  0.00    -0.362 N 
HETATM    3  C1  UNK     1      30.537  -7.420  38.134  1.00  0.00     0.104 C 
HETATM    4  C2  UNK     1      29.254  -8.060  38.656  1.00  0.00     0.024 C 
HETATM    5  C3  UNK     1      28.220  -7.303  39.080  1.00  0.00     0.020 C 
HETATM    6  C4  UNK     1      26.913  -7.881  39.556  1.00  0.00     0.058 C 
HETATM    7  C5  UNK     1      26.693  -9.300  39.047  1.00  0.00     0.014 C 
HETATM    8  C6  UNK     1      30.569  -5.902  38.340  1.00  0.00     0.052 C 
HETATM    9  C7  UNK     1      27.908 -10.168  39.322  1.00  0.00     0.084 C 
HETATM   10  C8  UNK     1      29.168  -9.551  38.755  1.00  0.00     0.158 C 
HETATM   11  C9  UNK     1      29.483  -5.228  38.787  1.00  0.00     0.018 C 
HETATM   12  C13 UNK     1      29.394  -3.744  39.023  1.00  0.00     0.069 C 
HETATM   13  H8  UNK     1      27.531  -5.395  39.435  1.00  0.00     0.165 HD
ENDROOT
BRANCH   3  14
HETATM   14  C10 UNK     1      30.728  -7.752  36.679  1.00  0.00     0.029 A 
HETATM   15  C11 UNK     1      31.956  -8.484  36.275  1.00  0.00     0.194 A 
HETATM   16  O4  UNK     1      32.809  -8.821  37.084  1.00  0.00    -0.287 OA
HETATM   17  C15 UNK     1      32.094  -8.783  34.837  1.00  0.00     0.049 A 
HETATM   18  C16 UNK     1      31.090  -8.375  33.959  1.00  0.00     0.089 A 
HETATM   19  C17 UNK     1      33.213  -9.468  34.357  1.00  0.00     0.025 A 
HETATM   20  O2  UNK     1      29.971  -7.699  34.377  1.00  0.00    -0.321 OA
HETATM   21  C18 UNK     1      31.201  -8.647  32.595  1.00  0.00     0.039 A 
HETATM   22  C14 UNK     1      29.856  -7.427  35.717  1.00  0.00     0.154 A 
HETATM   23  C21 UNK     1      32.317  -9.330  32.113  1.00  0.00     0.009 A 
HETATM   24  C19 UNK     1      33.321  -9.740  32.992  1.00  0.00    -0.061 A 
HETATM   25  C23 UNK     1      34.512 -10.471  32.470  1.00  0.00     0.048 C 
ENDBRANCH   3  14
BRANCH   8  26
HETATM   26  C12 UNK     1      31.845  -5.235  38.032  1.00  0.00     0.292 C 
HETATM   27  O5  UNK     1      32.771  -5.168  38.818  1.00  0.00    -0.259 OA
BRANCH  26  28
HETATM   28  O3  UNK     1      31.777  -4.744  36.771  1.00  0.00    -0.313 OA
BRANCH  28  29
HETATM   29  C20 UNK     1      32.938  -4.029  36.336  1.00  0.00     0.217 C 
BRANCH  29  30
HETATM   30  C22 UNK     1      33.802  -4.946  35.522  1.00  0.00    -0.034 A 
HETATM   31  C24 UNK     1      33.400  -5.320  34.246  1.00  0.00     0.012 A 
HETATM   32  C26 UNK     1      34.204  -6.173  33.490  1.00  0.00     0.037 A 
HETATM   33  C28 UNK     1      35.405  -6.647  34.016  1.00  0.00     0.068 A 
HETATM   34  C27 UNK     1      35.803  -6.267  35.299  1.00  0.00     0.037 A 
HETATM   35  C25 UNK     1      34.999  -5.414  36.053  1.00  0.00     0.012 A 
BRANCH  33  36
HETATM   36  O6  UNK     1      36.190  -7.479  33.278  1.00  0.00    -0.356 OA
HETATM   37  C29 UNK     1      37.145  -8.268  33.985  1.00  0.00     0.210 C 
ENDBRANCH  33  36
ENDBRANCH  29  30
ENDBRANCH  28  29
ENDBRANCH  26  28
ENDBRANCH   8  26
TORSDOF 6
ENDMDL
MODEL 9
REMARK VINA RESULT:      -8.8      2.327      6.868
REMARK  6 active torsions:
REMARK  status: ('A' for Active; 'I' for Inactive)
REMARK    1  A    between atoms: C12_19  and  O3_3 
REMARK    2  A    between atoms: C20_27  and  O3_3 
REMARK    3  A    between atoms: C28_35  and  O6_6 
REMARK    4  A    between atoms: C1_8  and  C10_17 
REMARK    5  A    between atoms: C12_19  and  C6_13 
REMARK    6  A    between atoms: C20_27  and  C22_29 
ROOT
HETATM    1  O1  UNK     1      28.282 -10.103  38.638  1.00  0.00    -0.293 OA
HETATM    2  N1  UNK     1      28.458  -5.403  38.080  1.00  0.00    -0.362 N 
HETATM    3  C1  UNK     1      29.808  -7.861  37.655  1.00  0.00     0.104 C 
HETATM    4  C2  UNK     1      28.404  -7.766  38.242  1.00  0.00     0.024 C 
HETATM    5  C3  UNK     1      27.795  -6.571  38.401  1.00  0.00     0.020 C 
HETATM    6  C4  UNK     1      26.391  -6.423  38.926  1.00  0.00     0.058 C 
HETATM    7  C5  UNK     1      25.582  -7.705  38.776  1.00  0.00     0.014 C 
HETATM    8  C6  UNK     1      30.471  -6.492  37.476  1.00  0.00     0.052 C 
HETATM    9  C7  UNK     1      26.345  -8.894  39.332  1.00  0.00     0.084 C 
HETATM   10  C8  UNK     1      27.718  -9.012  38.705  1.00  0.00     0.158 C 
HETATM   11  C9  UNK     1      29.783  -5.343  37.674  1.00  0.00     0.018 C 
HETATM   12  C13 UNK     1      30.323  -3.946  37.526  1.00  0.00     0.069 C 
HETATM   13  H8  UNK     1      27.969  -4.527  38.226  1.00  0.00     0.165 HD
ENDROOT
BRANCH   3  14
HETATM   14  C10 UNK     1      29.773  -8.598  36.343  1.00  0.00     0.029 A 
HETATM   15  C11 UNK     1      30.683  -9.756  36.156  1.00  0.00     0.194 A 
HETATM   16  O4  UNK     1      31.455 -10.126  37.032  1.00  0.00    -0.287 OA
HETATM   17  C15 UNK     1      30.610 -10.442  34.853  1.00  0.00     0.049 A 
HETATM   18  C16 UNK     1      29.712  -9.977  33.891  1.00  0.00     0.089 A 
HETATM   19  C17 UNK     1      31.425 -11.543  34.580  1.00  0.00     0.025 A 
HETATM   20  O2  UNK     1      28.888  -8.901  34.107  1.00  0.00    -0.321 OA
HETATM   21  C18 UNK     1      29.625 -10.611  32.651  1.00  0.00     0.039 A 
HETATM   22  C14 UNK     1      28.968  -8.272  35.324  1.00  0.00     0.154 A 
HETATM   23  C21 UNK     1      30.439 -11.709  32.376  1.00  0.00     0.009 A 
HETATM   24  C19 UNK     1      31.336 -12.175  33.338  1.00  0.00    -0.061 A 
HETATM   25  C23 UNK     1      32.203 -13.351  33.038  1.00  0.00     0.048 C 
ENDBRANCH   3  14
BRANCH   8  26
HETATM   26  C12 UNK     1      31.892  -6.508  37.088  1.00  0.00     0.292 C 
HETATM   27  O5  UNK     1      32.775  -6.940  37.804  1.00  0.00    -0.259 OA
BRANCH  26  28
HETATM   28  O3  UNK     1      32.002  -5.974  35.848  1.00  0.00    -0.313 OA
BRANCH  28  29
HETATM   29  C20 UNK     1      32.615  -6.825  34.874  1.00  0.00     0.217 C 
BRANCH  29  30
HETATM   30  C22 UNK     1      31.831  -6.752  33.597  1.00  0.00    -0.034 A 
HETATM   31  C24 UNK     1      32.115  -7.636  32.563  1.00  0.00     0.012 A 
HETATM   32  C26 UNK     1      31.386  -7.567  31.375  1.00  0.00     0.037 A 
HETATM   33  C28 UNK     1      30.378  -6.614  31.231  1.00  0.00     0.068 A 
HETATM   34  C27 UNK     1      30.098  -5.731  32.273  1.00  0.00     0.037 A 
HETATM   35  C25 UNK     1      30.827  -5.800  33.460  1.00  0.00     0.012 A 
BRANCH  33  36
HETATM   36  O6  UNK     1      29.666  -6.547  30.072  1.00  0.00    -0.356 OA
HETATM   37  C29 UNK     1      29.476  -7.766  29.356  1.00  0.00     0.210 C 
ENDBRANCH  33  36
ENDBRANCH  29  30
ENDBRANCH  28  29
ENDBRANCH  26  28
ENDBRANCH   8  26
TORSDOF 6
ENDMDL
MODEL 10
REMARK VINA RESULT:      -8.7      1.984      3.474
REMARK  6 active torsions:
REMARK  status: ('A' for Active; 'I' for Inactive)
REMARK    1  A    between atoms: C12_19  and  O3_3 
REMARK    2  A    between atoms: C20_27  and  O3_3 
REMARK    3  A    between atoms: C28_35  and  O6_6 
REMARK    4  A    between atoms: C1_8  and  C10_17 
REMARK    5  A    between atoms: C12_19  and  C6_13 
REMARK    6  A    between atoms: C20_27  and  C22_29 
ROOT
HETATM    1  O1  UNK     1      29.017  -5.498  32.212  1.00  0.00    -0.293 OA
HETATM    2  N1  UNK     1      28.923 -10.135  31.255  1.00  0.00    -0.362 N 
HETATM    3  C1  UNK     1      29.947  -8.121  32.970  1.00  0.00     0.104 C 
HETATM    4  C2  UNK     1      28.948  -7.843  31.852  1.00  0.00     0.024 C 
HETATM    5  C3  UNK     1      28.472  -8.842  31.079  1.00  0.00     0.020 C 
HETATM    6  C4  UNK     1      27.446  -8.633  29.996  1.00  0.00     0.058 C 
HETATM    7  C5  UNK     1      26.655  -7.346  30.195  1.00  0.00     0.014 C 
HETATM    8  C6  UNK     1      30.462  -9.564  32.962  1.00  0.00     0.052 C 
HETATM    9  C7  UNK     1      27.587  -6.168  30.423  1.00  0.00     0.084 C 
HETATM   10  C8  UNK     1      28.539  -6.432  31.570  1.00  0.00     0.158 C 
HETATM   11  C9  UNK     1      29.931 -10.497  32.137  1.00  0.00     0.018 C 
HETATM   12  C13 UNK     1      30.349 -11.940  32.042  1.00  0.00     0.069 C 
HETATM   13  H8  UNK     1      28.549 -10.854  30.647  1.00  0.00     0.165 HD
ENDROOT
BRANCH   3  14
HETATM   14  C10 UNK     1      29.336  -7.794  34.306  1.00  0.00     0.029 A 
HETATM   15  C11 UNK     1      29.912  -6.676  35.094  1.00  0.00     0.194 A 
HETATM   16  O4  UNK     1      30.863  -6.018  34.693  1.00  0.00    -0.287 OA
HETATM   17  C15 UNK     1      29.276  -6.398  36.396  1.00  0.00     0.049 A 
HETATM   18  C16 UNK     1      28.196  -7.180  36.804  1.00  0.00     0.089 A 
HETATM   19  C17 UNK     1      29.746  -5.366  37.212  1.00  0.00     0.025 A 
HETATM   20  O2  UNK     1      27.695  -8.206  36.042  1.00  0.00    -0.321 OA
HETATM   21  C18 UNK     1      27.579  -6.935  38.031  1.00  0.00     0.039 A 
HETATM   22  C14 UNK     1      28.297  -8.453  34.833  1.00  0.00     0.154 A 
HETATM   23  C21 UNK     1      28.046  -5.906  38.848  1.00  0.00     0.009 A 
HETATM   24  C19 UNK     1      29.126  -5.123  38.440  1.00  0.00    -0.061 A 
HETATM   25  C23 UNK     1      29.621  -4.023  39.317  1.00  0.00     0.048 C 
ENDBRANCH   3  14
BRANCH   8  26
HETATM   26  C12 UNK     1      31.564  -9.862  33.892  1.00  0.00     0.292 C 
HETATM   27  O5  UNK     1      31.391 -10.305  35.012  1.00  0.00    -0.259 OA
BRANCH  26  28
HETATM   28  O3  UNK     1      32.733  -9.560  33.280  1.00  0.00    -0.313 OA
BRANCH  28  29
HETATM   29  C20 UNK     1      33.852  -9.395  34.158  1.00  0.00     0.217 C 
BRANCH  29  30
HETATM   30  C22 UNK     1      33.909  -7.967  34.616  1.00  0.00    -0.034 A 
HETATM   31  C24 UNK     1      33.714  -7.665  35.958  1.00  0.00     0.012 A 
HETATM   32  C26 UNK     1      33.766  -6.338  36.382  1.00  0.00     0.037 A 
HETATM   33  C28 UNK     1      34.014  -5.321  35.461  1.00  0.00     0.068 A 
HETATM   34  C27 UNK     1      34.208  -5.631  34.115  1.00  0.00     0.037 A 
HETATM   35  C25 UNK     1      34.156  -6.958  33.691  1.00  0.00     0.012 A 
BRANCH  33  36
HETATM   36  O6  UNK     1      34.065  -4.025  35.876  1.00  0.00    -0.356 OA
HETATM   37  C29 UNK     1      32.821  -3.364  36.097  1.00  0.00     0.210 C 
ENDBRANCH  33  36
ENDBRANCH  29  30
ENDBRANCH  28  29
ENDBRANCH  26  28
ENDBRANCH   8  26
TORSDOF 6
ENDMDL
