MODEL 1
REMARK VINA RESULT:      -7.5      0.000      0.000
REMARK  6 active torsions:
REMARK  status: ('A' for Active; 'I' for Inactive)
REMARK    1  A    between atoms: C12_17  and  O2_2 
REMARK    2  A    between atoms: C8_13  and  O2_2 
REMARK    3  A    between atoms: C15_20  and  O4_4 
REMARK    4  A    between atoms: C16_21  and  O4_4 
REMARK    5  A    between atoms: C3_8  and  C5_10 
REMARK    6  A    between atoms: C12_17  and  C15_20 
ROOT
HETATM    1  O1  UNK     1      16.107   6.280  32.637  1.00  0.00    -0.274 OA
HETATM    2  O3  UNK     1      14.582   7.495  33.798  1.00  0.00    -0.259 OA
HETATM    3  C1  UNK     1      18.137   7.983  33.636  1.00  0.00    -0.037 A 
HETATM    4  C2  UNK     1      18.466   6.870  32.720  1.00  0.00     0.005 A 
HETATM    5  C3  UNK     1      16.848   8.208  33.970  1.00  0.00     0.024 A 
HETATM    6  C4  UNK     1      17.439   6.056  32.254  1.00  0.00     0.092 A 
HETATM    7  C6  UNK     1      19.765   6.580  32.274  1.00  0.00     0.017 A 
HETATM    8  C7  UNK     1      17.662   4.984  31.386  1.00  0.00     0.075 A 
HETATM    9  C8  UNK     1      18.958   4.711  30.962  1.00  0.00     0.072 A 
HETATM   10  C9  UNK     1      15.754   7.323  33.477  1.00  0.00     0.295 A 
HETATM   11  C10 UNK     1      19.292   8.800  34.159  1.00  0.00     0.050 C 
HETATM   12  C11 UNK     1      20.009   5.510  31.404  1.00  0.00     0.038 A 
ENDROOT
BRANCH   9  13
HETATM   13  O2  UNK     1      19.197   3.673  30.117  1.00  0.00    -0.336 OA
BRANCH  13  14
HETATM   14  C12 UNK     1      18.290   2.572  30.165  1.00  0.00     0.224 C 
HETATM   15  C14 UNK     1      18.029   2.113  28.741  1.00  0.00     0.051 C 
BRANCH  14  16
HETATM   16  C15 UNK     1      18.911   1.468  30.998  1.00  0.00     0.288 C 
HETATM   17  O5  UNK     1      18.590   1.204  32.149  1.00  0.00    -0.262 OA
BRANCH  16  18
HETATM   18  O4  UNK     1      19.852   0.809  30.260  1.00  0.00    -0.320 OA
BRANCH  18  19
HETATM   19  C16 UNK     1      20.186  -0.504  30.719  1.00  0.00     0.174 C 
HETATM   20  C17 UNK     1      20.515  -1.375  29.524  1.00  0.00     0.034 C 
ENDBRANCH  18  19
ENDBRANCH  16  18
ENDBRANCH  14  16
ENDBRANCH  13  14
ENDBRANCH   9  13
BRANCH   5  21
HETATM   21  C5  UNK     1      16.369   9.342  34.839  1.00  0.00     0.041 C 
HETATM   22  C13 UNK     1      16.136  10.574  33.998  1.00  0.00     0.010 C 
ENDBRANCH   5  21
TORSDOF 6
ENDMDL
MODEL 2
REMARK VINA RESULT:      -7.4     22.449     24.518
REMARK  6 active torsions:
REMARK  status: ('A' for Active; 'I' for Inactive)
REMARK    1  A    between atoms: C12_17  and  O2_2 
REMARK    2  A    between atoms: C8_13  and  O2_2 
REMARK    3  A    between atoms: C15_20  and  O4_4 
REMARK    4  A    between atoms: C16_21  and  O4_4 
REMARK    5  A    between atoms: C3_8  and  C5_10 
REMARK    6  A    between atoms: C12_17  and  C15_20 
ROOT
HETATM    1  O1  UNK     1      12.950   8.928   9.558  1.00  0.00    -0.274 OA
HETATM    2  O3  UNK     1      14.117  10.706  10.352  1.00  0.00    -0.259 OA
HETATM    3  C1  UNK     1      15.313   7.377   9.722  1.00  0.00    -0.037 A 
HETATM    4  C2  UNK     1      14.053   6.785   9.226  1.00  0.00     0.005 A 
HETATM    5  C3  UNK     1      15.342   8.682  10.068  1.00  0.00     0.024 A 
HETATM    6  C4  UNK     1      12.915   7.582   9.163  1.00  0.00     0.092 A 
HETATM    7  C6  UNK     1      13.927   5.454   8.798  1.00  0.00     0.017 A 
HETATM    8  C7  UNK     1      11.684   7.102   8.707  1.00  0.00     0.075 A 
HETATM    9  C8  UNK     1      11.581   5.778   8.293  1.00  0.00     0.072 A 
HETATM   10  C9  UNK     1      14.114   9.527  10.010  1.00  0.00     0.295 A 
HETATM   11  C10 UNK     1      16.504   6.457   9.826  1.00  0.00     0.050 C 
HETATM   12  C11 UNK     1      12.703   4.955   8.337  1.00  0.00     0.038 A 
ENDROOT
BRANCH   9  13
HETATM   13  O2  UNK     1      10.393   5.292   7.845  1.00  0.00    -0.336 OA
BRANCH  13  14
HETATM   14  C12 UNK     1       9.469   6.232   7.297  1.00  0.00     0.224 C 
HETATM   15  C14 UNK     1       9.539   6.135   5.783  1.00  0.00     0.051 C 
BRANCH  14  16
HETATM   16  C15 UNK     1       8.082   5.904   7.810  1.00  0.00     0.288 C 
HETATM   17  O5  UNK     1       7.636   4.770   7.928  1.00  0.00    -0.262 OA
BRANCH  16  18
HETATM   18  O4  UNK     1       7.428   7.056   8.138  1.00  0.00    -0.320 OA
BRANCH  18  19
HETATM   19  C16 UNK     1       7.952   7.762   9.268  1.00  0.00     0.174 C 
HETATM   20  C17 UNK     1       7.238   7.291  10.518  1.00  0.00     0.034 C 
ENDBRANCH  18  19
ENDBRANCH  16  18
ENDBRANCH  14  16
ENDBRANCH  13  14
ENDBRANCH   9  13
BRANCH   5  21
HETATM   21  C5  UNK     1      16.570   9.425  10.526  1.00  0.00     0.041 C 
HETATM   22  C13 UNK     1      17.307   9.989   9.335  1.00  0.00     0.010 C 
ENDBRANCH   5  21
TORSDOF 6
ENDMDL
MODEL 3
REMARK VINA RESULT:      -7.3      3.459      5.704
REMARK  6 active torsions:
REMARK  status: ('A' for Active; 'I' for Inactive)
REMARK    1  A    between atoms: C12_17  and  O2_2 
REMARK    2  A    between atoms: C8_13  and  O2_2 
REMARK    3  A    between atoms: C15_20  and  O4_4 
REMARK    4  A    between atoms: C16_21  and  O4_4 
REMARK    5  A    between atoms: C3_8  and  C5_10 
REMARK    6  A    between atoms: C12_17  and  C15_20 
ROOT
HETATM    1  O1  UNK     1      18.458   1.753  31.266  1.00  0.00    -0.274 OA
HETATM    2  O3  UNK     1      18.538   3.088  29.431  1.00  0.00    -0.259 OA
HETATM    3  C1  UNK     1      18.333   4.077  32.879  1.00  0.00    -0.037 A 
HETATM    4  C2  UNK     1      18.330   2.731  33.490  1.00  0.00     0.005 A 
HETATM    5  C3  UNK     1      18.431   4.197  31.537  1.00  0.00     0.024 A 
HETATM    6  C4  UNK     1      18.391   1.616  32.661  1.00  0.00     0.092 A 
HETATM    7  C6  UNK     1      18.280   2.499  34.873  1.00  0.00     0.017 A 
HETATM    8  C7  UNK     1      18.394   0.309  33.156  1.00  0.00     0.075 A 
HETATM    9  C8  UNK     1      18.337   0.102  34.529  1.00  0.00     0.072 A 
HETATM   10  C9  UNK     1      18.483   2.996  30.654  1.00  0.00     0.295 A 
HETATM   11  C10 UNK     1      18.207   5.252  33.816  1.00  0.00     0.050 C 
HETATM   12  C11 UNK     1      18.282   1.196  35.388  1.00  0.00     0.038 A 
ENDROOT
BRANCH   9  13
HETATM   13  O2  UNK     1      18.340  -1.162  35.032  1.00  0.00    -0.336 OA
BRANCH  13  14
HETATM   14  C12 UNK     1      19.462  -1.545  35.826  1.00  0.00     0.224 C 
HETATM   15  C14 UNK     1      18.944  -2.058  37.159  1.00  0.00     0.051 C 
BRANCH  14  16
HETATM   16  C15 UNK     1      20.239  -2.614  35.085  1.00  0.00     0.288 C 
HETATM   17  O5  UNK     1      20.189  -3.810  35.341  1.00  0.00    -0.262 OA
BRANCH  16  18
HETATM   18  O4  UNK     1      20.970  -2.041  34.085  1.00  0.00    -0.320 OA
BRANCH  18  19
HETATM   19  C16 UNK     1      21.064  -2.801  32.876  1.00  0.00     0.174 C 
HETATM   20  C17 UNK     1      20.577  -1.953  31.721  1.00  0.00     0.034 C 
ENDBRANCH  18  19
ENDBRANCH  16  18
ENDBRANCH  14  16
ENDBRANCH  13  14
ENDBRANCH   9  13
BRANCH   5  21
HETATM   21  C5  UNK     1      18.508   5.504  30.792  1.00  0.00     0.041 C 
HETATM   22  C13 UNK     1      19.950   5.926  30.640  1.00  0.00     0.010 C 
ENDBRANCH   5  21
TORSDOF 6
ENDMDL
MODEL 4
REMARK VINA RESULT:      -7.2      1.660      2.225
REMARK  6 active torsions:
REMARK  status: ('A' for Active; 'I' for Inactive)
REMARK    1  A    between atoms: C12_17  and  O2_2 
REMARK    2  A    between atoms: C8_13  and  O2_2 
REMARK    3  A    between atoms: C15_20  and  O4_4 
REMARK    4  A    between atoms: C16_21  and  O4_4 
REMARK    5  A    between atoms: C3_8  and  C5_10 
REMARK    6  A    between atoms: C12_17  and  C15_20 
ROOT
HETATM    1  O1  UNK     1      16.222   8.510  33.130  1.00  0.00    -0.274 OA
HETATM    2  O3  UNK     1      15.571  10.611  33.691  1.00  0.00    -0.259 OA
HETATM    3  C1  UNK     1      18.840   9.154  33.996  1.00  0.00    -0.037 A 
HETATM    4  C2  UNK     1      18.532   7.815  33.450  1.00  0.00     0.005 A 
HETATM    5  C3  UNK     1      17.867  10.089  34.049  1.00  0.00     0.024 A 
HETATM    6  C4  UNK     1      17.233   7.540  33.037  1.00  0.00     0.092 A 
HETATM    7  C6  UNK     1      19.480   6.790  33.307  1.00  0.00     0.017 A 
HETATM    8  C7  UNK     1      16.856   6.302  32.509  1.00  0.00     0.075 A 
HETATM    9  C8  UNK     1      17.810   5.298  32.383  1.00  0.00     0.072 A 
HETATM   10  C9  UNK     1      16.473   9.782  33.618  1.00  0.00     0.295 A 
HETATM   11  C10 UNK     1      20.249   9.384  34.483  1.00  0.00     0.050 C 
HETATM   12  C11 UNK     1      19.122   5.543  32.780  1.00  0.00     0.038 A 
ENDROOT
BRANCH   9  13
HETATM   13  O2  UNK     1      17.465   4.087  31.871  1.00  0.00    -0.336 OA
BRANCH  13  14
HETATM   14  C12 UNK     1      18.480   3.083  31.832  1.00  0.00     0.224 C 
HETATM   15  C14 UNK     1      18.169   2.055  32.906  1.00  0.00     0.051 C 
BRANCH  14  16
HETATM   16  C15 UNK     1      18.490   2.458  30.453  1.00  0.00     0.288 C 
HETATM   17  O5  UNK     1      18.395   3.085  29.406  1.00  0.00    -0.262 OA
BRANCH  16  18
HETATM   18  O4  UNK     1      18.648   1.106  30.562  1.00  0.00    -0.320 OA
BRANCH  18  19
HETATM   19  C16 UNK     1      19.693   0.540  29.764  1.00  0.00     0.174 C 
HETATM   20  C17 UNK     1      20.590  -0.299  30.649  1.00  0.00     0.034 C 
ENDBRANCH  18  19
ENDBRANCH  16  18
ENDBRANCH  14  16
ENDBRANCH  13  14
ENDBRANCH   9  13
BRANCH   5  21
HETATM   21  C5  UNK     1      18.060  11.507  34.521  1.00  0.00     0.041 C 
HETATM   22  C13 UNK     1      18.641  12.346  33.409  1.00  0.00     0.010 C 
ENDBRANCH   5  21
TORSDOF 6
ENDMDL
MODEL 5
REMARK VINA RESULT:      -7.1      2.188      3.737
REMARK  6 active torsions:
REMARK  status: ('A' for Active; 'I' for Inactive)
REMARK    1  A    between atoms: C12_17  and  O2_2 
REMARK    2  A    between atoms: C8_13  and  O2_2 
REMARK    3  A    between atoms: C15_20  and  O4_4 
REMARK    4  A    between atoms: C16_21  and  O4_4 
REMARK    5  A    between atoms: C3_8  and  C5_10 
REMARK    6  A    between atoms: C12_17  and  C15_20 
ROOT
HETATM    1  O1  UNK     1      18.437  10.309  33.729  1.00  0.00    -0.274 OA
HETATM    2  O3  UNK     1      18.330  12.504  34.298  1.00  0.00    -0.259 OA
HETATM    3  C1  UNK     1      15.680  10.078  34.335  1.00  0.00    -0.037 A 
HETATM    4  C2  UNK     1      16.453   8.907  33.869  1.00  0.00     0.005 A 
HETATM    5  C3  UNK     1      16.307  11.262  34.505  1.00  0.00     0.024 A 
HETATM    6  C4  UNK     1      17.805   9.065  33.581  1.00  0.00     0.092 A 
HETATM    7  C6  UNK     1      15.909   7.624  33.706  1.00  0.00     0.017 A 
HETATM    8  C7  UNK     1      18.608   8.011  33.137  1.00  0.00     0.075 A 
HETATM    9  C8  UNK     1      18.046   6.749  32.976  1.00  0.00     0.072 A 
HETATM   10  C9  UNK     1      17.754  11.426  34.181  1.00  0.00     0.295 A 
HETATM   11  C10 UNK     1      14.206   9.870  34.578  1.00  0.00     0.050 C 
HETATM   12  C11 UNK     1      16.698   6.555  33.262  1.00  0.00     0.038 A 
ENDROOT
BRANCH   9  13
HETATM   13  O2  UNK     1      18.810   5.710  32.546  1.00  0.00    -0.336 OA
BRANCH  13  14
HETATM   14  C12 UNK     1      18.616   5.271  31.201  1.00  0.00     0.224 C 
HETATM   15  C14 UNK     1      19.821   5.702  30.384  1.00  0.00     0.051 C 
BRANCH  14  16
HETATM   16  C15 UNK     1      18.457   3.764  31.201  1.00  0.00     0.288 C 
HETATM   17  O5  UNK     1      17.896   3.126  32.082  1.00  0.00    -0.262 OA
BRANCH  16  18
HETATM   18  O4  UNK     1      19.007   3.243  30.066  1.00  0.00    -0.320 OA
BRANCH  18  19
HETATM   19  C16 UNK     1      18.722   1.863  29.819  1.00  0.00     0.174 C 
HETATM   20  C17 UNK     1      17.838   1.754  28.594  1.00  0.00     0.034 C 
ENDBRANCH  18  19
ENDBRANCH  16  18
ENDBRANCH  14  16
ENDBRANCH  13  14
ENDBRANCH   9  13
BRANCH   5  21
HETATM   21  C5  UNK     1      15.656  12.515  35.032  1.00  0.00     0.041 C 
HETATM   22  C13 UNK     1      15.054  13.301  33.892  1.00  0.00     0.010 C 
ENDBRANCH   5  21
TORSDOF 6
ENDMDL
MODEL 6
REMARK VINA RESULT:      -6.9      4.374      6.714
REMARK  6 active torsions:
REMARK  status: ('A' for Active; 'I' for Inactive)
REMARK    1  A    between atoms: C12_17  and  O2_2 
REMARK    2  A    between atoms: C8_13  and  O2_2 
REMARK    3  A    between atoms: C15_20  and  O4_4 
REMARK    4  A    between atoms: C16_21  and  O4_4 
REMARK    5  A    between atoms: C3_8  and  C5_10 
REMARK    6  A    between atoms: C12_17  and  C15_20 
ROOT
HETATM    1  O1  UNK     1      18.757   0.950  31.149  1.00  0.00    -0.274 OA
HETATM    2  O3  UNK     1      19.021   1.952  29.130  1.00  0.00    -0.259 OA
HETATM    3  C1  UNK     1      18.342   3.505  32.297  1.00  0.00    -0.037 A 
HETATM    4  C2  UNK     1      18.311   2.286  33.133  1.00  0.00     0.005 A 
HETATM    5  C3  UNK     1      18.606   3.398  30.977  1.00  0.00     0.024 A 
HETATM    6  C4  UNK     1      18.518   1.051  32.529  1.00  0.00     0.092 A 
HETATM    7  C6  UNK     1      18.094   2.292  34.520  1.00  0.00     0.017 A 
HETATM    8  C7  UNK     1      18.505  -0.149  33.245  1.00  0.00     0.075 A 
HETATM    9  C8  UNK     1      18.281  -0.120  34.617  1.00  0.00     0.072 A 
HETATM   10  C9  UNK     1      18.814   2.068  30.334  1.00  0.00     0.295 A 
HETATM   11  C10 UNK     1      18.055   4.814  32.989  1.00  0.00     0.050 C 
HETATM   12  C11 UNK     1      18.078   1.100  35.254  1.00  0.00     0.038 A 
ENDROOT
BRANCH   9  13
HETATM   13  O2  UNK     1      18.266  -1.277  35.332  1.00  0.00    -0.336 OA
BRANCH  13  14
HETATM   14  C12 UNK     1      19.158  -1.367  36.443  1.00  0.00     0.224 C 
HETATM   15  C14 UNK     1      18.348  -1.750  37.669  1.00  0.00     0.051 C 
BRANCH  14  16
HETATM   16  C15 UNK     1      20.216  -2.406  36.132  1.00  0.00     0.288 C 
HETATM   17  O5  UNK     1      21.267  -2.173  35.550  1.00  0.00    -0.262 OA
BRANCH  16  18
HETATM   18  O4  UNK     1      19.826  -3.620  36.620  1.00  0.00    -0.320 OA
BRANCH  18  19
HETATM   19  C16 UNK     1      20.794  -4.301  37.425  1.00  0.00     0.174 C 
HETATM   20  C17 UNK     1      20.669  -5.792  37.191  1.00  0.00     0.034 C 
ENDBRANCH  18  19
ENDBRANCH  16  18
ENDBRANCH  14  16
ENDBRANCH  13  14
ENDBRANCH   9  13
BRANCH   5  21
HETATM   21  C5  UNK     1      18.730   4.560  30.026  1.00  0.00     0.041 C 
HETATM   22  C13 UNK     1      19.918   5.412  30.405  1.00  0.00     0.010 C 
ENDBRANCH   5  21
TORSDOF 6
ENDMDL
MODEL 7
REMARK VINA RESULT:      -6.9      7.024     11.859
REMARK  6 active torsions:
REMARK  status: ('A' for Active; 'I' for Inactive)
REMARK    1  A    between atoms: C12_17  and  O2_2 
REMARK    2  A    between atoms: C8_13  and  O2_2 
REMARK    3  A    between atoms: C15_20  and  O4_4 
REMARK    4  A    between atoms: C16_21  and  O4_4 
REMARK    5  A    between atoms: C3_8  and  C5_10 
REMARK    6  A    between atoms: C12_17  and  C15_20 
ROOT
HETATM    1  O1  UNK     1      20.373  -5.812  34.705  1.00  0.00    -0.274 OA
HETATM    2  O3  UNK     1      20.570  -8.033  34.282  1.00  0.00    -0.259 OA
HETATM    3  C1  UNK     1      20.232  -6.411  37.469  1.00  0.00    -0.037 A 
HETATM    4  C2  UNK     1      20.148  -5.014  36.993  1.00  0.00     0.005 A 
HETATM    5  C3  UNK     1      20.342  -7.413  36.571  1.00  0.00     0.024 A 
HETATM    6  C4  UNK     1      20.223  -4.764  35.626  1.00  0.00     0.092 A 
HETATM    7  C6  UNK     1      19.985  -3.905  37.838  1.00  0.00     0.017 A 
HETATM    8  C7  UNK     1      20.152  -3.474  35.092  1.00  0.00     0.075 A 
HETATM    9  C8  UNK     1      19.997  -2.390  35.949  1.00  0.00     0.072 A 
HETATM   10  C9  UNK     1      20.436  -7.136  35.108  1.00  0.00     0.295 A 
HETATM   11  C10 UNK     1      20.204  -6.624  38.962  1.00  0.00     0.050 C 
HETATM   12  C11 UNK     1      19.911  -2.606  37.321  1.00  0.00     0.038 A 
ENDROOT
BRANCH   9  13
HETATM   13  O2  UNK     1      19.925  -1.128  35.449  1.00  0.00    -0.336 OA
BRANCH  13  14
HETATM   14  C12 UNK     1      18.645  -0.495  35.460  1.00  0.00     0.224 C 
HETATM   15  C14 UNK     1      18.838   0.952  35.877  1.00  0.00     0.051 C 
BRANCH  14  16
HETATM   16  C15 UNK     1      18.042  -0.597  34.074  1.00  0.00     0.288 C 
HETATM   17  O5  UNK     1      16.853  -0.780  33.847  1.00  0.00    -0.262 OA
BRANCH  16  18
HETATM   18  O4  UNK     1      19.017  -0.427  33.134  1.00  0.00    -0.320 OA
BRANCH  18  19
HETATM   19  C16 UNK     1      19.023  -1.385  32.071  1.00  0.00     0.174 C 
HETATM   20  C17 UNK     1      20.456  -1.734  31.730  1.00  0.00     0.034 C 
ENDBRANCH  18  19
ENDBRANCH  16  18
ENDBRANCH  14  16
ENDBRANCH  13  14
ENDBRANCH   9  13
BRANCH   5  21
HETATM   21  C5  UNK     1      20.373  -8.879  36.915  1.00  0.00     0.041 C 
HETATM   22  C13 UNK     1      18.966  -9.400  37.081  1.00  0.00     0.010 C 
ENDBRANCH   5  21
TORSDOF 6
ENDMDL
MODEL 8
REMARK VINA RESULT:      -6.9      1.561      2.924
REMARK  6 active torsions:
REMARK  status: ('A' for Active; 'I' for Inactive)
REMARK    1  A    between atoms: C12_17  and  O2_2 
REMARK    2  A    between atoms: C8_13  and  O2_2 
REMARK    3  A    between atoms: C15_20  and  O4_4 
REMARK    4  A    between atoms: C16_21  and  O4_4 
REMARK    5  A    between atoms: C3_8  and  C5_10 
REMARK    6  A    between atoms: C12_17  and  C15_20 
ROOT
HETATM    1  O1  UNK     1      15.223   8.711  33.147  1.00  0.00    -0.274 OA
HETATM    2  O3  UNK     1      13.609  10.301  33.286  1.00  0.00    -0.259 OA
HETATM    3  C1  UNK     1      17.112  10.636  34.011  1.00  0.00    -0.037 A 
HETATM    4  C2  UNK     1      17.530   9.252  33.701  1.00  0.00     0.005 A 
HETATM    5  C3  UNK     1      15.819  10.991  33.846  1.00  0.00     0.024 A 
HETATM    6  C4  UNK     1      16.569   8.337  33.282  1.00  0.00     0.092 A 
HETATM    7  C6  UNK     1      18.853   8.794  33.793  1.00  0.00     0.017 A 
HETATM    8  C7  UNK     1      16.879   7.011  32.968  1.00  0.00     0.075 A 
HETATM    9  C8  UNK     1      18.196   6.577  33.073  1.00  0.00     0.072 A 
HETATM   10  C9  UNK     1      14.793  10.001  33.409  1.00  0.00     0.295 A 
HETATM   11  C10 UNK     1      18.179  11.574  34.517  1.00  0.00     0.050 C 
HETATM   12  C11 UNK     1      19.183   7.469  33.483  1.00  0.00     0.038 A 
ENDROOT
BRANCH   9  13
HETATM   13  O2  UNK     1      18.518   5.291  32.772  1.00  0.00    -0.336 OA
BRANCH  13  14
HETATM   14  C12 UNK     1      18.338   4.874  31.419  1.00  0.00     0.224 C 
HETATM   15  C14 UNK     1      19.493   5.420  30.598  1.00  0.00     0.051 C 
BRANCH  14  16
HETATM   16  C15 UNK     1      18.299   3.360  31.380  1.00  0.00     0.288 C 
HETATM   17  O5  UNK     1      17.595   2.665  32.102  1.00  0.00    -0.262 OA
BRANCH  16  18
HETATM   18  O4  UNK     1      19.141   2.902  30.408  1.00  0.00    -0.320 OA
BRANCH  18  19
HETATM   19  C16 UNK     1      18.776   1.654  29.812  1.00  0.00     0.174 C 
HETATM   20  C17 UNK     1      17.862   1.918  28.633  1.00  0.00     0.034 C 
ENDBRANCH  18  19
ENDBRANCH  16  18
ENDBRANCH  14  16
ENDBRANCH  13  14
ENDBRANCH   9  13
BRANCH   5  21
HETATM   21  C5  UNK     1      15.272  12.378  34.063  1.00  0.00     0.041 C 
HETATM   22  C13 UNK     1      14.864  12.552  35.506  1.00  0.00     0.010 C 
ENDBRANCH   5  21
TORSDOF 6
ENDMDL
MODEL 9
REMARK VINA RESULT:      -6.9     15.332     18.078
REMARK  6 active torsions:
REMARK  status: ('A' for Active; 'I' for Inactive)
REMARK    1  A    between atoms: C12_17  and  O2_2 
REMARK    2  A    between atoms: C8_13  and  O2_2 
REMARK    3  A    between atoms: C15_20  and  O4_4 
REMARK    4  A    between atoms: C16_21  and  O4_4 
REMARK    5  A    between atoms: C3_8  and  C5_10 
REMARK    6  A    between atoms: C12_17  and  C15_20 
ROOT
HETATM    1  O1  UNK     1      32.084  -7.121  37.364  1.00  0.00    -0.274 OA
HETATM    2  O3  UNK     1      34.080  -7.561  36.376  1.00  0.00    -0.259 OA
HETATM    3  C1  UNK     1      32.431  -4.387  36.715  1.00  0.00    -0.037 A 
HETATM    4  C2  UNK     1      31.229  -4.844  37.444  1.00  0.00     0.005 A 
HETATM    5  C3  UNK     1      33.389  -5.281  36.387  1.00  0.00     0.024 A 
HETATM    6  C4  UNK     1      31.097  -6.197  37.741  1.00  0.00     0.092 A 
HETATM    7  C6  UNK     1      30.200  -3.992  37.872  1.00  0.00     0.017 A 
HETATM    8  C7  UNK     1      29.994  -6.713  38.426  1.00  0.00     0.075 A 
HETATM    9  C8  UNK     1      28.983  -5.851  38.835  1.00  0.00     0.072 A 
HETATM   10  C9  UNK     1      33.234  -6.731  36.698  1.00  0.00     0.295 A 
HETATM   11  C10 UNK     1      32.500  -2.921  36.366  1.00  0.00     0.050 C 
HETATM   12  C11 UNK     1      29.087  -4.490  38.560  1.00  0.00     0.038 A 
ENDROOT
BRANCH   9  13
HETATM   13  O2  UNK     1      27.901  -6.332  39.504  1.00  0.00    -0.336 OA
BRANCH  13  14
HETATM   14  C12 UNK     1      26.985  -7.139  38.765  1.00  0.00     0.224 C 
HETATM   15  C14 UNK     1      26.901  -8.497  39.440  1.00  0.00     0.051 C 
BRANCH  14  16
HETATM   16  C15 UNK     1      25.637  -6.448  38.743  1.00  0.00     0.288 C 
HETATM   17  O5  UNK     1      25.481  -5.234  38.693  1.00  0.00    -0.262 OA
BRANCH  16  18
HETATM   18  O4  UNK     1      24.641  -7.380  38.761  1.00  0.00    -0.320 OA
BRANCH  18  19
HETATM   19  C16 UNK     1      23.366  -6.914  39.214  1.00  0.00     0.174 C 
HETATM   20  C17 UNK     1      22.565  -8.090  39.730  1.00  0.00     0.034 C 
ENDBRANCH  18  19
ENDBRANCH  16  18
ENDBRANCH  14  16
ENDBRANCH  13  14
ENDBRANCH   9  13
BRANCH   5  21
HETATM   21  C5  UNK     1      34.688  -4.941  35.704  1.00  0.00     0.041 C 
HETATM   22  C13 UNK     1      34.517  -5.015  34.206  1.00  0.00     0.010 C 
ENDBRANCH   5  21
TORSDOF 6
ENDMDL
MODEL 10
REMARK VINA RESULT:      -6.8     21.748     24.374
REMARK  6 active torsions:
REMARK  status: ('A' for Active; 'I' for Inactive)
REMARK    1  A    between atoms: C12_17  and  O2_2 
REMARK    2  A    between atoms: C8_13  and  O2_2 
REMARK    3  A    between atoms: C15_20  and  O4_4 
REMARK    4  A    between atoms: C16_21  and  O4_4 
REMARK    5  A    between atoms: C3_8  and  C5_10 
REMARK    6  A    between atoms: C12_17  and  C15_20 
ROOT
HETATM    1  O1  UNK     1      13.653   4.848   9.209  1.00  0.00    -0.274 OA
HETATM    2  O3  UNK     1      15.831   4.413   9.677  1.00  0.00    -0.259 OA
HETATM    3  C1  UNK     1      14.294   7.602   9.065  1.00  0.00    -0.037 A 
HETATM    4  C2  UNK     1      12.908   7.136   8.850  1.00  0.00     0.005 A 
HETATM    5  C3  UNK     1      15.257   6.705   9.368  1.00  0.00     0.024 A 
HETATM    6  C4  UNK     1      12.636   5.774   8.928  1.00  0.00     0.092 A 
HETATM    7  C6  UNK     1      11.827   7.990   8.579  1.00  0.00     0.017 A 
HETATM    8  C7  UNK     1      11.355   5.250   8.739  1.00  0.00     0.075 A 
HETATM    9  C8  UNK     1      10.300   6.114   8.464  1.00  0.00     0.072 A 
HETATM   10  C9  UNK     1      14.960   5.244   9.436  1.00  0.00     0.295 A 
HETATM   11  C10 UNK     1      14.548   9.081   8.913  1.00  0.00     0.050 C 
HETATM   12  C11 UNK     1      10.536   7.483   8.386  1.00  0.00     0.038 A 
ENDROOT
BRANCH   9  13
HETATM   13  O2  UNK     1       9.046   5.624   8.277  1.00  0.00    -0.336 OA
BRANCH  13  14
HETATM   14  C12 UNK     1       8.214   5.506   9.431  1.00  0.00     0.224 C 
HETATM   15  C14 UNK     1       7.359   6.757   9.527  1.00  0.00     0.051 C 
BRANCH  14  16
HETATM   16  C15 UNK     1       7.362   4.262   9.289  1.00  0.00     0.288 C 
HETATM   17  O5  UNK     1       6.988   3.794   8.221  1.00  0.00    -0.262 OA
BRANCH  16  18
HETATM   18  O4  UNK     1       7.103   3.737  10.523  1.00  0.00    -0.320 OA
BRANCH  18  19
HETATM   19  C16 UNK     1       5.720   3.541  10.833  1.00  0.00     0.174 C 
HETATM   20  C17 UNK     1       5.436   2.055  10.903  1.00  0.00     0.034 C 
ENDBRANCH  18  19
ENDBRANCH  16  18
ENDBRANCH  14  16
ENDBRANCH  13  14
ENDBRANCH   9  13
BRANCH   5  21
HETATM   21  C5  UNK     1      16.692   7.049   9.673  1.00  0.00     0.041 C 
HETATM   22  C13 UNK     1      16.811   7.550  11.092  1.00  0.00     0.010 C 
ENDBRANCH   5  21
TORSDOF 6
ENDMDL
