MODEL 1
REMARK VINA RESULT:      -9.7      0.000      0.000
REMARK  3 active torsions:
REMARK  status: ('A' for Active; 'I' for Inactive)
REMARK    1  A    between atoms: C16_24  and  O2_4 
REMARK       I    between atoms: C11_19  and  N1_7 
REMARK    2  A    between atoms: C5_13  and  N1_7 
REMARK    3  A    between atoms: C11_19  and  C6_14 
ROOT
HETATM    1  S1  UNK     1      18.605   8.983  33.972  1.00  0.00    -0.075 SA
HETATM    2  N2  UNK     1      14.687   7.180  31.269  1.00  0.00    -0.191 NA
HETATM    3  C1  UNK     1      18.090   6.982  32.445  1.00  0.00     0.011 A 
HETATM    4  C2  UNK     1      19.100   7.537  33.200  1.00  0.00    -0.006 A 
HETATM    5  C3  UNK     1      18.306   5.757  31.714  1.00  0.00    -0.023 A 
HETATM    6  C4  UNK     1      16.895   7.755  32.500  1.00  0.00     0.090 A 
HETATM    7  C5  UNK     1      17.055   8.851  33.288  1.00  0.00     0.099 A 
HETATM    8  C8  UNK     1      18.778   5.807  30.407  1.00  0.00     0.015 A 
HETATM    9  C9  UNK     1      18.041   4.534  32.324  1.00  0.00     0.015 A 
HETATM   10  C10 UNK     1      20.486   7.060  33.416  1.00  0.00     0.057 C 
HETATM   11  C14 UNK     1      18.986   4.622  29.700  1.00  0.00     0.037 A 
HETATM   12  C15 UNK     1      18.251   3.350  31.617  1.00  0.00     0.037 A 
HETATM   13  C16 UNK     1      18.722   3.394  30.305  1.00  0.00     0.068 A 
HETATM   14  C20 UNK     1      15.676   7.437  31.820  1.00  0.00     0.103 C 
ENDROOT
BRANCH   7  15
HETATM   15  N1  UNK     1      16.159   9.870  33.621  1.00  0.00    -0.316 N 
HETATM   16  C11 UNK     1      14.916   9.705  34.217  1.00  0.00     0.262 C 
HETATM   17  O3  UNK     1      14.364   8.663  34.564  1.00  0.00    -0.267 OA
HETATM   18  H1  UNK     1      16.571  10.800  33.603  1.00  0.00     0.170 HD
BRANCH  16  19
HETATM   19  C6  UNK     1      14.235  10.989  34.428  1.00  0.00     0.108 A 
HETATM   20  C12 UNK     1      13.113  11.186  33.727  1.00  0.00     0.037 A 
HETATM   21  C7  UNK     1      12.368  12.428  33.868  1.00  0.00     0.000 A 
HETATM   22  C13 UNK     1      12.842  13.401  34.742  1.00  0.00     0.089 A 
HETATM   23  C18 UNK     1      11.192  12.676  33.156  1.00  0.00     0.033 A 
HETATM   24  O1  UNK     1      14.025  13.188  35.478  1.00  0.00    -0.274 OA
HETATM   25  C19 UNK     1      12.177  14.612  34.923  1.00  0.00     0.039 A 
HETATM   26  C17 UNK     1      14.759  12.011  35.362  1.00  0.00     0.304 A 
HETATM   27  O4  UNK     1      15.787  11.834  36.008  1.00  0.00    -0.259 OA
HETATM   28  C22 UNK     1      11.005  14.851  34.209  1.00  0.00     0.022 A 
HETATM   29  C21 UNK     1      10.514  13.886  33.328  1.00  0.00     0.011 A 
HETATM   30 Br1  UNK     1       8.921  14.217  32.363  1.00  0.00    -0.051 Br
ENDBRANCH  16  19
ENDBRANCH   7  15
BRANCH  13  31
HETATM   31  O2  UNK     1      18.927   2.237  29.616  1.00  0.00    -0.356 OA
HETATM   32  C23 UNK     1      17.911   1.839  28.698  1.00  0.00     0.210 C 
ENDBRANCH  13  31
TORSDOF 3
ENDMDL
MODEL 2
REMARK VINA RESULT:      -9.3      2.458      2.982
REMARK  3 active torsions:
REMARK  status: ('A' for Active; 'I' for Inactive)
REMARK    1  A    between atoms: C16_24  and  O2_4 
REMARK       I    between atoms: C11_19  and  N1_7 
REMARK    2  A    between atoms: C5_13  and  N1_7 
REMARK    3  A    between atoms: C11_19  and  C6_14 
ROOT
HETATM    1  S1  UNK     1      19.161   8.249  34.153  1.00  0.00    -0.075 SA
HETATM    2  N2  UNK     1      14.842   6.783  31.893  1.00  0.00    -0.191 NA
HETATM    3  C1  UNK     1      18.384   6.454  32.488  1.00  0.00     0.011 A 
HETATM    4  C2  UNK     1      19.508   6.914  33.139  1.00  0.00    -0.006 A 
HETATM    5  C3  UNK     1      18.465   5.333  31.584  1.00  0.00    -0.023 A 
HETATM    6  C4  UNK     1      17.224   7.209  32.825  1.00  0.00     0.090 A 
HETATM    7  C5  UNK     1      17.522   8.196  33.710  1.00  0.00     0.099 A 
HETATM    8  C8  UNK     1      18.727   5.549  30.236  1.00  0.00     0.015 A 
HETATM    9  C9  UNK     1      18.279   4.040  32.069  1.00  0.00     0.015 A 
HETATM   10  C10 UNK     1      20.903   6.420  33.073  1.00  0.00     0.057 C 
HETATM   11  C14 UNK     1      18.805   4.464  29.362  1.00  0.00     0.037 A 
HETATM   12  C15 UNK     1      18.358   2.956  31.196  1.00  0.00     0.037 A 
HETATM   13  C16 UNK     1      18.619   3.168  29.842  1.00  0.00     0.068 A 
HETATM   14  C20 UNK     1      15.909   6.974  32.310  1.00  0.00     0.103 C 
ENDROOT
BRANCH   7  15
HETATM   15  N1  UNK     1      16.704   9.162  34.304  1.00  0.00    -0.316 N 
HETATM   16  C11 UNK     1      16.808  10.536  34.141  1.00  0.00     0.262 C 
HETATM   17  O3  UNK     1      17.614  11.169  33.463  1.00  0.00    -0.267 OA
HETATM   18  H1  UNK     1      15.851   8.782  34.711  1.00  0.00     0.170 HD
BRANCH  16  19
HETATM   19  C6  UNK     1      15.787  11.257  34.910  1.00  0.00     0.108 A 
HETATM   20  C12 UNK     1      16.205  12.335  35.585  1.00  0.00     0.037 A 
HETATM   21  C7  UNK     1      15.265  13.115  36.376  1.00  0.00     0.000 A 
HETATM   22  C13 UNK     1      13.931  12.722  36.418  1.00  0.00     0.089 A 
HETATM   23  C18 UNK     1      15.657  14.246  37.097  1.00  0.00     0.033 A 
HETATM   24  O1  UNK     1      13.497  11.587  35.705  1.00  0.00    -0.274 OA
HETATM   25  C19 UNK     1      12.982  13.425  37.157  1.00  0.00     0.039 A 
HETATM   26  C17 UNK     1      14.372  10.820  34.940  1.00  0.00     0.304 A 
HETATM   27  O4  UNK     1      13.985   9.834  34.323  1.00  0.00    -0.259 OA
HETATM   28  C22 UNK     1      13.381  14.551  37.872  1.00  0.00     0.022 A 
HETATM   29  C21 UNK     1      14.716  14.961  37.842  1.00  0.00     0.011 A 
HETATM   30 Br1  UNK     1      15.251  16.492  38.814  1.00  0.00    -0.051 Br
ENDBRANCH  16  19
ENDBRANCH   7  15
BRANCH  13  31
HETATM   31  O2  UNK     1      18.697   2.108  28.990  1.00  0.00    -0.356 OA
HETATM   32  C23 UNK     1      19.384   0.949  29.456  1.00  0.00     0.210 C 
ENDBRANCH  13  31
TORSDOF 3
ENDMDL
MODEL 3
REMARK VINA RESULT:      -9.3      2.050      2.594
REMARK  3 active torsions:
REMARK  status: ('A' for Active; 'I' for Inactive)
REMARK    1  A    between atoms: C16_24  and  O2_4 
REMARK       I    between atoms: C11_19  and  N1_7 
REMARK    2  A    between atoms: C5_13  and  N1_7 
REMARK    3  A    between atoms: C11_19  and  C6_14 
ROOT
HETATM    1  S1  UNK     1      18.350   8.666  34.317  1.00  0.00    -0.075 SA
HETATM    2  N2  UNK     1      14.470   6.835  31.578  1.00  0.00    -0.191 NA
HETATM    3  C1  UNK     1      17.922   6.786  32.620  1.00  0.00     0.011 A 
HETATM    4  C2  UNK     1      18.918   7.341  33.393  1.00  0.00    -0.006 A 
HETATM    5  C3  UNK     1      18.197   5.655  31.767  1.00  0.00    -0.023 A 
HETATM    6  C4  UNK     1      16.677   7.457  32.788  1.00  0.00     0.090 A 
HETATM    7  C5  UNK     1      16.788   8.482  33.674  1.00  0.00     0.099 A 
HETATM    8  C8  UNK     1      18.612   5.864  30.456  1.00  0.00     0.015 A 
HETATM    9  C9  UNK     1      18.046   4.363  32.263  1.00  0.00     0.015 A 
HETATM   10  C10 UNK     1      20.342   6.952  33.517  1.00  0.00     0.057 C 
HETATM   11  C14 UNK     1      18.878   4.771  29.631  1.00  0.00     0.037 A 
HETATM   12  C15 UNK     1      18.313   3.270  31.438  1.00  0.00     0.037 A 
HETATM   13  C16 UNK     1      18.728   3.474  30.122  1.00  0.00     0.068 A 
HETATM   14  C20 UNK     1      15.459   7.113  32.120  1.00  0.00     0.103 C 
ENDROOT
BRANCH   7  15
HETATM   15  N1  UNK     1      15.833   9.394  34.133  1.00  0.00    -0.316 N 
HETATM   16  C11 UNK     1      15.949  10.777  34.117  1.00  0.00     0.262 C 
HETATM   17  O3  UNK     1      16.884  11.464  33.710  1.00  0.00    -0.267 OA
HETATM   18  H1  UNK     1      14.915   8.983  34.287  1.00  0.00     0.170 HD
BRANCH  16  19
HETATM   19  C6  UNK     1      14.760  11.432  34.675  1.00  0.00     0.108 A 
HETATM   20  C12 UNK     1      14.956  12.191  35.760  1.00  0.00     0.037 A 
HETATM   21  C7  UNK     1      13.837  12.881  36.384  1.00  0.00     0.000 A 
HETATM   22  C13 UNK     1      12.567  12.738  35.835  1.00  0.00     0.089 A 
HETATM   23  C18 UNK     1      13.995  13.683  37.517  1.00  0.00     0.033 A 
HETATM   24  O1  UNK     1      12.367  11.937  34.693  1.00  0.00    -0.274 OA
HETATM   25  C19 UNK     1      11.454  13.370  36.385  1.00  0.00     0.039 A 
HETATM   26  C17 UNK     1      13.417  11.265  34.074  1.00  0.00     0.304 A 
HETATM   27  O4  UNK     1      13.233  10.571  33.080  1.00  0.00    -0.259 OA
HETATM   28  C22 UNK     1      11.620  14.168  37.515  1.00  0.00     0.022 A 
HETATM   29  C21 UNK     1      12.888  14.324  38.080  1.00  0.00     0.011 A 
HETATM   30 Br1  UNK     1      13.108  15.410  39.613  1.00  0.00    -0.051 Br
ENDBRANCH  16  19
ENDBRANCH   7  15
BRANCH  13  31
HETATM   31  O2  UNK     1      18.989   2.407  29.318  1.00  0.00    -0.356 OA
HETATM   32  C23 UNK     1      17.888   1.843  28.609  1.00  0.00     0.210 C 
ENDBRANCH  13  31
TORSDOF 3
ENDMDL
MODEL 4
REMARK VINA RESULT:      -9.2     18.416     21.462
REMARK  3 active torsions:
REMARK  status: ('A' for Active; 'I' for Inactive)
REMARK    1  A    between atoms: C16_24  and  O2_4 
REMARK       I    between atoms: C11_19  and  N1_7 
REMARK    2  A    between atoms: C5_13  and  N1_7 
REMARK    3  A    between atoms: C11_19  and  C6_14 
ROOT
HETATM    1  S1  UNK     1      28.629  -9.488  36.213  1.00  0.00    -0.075 SA
HETATM    2  N2  UNK     1      29.756  -4.744  37.674  1.00  0.00    -0.191 NA
HETATM    3  C1  UNK     1      30.680  -7.942  36.288  1.00  0.00     0.011 A 
HETATM    4  C2  UNK     1      30.294  -9.212  35.918  1.00  0.00    -0.006 A 
HETATM    5  C3  UNK     1      32.047  -7.512  36.120  1.00  0.00    -0.023 A 
HETATM    6  C4  UNK     1      29.596  -7.187  36.821  1.00  0.00     0.090 A 
HETATM    7  C5  UNK     1      28.449  -7.915  36.829  1.00  0.00     0.099 A 
HETATM    8  C8  UNK     1      32.964  -7.709  37.146  1.00  0.00     0.015 A 
HETATM    9  C9  UNK     1      32.437  -6.901  34.931  1.00  0.00     0.015 A 
HETATM   10  C10 UNK     1      31.098 -10.307  35.327  1.00  0.00     0.057 C 
HETATM   11  C14 UNK     1      34.285  -7.292  36.984  1.00  0.00     0.037 A 
HETATM   12  C15 UNK     1      33.758  -6.486  34.768  1.00  0.00     0.037 A 
HETATM   13  C16 UNK     1      34.682  -6.680  35.795  1.00  0.00     0.068 A 
HETATM   14  C20 UNK     1      29.685  -5.838  37.292  1.00  0.00     0.103 C 
ENDROOT
BRANCH   7  15
HETATM   15  N1  UNK     1      27.161  -7.578  37.258  1.00  0.00    -0.316 N 
HETATM   16  C11 UNK     1      26.630  -7.816  38.517  1.00  0.00     0.262 C 
HETATM   17  O3  UNK     1      27.163  -8.355  39.486  1.00  0.00    -0.267 OA
HETATM   18  H1  UNK     1      26.683  -6.924  36.642  1.00  0.00     0.170 HD
BRANCH  16  19
HETATM   19  C6  UNK     1      25.249  -7.332  38.629  1.00  0.00     0.108 A 
HETATM   20  C12 UNK     1      24.287  -8.259  38.539  1.00  0.00     0.037 A 
HETATM   21  C7  UNK     1      22.887  -7.875  38.638  1.00  0.00     0.000 A 
HETATM   22  C13 UNK     1      22.569  -6.534  38.828  1.00  0.00     0.089 A 
HETATM   23  C18 UNK     1      21.851  -8.808  38.549  1.00  0.00     0.033 A 
HETATM   24  O1  UNK     1      23.585  -5.563  38.923  1.00  0.00    -0.274 OA
HETATM   25  C19 UNK     1      21.248  -6.101  38.930  1.00  0.00     0.039 A 
HETATM   26  C17 UNK     1      24.933  -5.899  38.831  1.00  0.00     0.304 A 
HETATM   27  O4  UNK     1      25.811  -5.047  38.916  1.00  0.00    -0.259 OA
HETATM   28  C22 UNK     1      20.221  -7.037  38.840  1.00  0.00     0.022 A 
HETATM   29  C21 UNK     1      20.522  -8.388  38.649  1.00  0.00     0.011 A 
HETATM   30 Br1  UNK     1      19.123  -9.655  38.529  1.00  0.00    -0.051 Br
ENDBRANCH  16  19
ENDBRANCH   7  15
BRANCH  13  31
HETATM   31  O2  UNK     1      35.972  -6.274  35.635  1.00  0.00    -0.356 OA
HETATM   32  C23 UNK     1      36.795  -7.053  34.769  1.00  0.00     0.210 C 
ENDBRANCH  13  31
TORSDOF 3
ENDMDL
MODEL 5
REMARK VINA RESULT:      -9.1      7.479     11.317
REMARK  3 active torsions:
REMARK  status: ('A' for Active; 'I' for Inactive)
REMARK    1  A    between atoms: C16_24  and  O2_4 
REMARK       I    between atoms: C11_19  and  N1_7 
REMARK    2  A    between atoms: C5_13  and  N1_7 
REMARK    3  A    between atoms: C11_19  and  C6_14 
ROOT
HETATM    1  S1  UNK     1      17.976  -0.278  36.324  1.00  0.00    -0.075 SA
HETATM    2  N2  UNK     1      21.204  -2.638  33.174  1.00  0.00    -0.191 NA
HETATM    3  C1  UNK     1      19.323  -2.464  36.246  1.00  0.00     0.011 A 
HETATM    4  C2  UNK     1      18.445  -1.761  37.041  1.00  0.00    -0.006 A 
HETATM    5  C3  UNK     1      19.838  -3.742  36.672  1.00  0.00    -0.023 A 
HETATM    6  C4  UNK     1      19.615  -1.776  35.033  1.00  0.00     0.090 A 
HETATM    7  C5  UNK     1      18.949  -0.594  34.968  1.00  0.00     0.099 A 
HETATM    8  C8  UNK     1      21.014  -3.801  37.413  1.00  0.00     0.015 A 
HETATM    9  C9  UNK     1      19.155  -4.909  36.338  1.00  0.00     0.015 A 
HETATM   10  C10 UNK     1      17.886  -2.112  38.368  1.00  0.00     0.057 C 
HETATM   11  C14 UNK     1      21.512  -5.038  37.825  1.00  0.00     0.037 A 
HETATM   12  C15 UNK     1      19.653  -6.144  36.750  1.00  0.00     0.037 A 
HETATM   13  C16 UNK     1      20.832  -6.209  37.493  1.00  0.00     0.068 A 
HETATM   14  C20 UNK     1      20.492  -2.252  34.007  1.00  0.00     0.103 C 
ENDROOT
BRANCH   7  15
HETATM   15  N1  UNK     1      18.938   0.390  33.974  1.00  0.00    -0.316 N 
HETATM   16  C11 UNK     1      18.558   0.212  32.651  1.00  0.00     0.262 C 
HETATM   17  O3  UNK     1      18.165  -0.812  32.096  1.00  0.00    -0.267 OA
HETATM   18  H1  UNK     1      19.019   1.337  34.335  1.00  0.00     0.170 HD
BRANCH  16  19
HETATM   19  C6  UNK     1      18.666   1.456  31.879  1.00  0.00     0.108 A 
HETATM   20  C12 UNK     1      18.280   2.576  32.502  1.00  0.00     0.037 A 
HETATM   21  C7  UNK     1      18.350   3.857  31.817  1.00  0.00     0.000 A 
HETATM   22  C13 UNK     1      18.825   3.898  30.510  1.00  0.00     0.089 A 
HETATM   23  C18 UNK     1      17.957   5.051  32.429  1.00  0.00     0.033 A 
HETATM   24  O1  UNK     1      19.231   2.715  29.860  1.00  0.00    -0.274 OA
HETATM   25  C19 UNK     1      18.917   5.092  29.799  1.00  0.00     0.039 A 
HETATM   26  C17 UNK     1      19.174   1.475  30.488  1.00  0.00     0.304 A 
HETATM   27  O4  UNK     1      19.530   0.451  29.914  1.00  0.00    -0.259 OA
HETATM   28  C22 UNK     1      18.523   6.278  30.416  1.00  0.00     0.022 A 
HETATM   29  C21 UNK     1      18.044   6.257  31.727  1.00  0.00     0.011 A 
HETATM   30 Br1  UNK     1      17.512   7.870  32.560  1.00  0.00    -0.051 Br
ENDBRANCH  16  19
ENDBRANCH   7  15
BRANCH  13  31
HETATM   31  O2  UNK     1      21.317  -7.416  37.896  1.00  0.00    -0.356 OA
HETATM   32  C23 UNK     1      21.998  -8.201  36.919  1.00  0.00     0.210 C 
ENDBRANCH  13  31
TORSDOF 3
ENDMDL
MODEL 6
REMARK VINA RESULT:      -8.9     22.626     24.603
REMARK  3 active torsions:
REMARK  status: ('A' for Active; 'I' for Inactive)
REMARK    1  A    between atoms: C16_24  and  O2_4 
REMARK       I    between atoms: C11_19  and  N1_7 
REMARK    2  A    between atoms: C5_13  and  N1_7 
REMARK    3  A    between atoms: C11_19  and  C6_14 
ROOT
HETATM    1  S1  UNK     1      17.185   7.450  10.396  1.00  0.00    -0.075 SA
HETATM    2  N2  UNK     1      15.062  11.207   7.695  1.00  0.00    -0.191 NA
HETATM    3  C1  UNK     1      14.961   7.933   9.205  1.00  0.00     0.011 A 
HETATM    4  C2  UNK     1      15.607   6.965   9.943  1.00  0.00    -0.006 A 
HETATM    5  C3  UNK     1      13.617   7.718   8.725  1.00  0.00    -0.023 A 
HETATM    6  C4  UNK     1      15.773   9.087   9.009  1.00  0.00     0.090 A 
HETATM    7  C5  UNK     1      16.986   8.940   9.604  1.00  0.00     0.099 A 
HETATM    8  C8  UNK     1      13.414   7.133   7.480  1.00  0.00     0.015 A 
HETATM    9  C9  UNK     1      12.534   8.097   9.513  1.00  0.00     0.015 A 
HETATM   10  C10 UNK     1      15.128   5.630  10.369  1.00  0.00     0.057 C 
HETATM   11  C14 UNK     1      12.115   6.925   7.017  1.00  0.00     0.037 A 
HETATM   12  C15 UNK     1      11.235   7.888   9.050  1.00  0.00     0.037 A 
HETATM   13  C16 UNK     1      11.025   7.303   7.801  1.00  0.00     0.068 A 
HETATM   14  C20 UNK     1      15.380  10.257   8.284  1.00  0.00     0.103 C 
ENDROOT
BRANCH   7  15
HETATM   15  N1  UNK     1      18.080   9.809   9.665  1.00  0.00    -0.316 N 
HETATM   16  C11 UNK     1      18.102  11.054  10.276  1.00  0.00     0.262 C 
HETATM   17  O3  UNK     1      17.195  11.634  10.870  1.00  0.00    -0.267 OA
HETATM   18  H1  UNK     1      18.964   9.371   9.417  1.00  0.00     0.170 HD
BRANCH  16  19
HETATM   19  C6  UNK     1      19.415  11.700  10.154  1.00  0.00     0.108 A 
HETATM   20  C12 UNK     1      20.141  11.783  11.275  1.00  0.00     0.037 A 
HETATM   21  C7  UNK     1      21.455  12.407  11.254  1.00  0.00     0.000 A 
HETATM   22  C13 UNK     1      21.941  12.912  10.052  1.00  0.00     0.089 A 
HETATM   23  C18 UNK     1      22.246  12.516  12.400  1.00  0.00     0.033 A 
HETATM   24  O1  UNK     1      21.172  12.821   8.874  1.00  0.00    -0.274 OA
HETATM   25  C19 UNK     1      23.191  13.522   9.964  1.00  0.00     0.039 A 
HETATM   26  C17 UNK     1      19.911  12.231   8.864  1.00  0.00     0.304 A 
HETATM   27  O4  UNK     1      19.250  12.156   7.834  1.00  0.00    -0.259 OA
HETATM   28  C22 UNK     1      23.973  13.626  11.111  1.00  0.00     0.022 A 
HETATM   29  C21 UNK     1      23.502  13.125  12.326  1.00  0.00     0.011 A 
HETATM   30 Br1  UNK     1      24.571  13.269  13.880  1.00  0.00    -0.051 Br
ENDBRANCH  16  19
ENDBRANCH   7  15
BRANCH  13  31
HETATM   31  O2  UNK     1       9.757   7.099   7.349  1.00  0.00    -0.356 OA
HETATM   32  C23 UNK     1       9.596   6.209   6.247  1.00  0.00     0.210 C 
ENDBRANCH  13  31
TORSDOF 3
ENDMDL
MODEL 7
REMARK VINA RESULT:      -8.8      2.383      2.628
REMARK  3 active torsions:
REMARK  status: ('A' for Active; 'I' for Inactive)
REMARK    1  A    between atoms: C16_24  and  O2_4 
REMARK       I    between atoms: C11_19  and  N1_7 
REMARK    2  A    between atoms: C5_13  and  N1_7 
REMARK    3  A    between atoms: C11_19  and  C6_14 
ROOT
HETATM    1  S1  UNK     1      19.197   8.586  34.154  1.00  0.00    -0.075 SA
HETATM    2  N2  UNK     1      14.975   7.369  31.583  1.00  0.00    -0.191 NA
HETATM    3  C1  UNK     1      18.422   6.801  32.477  1.00  0.00     0.011 A 
HETATM    4  C2  UNK     1      19.521   7.197  33.207  1.00  0.00    -0.006 A 
HETATM    5  C3  UNK     1      18.490   5.647  31.613  1.00  0.00    -0.023 A 
HETATM    6  C4  UNK     1      17.299   7.649  32.698  1.00  0.00     0.090 A 
HETATM    7  C5  UNK     1      17.599   8.640  33.578  1.00  0.00     0.099 A 
HETATM    8  C8  UNK     1      18.875   5.800  30.286  1.00  0.00     0.015 A 
HETATM    9  C9  UNK     1      18.169   4.389  32.115  1.00  0.00     0.015 A 
HETATM   10  C10 UNK     1      20.876   6.600  33.270  1.00  0.00     0.057 C 
HETATM   11  C14 UNK     1      18.941   4.685  29.451  1.00  0.00     0.037 A 
HETATM   12  C15 UNK     1      18.235   3.274  31.280  1.00  0.00     0.037 A 
HETATM   13  C16 UNK     1      18.620   3.422  29.947  1.00  0.00     0.068 A 
HETATM   14  C20 UNK     1      16.016   7.494  32.083  1.00  0.00     0.103 C 
ENDROOT
BRANCH   7  15
HETATM   15  N1  UNK     1      16.811   9.682  34.077  1.00  0.00    -0.316 N 
HETATM   16  C11 UNK     1      17.118  11.034  34.032  1.00  0.00     0.262 C 
HETATM   17  O3  UNK     1      18.113  11.579  33.559  1.00  0.00    -0.267 OA
HETATM   18  H1  UNK     1      15.856   9.405  34.293  1.00  0.00     0.170 HD
BRANCH  16  19
HETATM   19  C6  UNK     1      16.069  11.855  34.648  1.00  0.00     0.108 A 
HETATM   20  C12 UNK     1      15.371  11.281  35.635  1.00  0.00     0.037 A 
HETATM   21  C7  UNK     1      14.310  12.016  36.307  1.00  0.00     0.000 A 
HETATM   22  C13 UNK     1      14.036  13.320  35.906  1.00  0.00     0.089 A 
HETATM   23  C18 UNK     1      13.556  11.456  37.342  1.00  0.00     0.033 A 
HETATM   24  O1  UNK     1      14.774  13.919  34.866  1.00  0.00    -0.274 OA
HETATM   25  C19 UNK     1      13.033  14.077  36.508  1.00  0.00     0.039 A 
HETATM   26  C17 UNK     1      15.794  13.241  34.205  1.00  0.00     0.304 A 
HETATM   27  O4  UNK     1      16.432  13.771  33.301  1.00  0.00    -0.259 OA
HETATM   28  C22 UNK     1      12.286  13.512  37.539  1.00  0.00     0.022 A 
HETATM   29  C21 UNK     1      12.546  12.204  37.954  1.00  0.00     0.011 A 
HETATM   30 Br1  UNK     1      11.530  11.443  39.356  1.00  0.00    -0.051 Br
ENDBRANCH  16  19
ENDBRANCH   7  15
BRANCH  13  31
HETATM   31  O2  UNK     1      18.685   2.333  29.133  1.00  0.00    -0.356 OA
HETATM   32  C23 UNK     1      19.179   1.123  29.704  1.00  0.00     0.210 C 
ENDBRANCH  13  31
TORSDOF 3
ENDMDL
MODEL 8
REMARK VINA RESULT:      -8.8      4.133     10.160
REMARK  3 active torsions:
REMARK  status: ('A' for Active; 'I' for Inactive)
REMARK    1  A    between atoms: C16_24  and  O2_4 
REMARK       I    between atoms: C11_19  and  N1_7 
REMARK    2  A    between atoms: C5_13  and  N1_7 
REMARK    3  A    between atoms: C11_19  and  C6_14 
ROOT
HETATM    1  S1  UNK     1      18.139   8.466  33.967  1.00  0.00    -0.075 SA
HETATM    2  N2  UNK     1      13.352   6.825  33.420  1.00  0.00    -0.191 NA
HETATM    3  C1  UNK     1      15.771   9.459  33.884  1.00  0.00     0.011 A 
HETATM    4  C2  UNK     1      17.093   9.821  34.027  1.00  0.00    -0.006 A 
HETATM    5  C3  UNK     1      14.729  10.456  33.907  1.00  0.00    -0.023 A 
HETATM    6  C4  UNK     1      15.616   8.052  33.725  1.00  0.00     0.090 A 
HETATM    7  C5  UNK     1      16.818   7.419  33.754  1.00  0.00     0.099 A 
HETATM    8  C8  UNK     1      14.136  10.809  35.115  1.00  0.00     0.015 A 
HETATM    9  C9  UNK     1      14.325  11.059  32.719  1.00  0.00     0.015 A 
HETATM   10  C10 UNK     1      17.687  11.165  34.213  1.00  0.00     0.057 C 
HETATM   11  C14 UNK     1      13.129  11.773  35.136  1.00  0.00     0.037 A 
HETATM   12  C15 UNK     1      13.318  12.024  32.741  1.00  0.00     0.037 A 
HETATM   13  C16 UNK     1      12.719  12.381  33.949  1.00  0.00     0.068 A 
HETATM   14  C20 UNK     1      14.366   7.375  33.557  1.00  0.00     0.103 C 
ENDROOT
BRANCH   7  15
HETATM   15  N1  UNK     1      17.135   6.063  33.637  1.00  0.00    -0.316 N 
HETATM   16  C11 UNK     1      18.188   5.528  32.908  1.00  0.00     0.262 C 
HETATM   17  O3  UNK     1      19.033   6.116  32.236  1.00  0.00    -0.267 OA
HETATM   18  H1  UNK     1      16.664   5.472  34.319  1.00  0.00     0.170 HD
BRANCH  16  19
HETATM   19  C6  UNK     1      18.231   4.063  33.003  1.00  0.00     0.108 A 
HETATM   20  C12 UNK     1      18.155   3.547  34.235  1.00  0.00     0.037 A 
HETATM   21  C7  UNK     1      18.190   2.105  34.429  1.00  0.00     0.000 A 
HETATM   22  C13 UNK     1      18.303   1.279  33.316  1.00  0.00     0.089 A 
HETATM   23  C18 UNK     1      18.114   1.523  35.697  1.00  0.00     0.033 A 
HETATM   24  O1  UNK     1      18.382   1.828  32.021  1.00  0.00    -0.274 OA
HETATM   25  C19 UNK     1      18.342  -0.109  33.434  1.00  0.00     0.039 A 
HETATM   26  C17 UNK     1      18.352   3.203  31.804  1.00  0.00     0.304 A 
HETATM   27  O4  UNK     1      18.421   3.672  30.673  1.00  0.00    -0.259 OA
HETATM   28  C22 UNK     1      18.266  -0.682  34.702  1.00  0.00     0.022 A 
HETATM   29  C21 UNK     1      18.153   0.132  35.830  1.00  0.00     0.011 A 
HETATM   30 Br1  UNK     1      18.048  -0.652  37.549  1.00  0.00    -0.051 Br
ENDBRANCH  16  19
ENDBRANCH   7  15
BRANCH  13  31
HETATM   31  O2  UNK     1      11.737  13.323  33.970  1.00  0.00    -0.356 OA
HETATM   32  C23 UNK     1      10.534  13.024  33.264  1.00  0.00     0.210 C 
ENDBRANCH  13  31
TORSDOF 3
ENDMDL
MODEL 9
REMARK VINA RESULT:      -8.8     19.678     21.881
REMARK  3 active torsions:
REMARK  status: ('A' for Active; 'I' for Inactive)
REMARK    1  A    between atoms: C16_24  and  O2_4 
REMARK       I    between atoms: C11_19  and  N1_7 
REMARK    2  A    between atoms: C5_13  and  N1_7 
REMARK    3  A    between atoms: C11_19  and  C6_14 
ROOT
HETATM    1  S1  UNK     1      28.103  -5.739  38.361  1.00  0.00    -0.075 SA
HETATM    2  N2  UNK     1      29.938  -9.206  35.118  1.00  0.00    -0.191 NA
HETATM    3  C1  UNK     1      30.355  -6.359  37.292  1.00  0.00     0.011 A 
HETATM    4  C2  UNK     1      29.780  -5.457  38.160  1.00  0.00    -0.006 A 
HETATM    5  C3  UNK     1      31.763  -6.292  36.988  1.00  0.00    -0.023 A 
HETATM    6  C4  UNK     1      29.406  -7.293  36.785  1.00  0.00     0.090 A 
HETATM    7  C5  UNK     1      28.167  -7.056  37.290  1.00  0.00     0.099 A 
HETATM    8  C8  UNK     1      32.203  -5.520  35.918  1.00  0.00     0.015 A 
HETATM    9  C9  UNK     1      32.673  -7.001  37.768  1.00  0.00     0.015 A 
HETATM   10  C10 UNK     1      30.402  -4.335  38.901  1.00  0.00     0.057 C 
HETATM   11  C14 UNK     1      33.565  -5.455  35.624  1.00  0.00     0.037 A 
HETATM   12  C15 UNK     1      34.035  -6.935  37.474  1.00  0.00     0.037 A 
HETATM   13  C16 UNK     1      34.481  -6.163  36.401  1.00  0.00     0.068 A 
HETATM   14  C20 UNK     1      29.700  -8.349  35.865  1.00  0.00     0.103 C 
ENDROOT
BRANCH   7  15
HETATM   15  N1  UNK     1      26.954  -7.716  37.070  1.00  0.00    -0.316 N 
HETATM   16  C11 UNK     1      26.503  -8.845  37.739  1.00  0.00     0.262 C 
HETATM   17  O3  UNK     1      27.059  -9.479  38.634  1.00  0.00    -0.267 OA
HETATM   18  H1  UNK     1      26.288  -7.176  36.520  1.00  0.00     0.170 HD
BRANCH  16  19
HETATM   19  C6  UNK     1      25.185  -9.276  37.259  1.00  0.00     0.108 A 
HETATM   20  C12 UNK     1      24.149  -8.498  37.593  1.00  0.00     0.037 A 
HETATM   21  C7  UNK     1      22.803  -8.844  37.163  1.00  0.00     0.000 A 
HETATM   22  C13 UNK     1      22.614  -9.993  36.401  1.00  0.00     0.089 A 
HETATM   23  C18 UNK     1      21.692  -8.061  37.490  1.00  0.00     0.033 A 
HETATM   24  O1  UNK     1      23.708 -10.808  36.052  1.00  0.00    -0.274 OA
HETATM   25  C19 UNK     1      21.350 -10.380  35.959  1.00  0.00     0.039 A 
HETATM   26  C17 UNK     1      25.007 -10.503  36.449  1.00  0.00     0.304 A 
HETATM   27  O4  UNK     1      25.954 -11.219  36.139  1.00  0.00    -0.259 OA
HETATM   28  C22 UNK     1      20.249  -9.594  36.288  1.00  0.00     0.022 A 
HETATM   29  C21 UNK     1      20.419  -8.437  37.052  1.00  0.00     0.011 A 
HETATM   30 Br1  UNK     1      18.919  -7.374  37.496  1.00  0.00    -0.051 Br
ENDBRANCH  16  19
ENDBRANCH   7  15
BRANCH  13  31
HETATM   31  O2  UNK     1      35.810  -6.099  36.115  1.00  0.00    -0.356 OA
HETATM   32  C23 UNK     1      36.267  -6.830  34.979  1.00  0.00     0.210 C 
ENDBRANCH  13  31
TORSDOF 3
ENDMDL
MODEL 10
REMARK VINA RESULT:      -8.7     23.423     24.886
REMARK  3 active torsions:
REMARK  status: ('A' for Active; 'I' for Inactive)
REMARK    1  A    between atoms: C16_24  and  O2_4 
REMARK       I    between atoms: C11_19  and  N1_7 
REMARK    2  A    between atoms: C5_13  and  N1_7 
REMARK    3  A    between atoms: C11_19  and  C6_14 
ROOT
HETATM    1  S1  UNK     1      15.279  12.403   7.886  1.00  0.00    -0.075 SA
HETATM    2  N2  UNK     1      17.576   8.294   9.823  1.00  0.00    -0.191 NA
HETATM    3  C1  UNK     1      17.584  11.757   8.818  1.00  0.00     0.011 A 
HETATM    4  C2  UNK     1      16.891  12.822   8.284  1.00  0.00    -0.006 A 
HETATM    5  C3  UNK     1      18.962  11.904   9.219  1.00  0.00    -0.023 A 
HETATM    6  C4  UNK     1      16.782  10.584   8.901  1.00  0.00     0.090 A 
HETATM    7  C5  UNK     1      15.528  10.813   8.430  1.00  0.00     0.099 A 
HETATM    8  C8  UNK     1      19.979  11.653   8.305  1.00  0.00     0.015 A 
HETATM    9  C9  UNK     1      19.264  12.298  10.521  1.00  0.00     0.015 A 
HETATM   10  C10 UNK     1      17.345  14.208   8.027  1.00  0.00     0.057 C 
HETATM   11  C14 UNK     1      21.311  11.794   8.693  1.00  0.00     0.037 A 
HETATM   12  C15 UNK     1      20.596  12.440  10.908  1.00  0.00     0.037 A 
HETATM   13  C16 UNK     1      21.620  12.188   9.995  1.00  0.00     0.068 A 
HETATM   14  C20 UNK     1      17.220   9.320   9.410  1.00  0.00     0.103 C 
ENDROOT
BRANCH   7  15
HETATM   15  N1  UNK     1      14.426   9.958   8.323  1.00  0.00    -0.316 N 
HETATM   16  C11 UNK     1      13.716   9.403   9.378  1.00  0.00     0.262 C 
HETATM   17  O3  UNK     1      13.902   9.542  10.585  1.00  0.00    -0.267 OA
HETATM   18  H1  UNK     1      14.016   9.934   7.392  1.00  0.00     0.170 HD
BRANCH  16  19
HETATM   19  C6  UNK     1      12.616   8.552   8.909  1.00  0.00     0.108 A 
HETATM   20  C12 UNK     1      11.417   8.777   9.460  1.00  0.00     0.037 A 
HETATM   21  C7  UNK     1      10.265   7.983   9.059  1.00  0.00     0.000 A 
HETATM   22  C13 UNK     1      10.432   6.992   8.097  1.00  0.00     0.089 A 
HETATM   23  C18 UNK     1       8.996   8.184   9.607  1.00  0.00     0.033 A 
HETATM   24  O1  UNK     1      11.697   6.760   7.521  1.00  0.00    -0.274 OA
HETATM   25  C19 UNK     1       9.370   6.197   7.670  1.00  0.00     0.039 A 
HETATM   26  C17 UNK     1      12.817   7.502   7.884  1.00  0.00     0.304 A 
HETATM   27  O4  UNK     1      13.914   7.293   7.377  1.00  0.00    -0.259 OA
HETATM   28  C22 UNK     1       8.108   6.403   8.222  1.00  0.00     0.022 A 
HETATM   29  C21 UNK     1       7.921   7.394   9.189  1.00  0.00     0.011 A 
HETATM   30 Br1  UNK     1       6.204   7.669   9.933  1.00  0.00    -0.051 Br
ENDBRANCH  16  19
ENDBRANCH   7  15
BRANCH  13  31
HETATM   31  O2  UNK     1      22.920  12.328  10.374  1.00  0.00    -0.356 OA
HETATM   32  C23 UNK     1      23.392  13.655  10.598  1.00  0.00     0.210 C 
ENDBRANCH  13  31
TORSDOF 3
ENDMDL
