MODEL 1
REMARK VINA RESULT:      -8.5      0.000      0.000
REMARK  7 active torsions:
REMARK  status: ('A' for Active; 'I' for Inactive)
REMARK    1  A    between atoms: C12_20  and  O2_2 
REMARK    2  A    between atoms: C14_22  and  O5_5 
REMARK    3  A    between atoms: C22_30  and  O5_5 
REMARK    4  A    between atoms: C12_20  and  C2_10 
REMARK    5  A    between atoms: C11_19  and  C6_14 
REMARK    6  A    between atoms: C14_22  and  C8_16 
REMARK    7  A    between atoms: C22_30  and  C25_33 
ROOT
HETATM    1  O1  UNK     1      29.005  -9.454  36.512  1.00  0.00    -0.292 OA
HETATM    2  N1  UNK     1      30.383  -5.066  37.641  1.00  0.00    -0.362 N 
HETATM    3  C1  UNK     1      27.689  -7.280  39.099  1.00  0.00     0.008 C 
HETATM    4  C2  UNK     1      28.272  -8.626  38.646  1.00  0.00     0.164 C 
HETATM    5  C3  UNK     1      28.814  -6.233  39.126  1.00  0.00     0.063 C 
HETATM    6  C4  UNK     1      29.677  -7.228  36.980  1.00  0.00     0.025 C 
HETATM    7  C5  UNK     1      29.638  -6.208  37.863  1.00  0.00     0.020 C 
HETATM    8  C6  UNK     1      30.478  -7.121  35.684  1.00  0.00     0.104 C 
HETATM    9  C7  UNK     1      28.965  -8.508  37.298  1.00  0.00     0.172 C 
HETATM   10  C8  UNK     1      31.396  -5.895  35.669  1.00  0.00     0.052 C 
HETATM   11  C9  UNK     1      26.512  -6.803  38.233  1.00  0.00     0.011 C 
HETATM   12  C10 UNK     1      31.293  -4.923  36.606  1.00  0.00     0.018 C 
HETATM   13  C13 UNK     1      32.106  -3.657  36.643  1.00  0.00     0.069 C 
HETATM   14  H9  UNK     1      30.332  -4.325  38.331  1.00  0.00     0.165 HD
ENDROOT
BRANCH   8  15
HETATM   15  C11 UNK     1      29.553  -7.093  34.492  1.00  0.00     0.029 A 
HETATM   16  C15 UNK     1      29.786  -8.061  33.391  1.00  0.00     0.194 A 
HETATM   17  C17 UNK     1      28.855  -7.990  32.249  1.00  0.00     0.049 A 
HETATM   18  O7  UNK     1      30.699  -8.876  33.424  1.00  0.00    -0.287 OA
HETATM   19  C18 UNK     1      27.832  -7.039  32.267  1.00  0.00     0.089 A 
HETATM   20  C19 UNK     1      28.990  -8.859  31.164  1.00  0.00     0.025 A 
HETATM   21  C21 UNK     1      26.940  -6.954  31.198  1.00  0.00     0.039 A 
HETATM   22  O3  UNK     1      27.654  -6.162  33.307  1.00  0.00    -0.321 OA
HETATM   23  C24 UNK     1      27.073  -7.821  30.113  1.00  0.00     0.009 A 
HETATM   24  C23 UNK     1      28.095  -8.771  30.097  1.00  0.00    -0.061 A 
HETATM   25  C26 UNK     1      28.231  -9.696  28.934  1.00  0.00     0.048 C 
HETATM   26  C16 UNK     1      28.529  -6.241  34.362  1.00  0.00     0.154 A 
ENDBRANCH   8  15
BRANCH  10  27
HETATM   27  C14 UNK     1      32.431  -5.857  34.623  1.00  0.00     0.292 C 
HETATM   28  O6  UNK     1      32.283  -5.289  33.556  1.00  0.00    -0.259 OA
BRANCH  27  29
HETATM   29  O5  UNK     1      33.512  -6.540  35.068  1.00  0.00    -0.318 OA
BRANCH  29  30
HETATM   30  C22 UNK     1      34.721  -5.776  35.150  1.00  0.00     0.178 C 
BRANCH  30  31
HETATM   31  C25 UNK     1      35.205  -5.776  36.592  1.00  0.00     0.022 C 
HETATM   32  C27 UNK     1      34.437  -6.770  37.445  1.00  0.00     0.007 C 
ENDBRANCH  30  31
ENDBRANCH  29  30
ENDBRANCH  27  29
ENDBRANCH  10  27
BRANCH   4  33
HETATM   33  C12 UNK     1      27.230  -9.700  38.698  1.00  0.00     0.270 C 
HETATM   34  O4  UNK     1      26.583 -10.075  37.729  1.00  0.00    -0.264 OA
BRANCH  33  35
HETATM   35  O2  UNK     1      27.127 -10.175  39.972  1.00  0.00    -0.326 OA
HETATM   36  C20 UNK     1      28.365 -10.529  40.598  1.00  0.00     0.213 C 
ENDBRANCH  33  35
ENDBRANCH   4  33
TORSDOF 7
ENDMDL
MODEL 2
REMARK VINA RESULT:      -8.4      0.984      1.120
REMARK  7 active torsions:
REMARK  status: ('A' for Active; 'I' for Inactive)
REMARK    1  A    between atoms: C12_20  and  O2_2 
REMARK    2  A    between atoms: C14_22  and  O5_5 
REMARK    3  A    between atoms: C22_30  and  O5_5 
REMARK    4  A    between atoms: C12_20  and  C2_10 
REMARK    5  A    between atoms: C11_19  and  C6_14 
REMARK    6  A    between atoms: C14_22  and  C8_16 
REMARK    7  A    between atoms: C22_30  and  C25_33 
ROOT
HETATM    1  O1  UNK     1      28.548  -9.413  36.635  1.00  0.00    -0.292 OA
HETATM    2  N1  UNK     1      31.115  -5.519  37.455  1.00  0.00    -0.362 N 
HETATM    3  C1  UNK     1      27.970  -6.817  39.100  1.00  0.00     0.008 C 
HETATM    4  C2  UNK     1      28.146  -8.295  38.724  1.00  0.00     0.164 C 
HETATM    5  C3  UNK     1      29.339  -6.121  39.040  1.00  0.00     0.063 C 
HETATM    6  C4  UNK     1      29.821  -7.436  36.947  1.00  0.00     0.025 C 
HETATM    7  C5  UNK     1      30.094  -6.396  37.764  1.00  0.00     0.020 C 
HETATM    8  C6  UNK     1      30.574  -7.628  35.632  1.00  0.00     0.104 C 
HETATM    9  C7  UNK     1      28.797  -8.450  37.360  1.00  0.00     0.172 C 
HETATM   10  C8  UNK     1      31.792  -6.705  35.522  1.00  0.00     0.052 C 
HETATM   11  C9  UNK     1      26.939  -6.084  38.227  1.00  0.00     0.011 C 
HETATM   12  C10 UNK     1      31.992  -5.691  36.396  1.00  0.00     0.018 C 
HETATM   13  C13 UNK     1      33.122  -4.698  36.337  1.00  0.00     0.069 C 
HETATM   14  H9  UNK     1      31.294  -4.754  38.096  1.00  0.00     0.165 HD
ENDROOT
BRANCH   8  15
HETATM   15  C11 UNK     1      29.652  -7.413  34.458  1.00  0.00     0.029 A 
HETATM   16  C15 UNK     1      29.687  -8.391  33.341  1.00  0.00     0.194 A 
HETATM   17  C17 UNK     1      28.766  -8.133  32.218  1.00  0.00     0.049 A 
HETATM   18  O7  UNK     1      30.436  -9.359  33.347  1.00  0.00    -0.287 OA
HETATM   19  C18 UNK     1      27.934  -7.013  32.266  1.00  0.00     0.089 A 
HETATM   20  C19 UNK     1      28.723  -8.996  31.120  1.00  0.00     0.025 A 
HETATM   21  C21 UNK     1      27.056  -6.751  31.214  1.00  0.00     0.039 A 
HETATM   22  O3  UNK     1      27.935  -6.134  33.319  1.00  0.00    -0.321 OA
HETATM   23  C24 UNK     1      27.011  -7.611  30.117  1.00  0.00     0.009 A 
HETATM   24  C23 UNK     1      27.842  -8.730  30.070  1.00  0.00    -0.061 A 
HETATM   25  C26 UNK     1      27.789  -9.646  28.894  1.00  0.00     0.048 C 
HETATM   26  C16 UNK     1      28.798  -6.387  34.357  1.00  0.00     0.154 A 
ENDBRANCH   8  15
BRANCH  10  27
HETATM   27  C14 UNK     1      32.761  -7.013  34.457  1.00  0.00     0.292 C 
HETATM   28  O6  UNK     1      32.720  -6.510  33.350  1.00  0.00    -0.259 OA
BRANCH  27  29
HETATM   29  O5  UNK     1      33.650  -7.915  34.938  1.00  0.00    -0.318 OA
BRANCH  29  30
HETATM   30  C22 UNK     1      34.898  -7.968  34.237  1.00  0.00     0.178 C 
BRANCH  30  31
HETATM   31  C25 UNK     1      35.861  -6.976  34.872  1.00  0.00     0.022 C 
HETATM   32  C27 UNK     1      37.302  -7.272  34.500  1.00  0.00     0.007 C 
ENDBRANCH  30  31
ENDBRANCH  29  30
ENDBRANCH  27  29
ENDBRANCH  10  27
BRANCH   4  33
HETATM   33  C12 UNK     1      26.852  -9.036  38.864  1.00  0.00     0.270 C 
HETATM   34  O4  UNK     1      25.946  -8.994  38.042  1.00  0.00    -0.264 OA
BRANCH  33  35
HETATM   35  O2  UNK     1      26.855  -9.743  40.030  1.00  0.00    -0.326 OA
HETATM   36  C20 UNK     1      28.113 -10.317  40.398  1.00  0.00     0.213 C 
ENDBRANCH  33  35
ENDBRANCH   4  33
TORSDOF 7
ENDMDL
MODEL 3
REMARK VINA RESULT:      -8.3      1.319      2.065
REMARK  7 active torsions:
REMARK  status: ('A' for Active; 'I' for Inactive)
REMARK    1  A    between atoms: C12_20  and  O2_2 
REMARK    2  A    between atoms: C14_22  and  O5_5 
REMARK    3  A    between atoms: C22_30  and  O5_5 
REMARK    4  A    between atoms: C12_20  and  C2_10 
REMARK    5  A    between atoms: C11_19  and  C6_14 
REMARK    6  A    between atoms: C14_22  and  C8_16 
REMARK    7  A    between atoms: C22_30  and  C25_33 
ROOT
HETATM    1  O1  UNK     1      28.297  -9.389  36.725  1.00  0.00    -0.292 OA
HETATM    2  N1  UNK     1      31.328  -5.838  37.520  1.00  0.00    -0.362 N 
HETATM    3  C1  UNK     1      28.025  -6.700  39.141  1.00  0.00     0.008 C 
HETATM    4  C2  UNK     1      28.016  -8.194  38.791  1.00  0.00     0.164 C 
HETATM    5  C3  UNK     1      29.472  -6.184  39.089  1.00  0.00     0.063 C 
HETATM    6  C4  UNK     1      29.807  -7.585  37.024  1.00  0.00     0.025 C 
HETATM    7  C5  UNK     1      30.200  -6.574  37.828  1.00  0.00     0.020 C 
HETATM    8  C6  UNK     1      30.545  -7.893  35.723  1.00  0.00     0.104 C 
HETATM    9  C7  UNK     1      28.658  -8.453  37.438  1.00  0.00     0.172 C 
HETATM   10  C8  UNK     1      31.871  -7.134  35.614  1.00  0.00     0.052 C 
HETATM   11  C9  UNK     1      27.105  -5.856  38.243  1.00  0.00     0.011 C 
HETATM   12  C10 UNK     1      32.188  -6.139  36.476  1.00  0.00     0.018 C 
HETATM   13  C13 UNK     1      33.436  -5.299  36.417  1.00  0.00     0.069 C 
HETATM   14  H9  UNK     1      31.595  -5.092  38.151  1.00  0.00     0.165 HD
ENDROOT
BRANCH   8  15
HETATM   15  C11 UNK     1      29.671  -7.583  34.532  1.00  0.00     0.029 A 
HETATM   16  C15 UNK     1      29.608  -8.568  33.424  1.00  0.00     0.194 A 
HETATM   17  C17 UNK     1      28.740  -8.215  32.284  1.00  0.00     0.049 A 
HETATM   18  O7  UNK     1      30.239  -9.617  33.448  1.00  0.00    -0.287 OA
HETATM   19  C18 UNK     1      28.043  -7.006  32.311  1.00  0.00     0.089 A 
HETATM   20  C19 UNK     1      28.613  -9.077  31.192  1.00  0.00     0.025 A 
HETATM   21  C21 UNK     1      27.217  -6.653  31.244  1.00  0.00     0.039 A 
HETATM   22  O3  UNK     1      28.131  -6.123  33.358  1.00  0.00    -0.321 OA
HETATM   23  C24 UNK     1      27.088  -7.512  30.153  1.00  0.00     0.009 A 
HETATM   24  C23 UNK     1      27.784  -8.720  30.127  1.00  0.00    -0.061 A 
HETATM   25  C26 UNK     1      27.642  -9.634  28.956  1.00  0.00     0.048 C 
HETATM   26  C16 UNK     1      28.943  -6.465  34.411  1.00  0.00     0.154 A 
ENDBRANCH   8  15
BRANCH  10  27
HETATM   27  C14 UNK     1      32.805  -7.581  34.568  1.00  0.00     0.292 C 
HETATM   28  O6  UNK     1      33.584  -8.504  34.716  1.00  0.00    -0.259 OA
BRANCH  27  29
HETATM   29  O5  UNK     1      32.627  -6.798  33.476  1.00  0.00    -0.318 OA
BRANCH  29  30
HETATM   30  C22 UNK     1      33.394  -7.177  32.327  1.00  0.00     0.178 C 
BRANCH  30  31
HETATM   31  C25 UNK     1      32.478  -7.879  31.336  1.00  0.00     0.022 C 
HETATM   32  C27 UNK     1      31.612  -6.894  30.572  1.00  0.00     0.007 C 
ENDBRANCH  30  31
ENDBRANCH  29  30
ENDBRANCH  27  29
ENDBRANCH  10  27
BRANCH   4  33
HETATM   33  C12 UNK     1      26.636  -8.762  38.925  1.00  0.00     0.270 C 
HETATM   34  O4  UNK     1      25.709  -8.493  38.173  1.00  0.00    -0.264 OA
BRANCH  33  35
HETATM   35  O2  UNK     1      26.592  -9.605  39.996  1.00  0.00    -0.326 OA
HETATM   36  C20 UNK     1      27.839 -10.208  40.356  1.00  0.00     0.213 C 
ENDBRANCH  33  35
ENDBRANCH   4  33
TORSDOF 7
ENDMDL
MODEL 4
REMARK VINA RESULT:      -8.3      2.213      3.331
REMARK  7 active torsions:
REMARK  status: ('A' for Active; 'I' for Inactive)
REMARK    1  A    between atoms: C12_20  and  O2_2 
REMARK    2  A    between atoms: C14_22  and  O5_5 
REMARK    3  A    between atoms: C22_30  and  O5_5 
REMARK    4  A    between atoms: C12_20  and  C2_10 
REMARK    5  A    between atoms: C11_19  and  C6_14 
REMARK    6  A    between atoms: C14_22  and  C8_16 
REMARK    7  A    between atoms: C22_30  and  C25_33 
ROOT
HETATM    1  O1  UNK     1      29.474  -7.887  36.715  1.00  0.00    -0.292 OA
HETATM    2  N1  UNK     1      33.765  -5.883  36.674  1.00  0.00    -0.362 N 
HETATM    3  C1  UNK     1      30.650  -5.051  38.645  1.00  0.00     0.008 C 
HETATM    4  C2  UNK     1      29.986  -6.432  38.558  1.00  0.00     0.164 C 
HETATM    5  C3  UNK     1      32.159  -5.207  38.404  1.00  0.00     0.063 C 
HETATM    6  C4  UNK     1      31.613  -6.869  36.593  1.00  0.00     0.025 C 
HETATM    7  C5  UNK     1      32.488  -6.026  37.182  1.00  0.00     0.020 C 
HETATM    8  C6  UNK     1      31.979  -7.623  35.316  1.00  0.00     0.104 C 
HETATM    9  C7  UNK     1      30.277  -7.109  37.229  1.00  0.00     0.172 C 
HETATM   10  C8  UNK     1      33.471  -7.518  34.988  1.00  0.00     0.052 C 
HETATM   11  C9  UNK     1      30.041  -4.020  37.681  1.00  0.00     0.011 C 
HETATM   12  C10 UNK     1      34.279  -6.650  35.641  1.00  0.00     0.018 C 
HETATM   13  C13 UNK     1      35.740  -6.432  35.352  1.00  0.00     0.069 C 
HETATM   14  H9  UNK     1      34.396  -5.246  37.148  1.00  0.00     0.165 HD
ENDROOT
BRANCH   8  15
HETATM   15  C11 UNK     1      31.155  -7.127  34.154  1.00  0.00     0.029 A 
HETATM   16  C15 UNK     1      30.359  -8.111  33.378  1.00  0.00     0.194 A 
HETATM   17  C17 UNK     1      29.573  -7.574  32.251  1.00  0.00     0.049 A 
HETATM   18  O7  UNK     1      30.353  -9.304  33.652  1.00  0.00    -0.287 OA
HETATM   19  C18 UNK     1      29.619  -6.204  31.985  1.00  0.00     0.089 A 
HETATM   20  C19 UNK     1      28.791  -8.419  31.461  1.00  0.00     0.025 A 
HETATM   21  C21 UNK     1      28.883  -5.674  30.924  1.00  0.00     0.039 A 
HETATM   22  O3  UNK     1      30.370  -5.329  32.729  1.00  0.00    -0.321 OA
HETATM   23  C24 UNK     1      28.102  -6.516  30.134  1.00  0.00     0.009 A 
HETATM   24  C23 UNK     1      28.056  -7.885  30.401  1.00  0.00    -0.061 A 
HETATM   25  C26 UNK     1      27.217  -8.780  29.551  1.00  0.00     0.048 C 
HETATM   26  C16 UNK     1      31.096  -5.844  33.774  1.00  0.00     0.154 A 
ENDBRANCH   8  15
BRANCH  10  27
HETATM   27  C14 UNK     1      33.992  -8.447  33.971  1.00  0.00     0.292 C 
HETATM   28  O6  UNK     1      34.209  -9.624  34.190  1.00  0.00    -0.259 OA
BRANCH  27  29
HETATM   29  O5  UNK     1      34.167  -7.761  32.816  1.00  0.00    -0.318 OA
BRANCH  29  30
HETATM   30  C22 UNK     1      33.655  -8.406  31.645  1.00  0.00     0.178 C 
BRANCH  30  31
HETATM   31  C25 UNK     1      32.959  -7.369  30.777  1.00  0.00     0.022 C 
HETATM   32  C27 UNK     1      32.153  -8.013  29.664  1.00  0.00     0.007 C 
ENDBRANCH  30  31
ENDBRANCH  29  30
ENDBRANCH  27  29
ENDBRANCH  10  27
BRANCH   4  33
HETATM   33  C12 UNK     1      28.526  -6.341  38.883  1.00  0.00     0.270 C 
HETATM   34  O4  UNK     1      27.753  -5.558  38.347  1.00  0.00    -0.264 OA
BRANCH  33  35
HETATM   35  O2  UNK     1      28.217  -7.251  39.850  1.00  0.00    -0.326 OA
HETATM   36  C20 UNK     1      27.381  -8.335  39.429  1.00  0.00     0.213 C 
ENDBRANCH  33  35
ENDBRANCH   4  33
TORSDOF 7
ENDMDL
MODEL 5
REMARK VINA RESULT:      -8.2      2.846      4.019
REMARK  7 active torsions:
REMARK  status: ('A' for Active; 'I' for Inactive)
REMARK    1  A    between atoms: C12_20  and  O2_2 
REMARK    2  A    between atoms: C14_22  and  O5_5 
REMARK    3  A    between atoms: C22_30  and  O5_5 
REMARK    4  A    between atoms: C12_20  and  C2_10 
REMARK    5  A    between atoms: C11_19  and  C6_14 
REMARK    6  A    between atoms: C14_22  and  C8_16 
REMARK    7  A    between atoms: C22_30  and  C25_33 
ROOT
HETATM    1  O1  UNK     1      30.968 -10.143  35.596  1.00  0.00    -0.292 OA
HETATM    2  N1  UNK     1      34.727  -7.317  36.152  1.00  0.00    -0.362 N 
HETATM    3  C1  UNK     1      31.569  -7.687  38.195  1.00  0.00     0.008 C 
HETATM    4  C2  UNK     1      31.214  -9.114  37.754  1.00  0.00     0.164 C 
HETATM    5  C3  UNK     1      33.069  -7.451  37.958  1.00  0.00     0.063 C 
HETATM    6  C4  UNK     1      32.834  -8.691  35.779  1.00  0.00     0.025 C 
HETATM    7  C5  UNK     1      33.527  -7.852  36.579  1.00  0.00     0.020 C 
HETATM    8  C6  UNK     1      33.312  -9.010  34.365  1.00  0.00     0.104 C 
HETATM    9  C7  UNK     1      31.601  -9.362  36.305  1.00  0.00     0.172 C 
HETATM   10  C8  UNK     1      34.737  -8.509  34.107  1.00  0.00     0.052 C 
HETATM   11  C9  UNK     1      30.724  -6.606  37.502  1.00  0.00     0.011 C 
HETATM   12  C10 UNK     1      35.360  -7.676  34.973  1.00  0.00     0.018 C 
HETATM   13  C13 UNK     1      36.731  -7.084  34.781  1.00  0.00     0.069 C 
HETATM   14  H9  UNK     1      35.221  -6.696  36.783  1.00  0.00     0.165 HD
ENDROOT
BRANCH   8  15
HETATM   15  C11 UNK     1      32.365  -8.432  33.343  1.00  0.00     0.029 A 
HETATM   16  C15 UNK     1      31.687  -9.358  32.401  1.00  0.00     0.194 A 
HETATM   17  C17 UNK     1      30.773  -8.740  31.422  1.00  0.00     0.049 A 
HETATM   18  O7  UNK     1      31.872 -10.568  32.430  1.00  0.00    -0.287 OA
HETATM   19  C18 UNK     1      30.600  -7.355  31.434  1.00  0.00     0.089 A 
HETATM   20  C19 UNK     1      30.086  -9.527  30.493  1.00  0.00     0.025 A 
HETATM   21  C21 UNK     1      29.740  -6.750  30.517  1.00  0.00     0.039 A 
HETATM   22  O3  UNK     1      31.248  -6.536  32.324  1.00  0.00    -0.321 OA
HETATM   23  C24 UNK     1      29.053  -7.534  29.590  1.00  0.00     0.009 A 
HETATM   24  C23 UNK     1      29.226  -8.918  29.578  1.00  0.00    -0.061 A 
HETATM   25  C26 UNK     1      28.488  -9.750  28.583  1.00  0.00     0.048 C 
HETATM   26  C16 UNK     1      32.096  -7.125  33.229  1.00  0.00     0.154 A 
ENDBRANCH   8  15
BRANCH  10  27
HETATM   27  C14 UNK     1      35.412  -9.024  32.904  1.00  0.00     0.292 C 
HETATM   28  O6  UNK     1      35.932 -10.123  32.848  1.00  0.00    -0.259 OA
BRANCH  27  29
HETATM   29  O5  UNK     1      35.337  -8.079  31.936  1.00  0.00    -0.318 OA
BRANCH  29  30
HETATM   30  C22 UNK     1      34.964  -8.565  30.642  1.00  0.00     0.178 C 
BRANCH  30  31
HETATM   31  C25 UNK     1      34.059  -7.541  29.975  1.00  0.00     0.022 C 
HETATM   32  C27 UNK     1      33.212  -8.165  28.880  1.00  0.00     0.007 C 
ENDBRANCH  30  31
ENDBRANCH  29  30
ENDBRANCH  27  29
ENDBRANCH  10  27
BRANCH   4  33
HETATM   33  C12 UNK     1      29.779  -9.422  38.057  1.00  0.00     0.270 C 
HETATM   34  O4  UNK     1      28.834  -8.993  37.408  1.00  0.00    -0.264 OA
BRANCH  33  35
HETATM   35  O2  UNK     1      29.709 -10.236  39.148  1.00  0.00    -0.326 OA
HETATM   36  C20 UNK     1      28.461 -10.216  39.850  1.00  0.00     0.213 C 
ENDBRANCH  33  35
ENDBRANCH   4  33
TORSDOF 7
ENDMDL
MODEL 6
REMARK VINA RESULT:      -8.1      2.448      6.385
REMARK  7 active torsions:
REMARK  status: ('A' for Active; 'I' for Inactive)
REMARK    1  A    between atoms: C12_20  and  O2_2 
REMARK    2  A    between atoms: C14_22  and  O5_5 
REMARK    3  A    between atoms: C22_30  and  O5_5 
REMARK    4  A    between atoms: C12_20  and  C2_10 
REMARK    5  A    between atoms: C11_19  and  C6_14 
REMARK    6  A    between atoms: C14_22  and  C8_16 
REMARK    7  A    between atoms: C22_30  and  C25_33 
ROOT
HETATM    1  O1  UNK     1      30.200  -9.193  31.853  1.00  0.00    -0.292 OA
HETATM    2  N1  UNK     1      28.278  -6.289  35.062  1.00  0.00    -0.362 N 
HETATM    3  C1  UNK     1      27.907  -6.437  31.304  1.00  0.00     0.008 C 
HETATM    4  C2  UNK     1      28.303  -7.910  31.125  1.00  0.00     0.164 C 
HETATM    5  C3  UNK     1      27.445  -6.219  32.754  1.00  0.00     0.063 C 
HETATM    6  C4  UNK     1      29.332  -7.714  33.492  1.00  0.00     0.025 C 
HETATM    7  C5  UNK     1      28.401  -6.778  33.777  1.00  0.00     0.020 C 
HETATM    8  C6  UNK     1      30.318  -8.196  34.553  1.00  0.00     0.104 C 
HETATM    9  C7  UNK     1      29.368  -8.327  32.125  1.00  0.00     0.172 C 
HETATM   10  C8  UNK     1      29.939  -7.717  35.958  1.00  0.00     0.052 C 
HETATM   11  C9  UNK     1      29.027  -5.454  30.927  1.00  0.00     0.011 C 
HETATM   12  C10 UNK     1      28.980  -6.781  36.151  1.00  0.00     0.018 C 
HETATM   13  C13 UNK     1      28.578  -6.205  37.482  1.00  0.00     0.069 C 
HETATM   14  H9  UNK     1      27.562  -5.592  35.238  1.00  0.00     0.165 HD
ENDROOT
BRANCH   8  15
HETATM   15  C11 UNK     1      31.720  -7.753  34.214  1.00  0.00     0.029 A 
HETATM   16  C15 UNK     1      32.765  -8.790  34.023  1.00  0.00     0.194 A 
HETATM   17  C17 UNK     1      34.118  -8.302  33.694  1.00  0.00     0.049 A 
HETATM   18  O7  UNK     1      32.523  -9.985  34.132  1.00  0.00    -0.287 OA
HETATM   19  C18 UNK     1      34.335  -6.928  33.583  1.00  0.00     0.089 A 
HETATM   20  C19 UNK     1      35.170  -9.199  33.495  1.00  0.00     0.025 A 
HETATM   21  C21 UNK     1      35.606  -6.444  33.273  1.00  0.00     0.039 A 
HETATM   22  O3  UNK     1      33.338  -6.003  33.768  1.00  0.00    -0.321 OA
HETATM   23  C24 UNK     1      36.658  -7.338  33.073  1.00  0.00     0.009 A 
HETATM   24  C23 UNK     1      36.440  -8.712  33.184  1.00  0.00    -0.061 A 
HETATM   25  C26 UNK     1      37.570  -9.663  32.969  1.00  0.00     0.048 C 
HETATM   26  C16 UNK     1      32.084  -6.472  34.074  1.00  0.00     0.154 A 
ENDBRANCH   8  15
BRANCH  10  27
HETATM   27  C14 UNK     1      30.626  -8.367  37.087  1.00  0.00     0.292 C 
HETATM   28  O6  UNK     1      30.346  -9.481  37.488  1.00  0.00    -0.259 OA
BRANCH  27  29
HETATM   29  O5  UNK     1      31.574  -7.519  37.553  1.00  0.00    -0.318 OA
BRANCH  29  30
HETATM   30  C22 UNK     1      32.888  -8.080  37.662  1.00  0.00     0.178 C 
BRANCH  30  31
HETATM   31  C25 UNK     1      33.909  -7.011  37.307  1.00  0.00     0.022 C 
HETATM   32  C27 UNK     1      33.322  -5.615  37.404  1.00  0.00     0.007 C 
ENDBRANCH  30  31
ENDBRANCH  29  30
ENDBRANCH  27  29
ENDBRANCH  10  27
BRANCH   4  33
HETATM   33  C12 UNK     1      28.667  -8.191  29.699  1.00  0.00     0.270 C 
HETATM   34  O4  UNK     1      29.569  -7.622  29.098  1.00  0.00    -0.264 OA
BRANCH  33  35
HETATM   35  O2  UNK     1      27.848  -9.160  29.201  1.00  0.00    -0.326 OA
HETATM   36  C20 UNK     1      28.476 -10.112  28.336  1.00  0.00     0.213 C 
ENDBRANCH  33  35
ENDBRANCH   4  33
TORSDOF 7
ENDMDL
MODEL 7
REMARK VINA RESULT:      -8.1      2.671      6.824
REMARK  7 active torsions:
REMARK  status: ('A' for Active; 'I' for Inactive)
REMARK    1  A    between atoms: C12_20  and  O2_2 
REMARK    2  A    between atoms: C14_22  and  O5_5 
REMARK    3  A    between atoms: C22_30  and  O5_5 
REMARK    4  A    between atoms: C12_20  and  C2_10 
REMARK    5  A    between atoms: C11_19  and  C6_14 
REMARK    6  A    between atoms: C14_22  and  C8_16 
REMARK    7  A    between atoms: C22_30  and  C25_33 
ROOT
HETATM    1  O1  UNK     1      30.207  -7.006  31.903  1.00  0.00    -0.292 OA
HETATM    2  N1  UNK     1      34.234  -9.471  32.263  1.00  0.00    -0.362 N 
HETATM    3  C1  UNK     1      30.900 -10.364  30.724  1.00  0.00     0.008 C 
HETATM    4  C2  UNK     1      30.405  -8.932  30.479  1.00  0.00     0.164 C 
HETATM    5  C3  UNK     1      32.432 -10.348  30.845  1.00  0.00     0.063 C 
HETATM    6  C4  UNK     1      32.220  -8.227  32.185  1.00  0.00     0.025 C 
HETATM    7  C5  UNK     1      32.945  -9.297  31.796  1.00  0.00     0.020 C 
HETATM    8  C6  UNK     1      32.767  -7.229  33.204  1.00  0.00     0.104 C 
HETATM    9  C7  UNK     1      30.874  -7.985  31.571  1.00  0.00     0.172 C 
HETATM   10  C8  UNK     1      34.259  -7.440  33.479  1.00  0.00     0.052 C 
HETATM   11  C9  UNK     1      30.256 -11.031  31.950  1.00  0.00     0.011 C 
HETATM   12  C10 UNK     1      34.910  -8.542  33.037  1.00  0.00     0.018 C 
HETATM   13  C13 UNK     1      36.355  -8.867  33.304  1.00  0.00     0.069 C 
HETATM   14  H9  UNK     1      34.749 -10.283  31.943  1.00  0.00     0.165 HD
ENDROOT
BRANCH   8  15
HETATM   15  C11 UNK     1      31.985  -7.306  34.492  1.00  0.00     0.029 A 
HETATM   16  C15 UNK     1      31.608  -6.039  35.168  1.00  0.00     0.194 A 
HETATM   17  C17 UNK     1      30.846  -6.170  36.424  1.00  0.00     0.049 A 
HETATM   18  O7  UNK     1      31.910  -4.943  34.713  1.00  0.00    -0.287 OA
HETATM   19  C18 UNK     1      30.530  -7.446  36.896  1.00  0.00     0.089 A 
HETATM   20  C19 UNK     1      30.443  -5.037  37.135  1.00  0.00     0.025 A 
HETATM   21  C21 UNK     1      29.810  -7.593  38.082  1.00  0.00     0.039 A 
HETATM   22  O3  UNK     1      30.900  -8.592  36.238  1.00  0.00    -0.321 OA
HETATM   23  C24 UNK     1      29.407  -6.463  38.793  1.00  0.00     0.009 A 
HETATM   24  C23 UNK     1      29.723  -5.189  38.321  1.00  0.00    -0.061 A 
HETATM   25  C26 UNK     1      29.288  -3.984  39.087  1.00  0.00     0.048 C 
HETATM   26  C16 UNK     1      31.609  -8.453  35.070  1.00  0.00     0.154 A 
ENDBRANCH   8  15
BRANCH  10  27
HETATM   27  C14 UNK     1      34.959  -6.360  34.193  1.00  0.00     0.292 C 
HETATM   28  O6  UNK     1      35.294  -5.316  33.665  1.00  0.00    -0.259 OA
BRANCH  27  29
HETATM   29  O5  UNK     1      35.140  -6.747  35.479  1.00  0.00    -0.318 OA
BRANCH  29  30
HETATM   30  C22 UNK     1      35.260  -5.677  36.423  1.00  0.00     0.178 C 
BRANCH  30  31
HETATM   31  C25 UNK     1      34.356  -5.966  37.611  1.00  0.00     0.022 C 
HETATM   32  C27 UNK     1      34.006  -7.441  37.708  1.00  0.00     0.007 C 
ENDBRANCH  30  31
ENDBRANCH  29  30
ENDBRANCH  27  29
ENDBRANCH  10  27
BRANCH   4  33
HETATM   33  C12 UNK     1      28.924  -8.913  30.257  1.00  0.00     0.270 C 
HETATM   34  O4  UNK     1      28.096  -8.929  31.158  1.00  0.00    -0.264 OA
BRANCH  33  35
HETATM   35  O2  UNK     1      28.663  -8.877  28.919  1.00  0.00    -0.326 OA
HETATM   36  C20 UNK     1      28.133 -10.085  28.363  1.00  0.00     0.213 C 
ENDBRANCH  33  35
ENDBRANCH   4  33
TORSDOF 7
ENDMDL
MODEL 8
REMARK VINA RESULT:      -7.8      2.729      6.907
REMARK  7 active torsions:
REMARK  status: ('A' for Active; 'I' for Inactive)
REMARK    1  A    between atoms: C12_20  and  O2_2 
REMARK    2  A    between atoms: C14_22  and  O5_5 
REMARK    3  A    between atoms: C22_30  and  O5_5 
REMARK    4  A    between atoms: C12_20  and  C2_10 
REMARK    5  A    between atoms: C11_19  and  C6_14 
REMARK    6  A    between atoms: C14_22  and  C8_16 
REMARK    7  A    between atoms: C22_30  and  C25_33 
ROOT
HETATM    1  O1  UNK     1      30.085  -7.195  32.100  1.00  0.00    -0.292 OA
HETATM    2  N1  UNK     1      34.726  -8.058  31.722  1.00  0.00    -0.362 N 
HETATM    3  C1  UNK     1      31.764  -9.535  29.897  1.00  0.00     0.008 C 
HETATM    4  C2  UNK     1      30.790  -8.370  30.126  1.00  0.00     0.164 C 
HETATM    5  C3  UNK     1      33.203  -9.018  30.052  1.00  0.00     0.063 C 
HETATM    6  C4  UNK     1      32.411  -7.649  32.012  1.00  0.00     0.025 C 
HETATM    7  C5  UNK     1      33.417  -8.212  31.308  1.00  0.00     0.020 C 
HETATM    8  C6  UNK     1      32.680  -6.899  33.314  1.00  0.00     0.104 C 
HETATM    9  C7  UNK     1      31.011  -7.717  31.481  1.00  0.00     0.172 C 
HETATM   10  C8  UNK     1      34.174  -6.645  33.539  1.00  0.00     0.052 C 
HETATM   11  C9  UNK     1      31.506 -10.737  30.820  1.00  0.00     0.011 C 
HETATM   12  C10 UNK     1      35.116  -7.245  32.774  1.00  0.00     0.018 C 
HETATM   13  C13 UNK     1      36.604  -7.106  32.953  1.00  0.00     0.069 C 
HETATM   14  H9  UNK     1      35.454  -8.490  31.164  1.00  0.00     0.165 HD
ENDROOT
BRANCH   8  15
HETATM   15  C11 UNK     1      32.099  -7.649  34.487  1.00  0.00     0.029 A 
HETATM   16  C15 UNK     1      31.062  -6.980  35.313  1.00  0.00     0.194 A 
HETATM   17  C17 UNK     1      30.529  -7.757  36.448  1.00  0.00     0.049 A 
HETATM   18  O7  UNK     1      30.669  -5.846  35.071  1.00  0.00    -0.287 OA
HETATM   19  C18 UNK     1      31.015  -9.045  36.676  1.00  0.00     0.089 A 
HETATM   20  C19 UNK     1      29.550  -7.215  37.284  1.00  0.00     0.025 A 
HETATM   21  C21 UNK     1      30.524  -9.798  37.743  1.00  0.00     0.039 A 
HETATM   22  O3  UNK     1      31.975  -9.626  35.886  1.00  0.00    -0.321 OA
HETATM   23  C24 UNK     1      29.546  -9.259  38.579  1.00  0.00     0.009 A 
HETATM   24  C23 UNK     1      29.061  -7.972  38.350  1.00  0.00    -0.061 A 
HETATM   25  C26 UNK     1      28.014  -7.402  39.249  1.00  0.00     0.048 C 
HETATM   26  C16 UNK     1      32.462  -8.890  34.833  1.00  0.00     0.154 A 
ENDBRANCH   8  15
BRANCH  10  27
HETATM   27  C14 UNK     1      34.530  -5.672  34.586  1.00  0.00     0.292 C 
HETATM   28  O6  UNK     1      34.434  -4.468  34.440  1.00  0.00    -0.259 OA
BRANCH  27  29
HETATM   29  O5  UNK     1      34.957  -6.356  35.674  1.00  0.00    -0.318 OA
BRANCH  29  30
HETATM   30  C22 UNK     1      34.791  -5.673  36.922  1.00  0.00     0.178 C 
BRANCH  30  31
HETATM   31  C25 UNK     1      33.703  -6.371  37.723  1.00  0.00     0.022 C 
HETATM   32  C27 UNK     1      32.688  -5.386  38.275  1.00  0.00     0.007 C 
ENDBRANCH  30  31
ENDBRANCH  29  30
ENDBRANCH  27  29
ENDBRANCH  10  27
BRANCH   4  33
HETATM   33  C12 UNK     1      29.376  -8.806  29.889  1.00  0.00     0.270 C 
HETATM   34  O4  UNK     1      28.536  -8.916  30.772  1.00  0.00    -0.264 OA
BRANCH  33  35
HETATM   35  O2  UNK     1      29.193  -9.054  28.561  1.00  0.00    -0.326 OA
HETATM   36  C20 UNK     1      28.403 -10.208  28.254  1.00  0.00     0.213 C 
ENDBRANCH  33  35
ENDBRANCH   4  33
TORSDOF 7
ENDMDL
MODEL 9
REMARK VINA RESULT:      -7.7      3.127      7.215
REMARK  7 active torsions:
REMARK  status: ('A' for Active; 'I' for Inactive)
REMARK    1  A    between atoms: C12_20  and  O2_2 
REMARK    2  A    between atoms: C14_22  and  O5_5 
REMARK    3  A    between atoms: C22_30  and  O5_5 
REMARK    4  A    between atoms: C12_20  and  C2_10 
REMARK    5  A    between atoms: C11_19  and  C6_14 
REMARK    6  A    between atoms: C14_22  and  C8_16 
REMARK    7  A    between atoms: C22_30  and  C25_33 
ROOT
HETATM    1  O1  UNK     1      30.199 -10.071  34.246  1.00  0.00    -0.292 OA
HETATM    2  N1  UNK     1      32.000  -8.123  30.323  1.00  0.00    -0.362 N 
HETATM    3  C1  UNK     1      32.912 -11.290  32.172  1.00  0.00     0.008 C 
HETATM    4  C2  UNK     1      31.567 -11.500  32.881  1.00  0.00     0.164 C 
HETATM    5  C3  UNK     1      32.693 -10.396  30.942  1.00  0.00     0.063 C 
HETATM    6  C4  UNK     1      31.119  -9.009  32.335  1.00  0.00     0.025 C 
HETATM    7  C5  UNK     1      31.901  -9.149  31.243  1.00  0.00     0.020 C 
HETATM    8  C6  UNK     1      30.391  -7.699  32.624  1.00  0.00     0.104 C 
HETATM    9  C7  UNK     1      30.921 -10.176  33.255  1.00  0.00     0.172 C 
HETATM   10  C8  UNK     1      30.437  -6.735  31.434  1.00  0.00     0.052 C 
HETATM   11  C9  UNK     1      34.002 -10.711  33.089  1.00  0.00     0.011 C 
HETATM   12  C10 UNK     1      31.244  -6.962  30.371  1.00  0.00     0.018 C 
HETATM   13  C13 UNK     1      31.403  -6.049  29.185  1.00  0.00     0.069 C 
HETATM   14  H9  UNK     1      32.592  -8.268  29.513  1.00  0.00     0.165 HD
ENDROOT
BRANCH   8  15
HETATM   15  C11 UNK     1      30.963  -7.035  33.852  1.00  0.00     0.029 A 
HETATM   16  C15 UNK     1      30.025  -6.532  34.888  1.00  0.00     0.194 A 
HETATM   17  C17 UNK     1      30.636  -5.891  36.067  1.00  0.00     0.049 A 
HETATM   18  O7  UNK     1      28.811  -6.641  34.774  1.00  0.00    -0.287 OA
HETATM   19  C18 UNK     1      32.027  -5.795  36.142  1.00  0.00     0.089 A 
HETATM   20  C19 UNK     1      29.839  -5.386  37.097  1.00  0.00     0.025 A 
HETATM   21  C21 UNK     1      32.626  -5.192  37.249  1.00  0.00     0.039 A 
HETATM   22  O3  UNK     1      32.857  -6.274  35.160  1.00  0.00    -0.321 OA
HETATM   23  C24 UNK     1      31.832  -4.688  38.278  1.00  0.00     0.009 A 
HETATM   24  C23 UNK     1      30.442  -4.784  38.202  1.00  0.00    -0.061 A 
HETATM   25  C26 UNK     1      29.599  -4.243  39.308  1.00  0.00     0.048 C 
HETATM   26  C16 UNK     1      32.273  -6.868  34.069  1.00  0.00     0.154 A 
ENDBRANCH   8  15
BRANCH  10  27
HETATM   27  C14 UNK     1      29.518  -5.585  31.477  1.00  0.00     0.292 C 
HETATM   28  O6  UNK     1      29.894  -4.428  31.474  1.00  0.00    -0.259 OA
BRANCH  27  29
HETATM   29  O5  UNK     1      28.249  -6.057  31.519  1.00  0.00    -0.318 OA
BRANCH  29  30
HETATM   30  C22 UNK     1      27.704  -6.443  30.252  1.00  0.00     0.178 C 
BRANCH  30  31
HETATM   31  C25 UNK     1      27.114  -7.839  30.376  1.00  0.00     0.022 C 
HETATM   32  C27 UNK     1      27.964  -8.877  29.667  1.00  0.00     0.007 C 
ENDBRANCH  30  31
ENDBRANCH  29  30
ENDBRANCH  27  29
ENDBRANCH  10  27
BRANCH   4  33
HETATM   33  C12 UNK     1      31.716 -12.447  34.032  1.00  0.00     0.270 C 
HETATM   34  O4  UNK     1      31.590 -12.124  35.206  1.00  0.00    -0.264 OA
BRANCH  33  35
HETATM   35  O2  UNK     1      32.007 -13.693  33.563  1.00  0.00    -0.326 OA
HETATM   36  C20 UNK     1      30.961 -14.333  32.823  1.00  0.00     0.213 C 
ENDBRANCH  33  35
ENDBRANCH   4  33
TORSDOF 7
ENDMDL
MODEL 10
REMARK VINA RESULT:      -7.7      2.568      6.428
REMARK  7 active torsions:
REMARK  status: ('A' for Active; 'I' for Inactive)
REMARK    1  A    between atoms: C12_20  and  O2_2 
REMARK    2  A    between atoms: C14_22  and  O5_5 
REMARK    3  A    between atoms: C22_30  and  O5_5 
REMARK    4  A    between atoms: C12_20  and  C2_10 
REMARK    5  A    between atoms: C11_19  and  C6_14 
REMARK    6  A    between atoms: C14_22  and  C8_16 
REMARK    7  A    between atoms: C22_30  and  C25_33 
ROOT
HETATM    1  O1  UNK     1      29.916  -9.023  33.155  1.00  0.00    -0.292 OA
HETATM    2  N1  UNK     1      34.325  -8.338  34.741  1.00  0.00    -0.362 N 
HETATM    3  C1  UNK     1      32.829 -11.129  32.679  1.00  0.00     0.008 C 
HETATM    4  C2  UNK     1      31.636 -10.343  32.118  1.00  0.00     0.164 C 
HETATM    5  C3  UNK     1      33.916 -10.137  33.121  1.00  0.00     0.063 C 
HETATM    6  C4  UNK     1      32.087  -8.674  34.045  1.00  0.00     0.025 C 
HETATM    7  C5  UNK     1      33.390  -9.021  33.988  1.00  0.00     0.020 C 
HETATM    8  C6  UNK     1      31.601  -7.579  34.992  1.00  0.00     0.104 C 
HETATM    9  C7  UNK     1      31.105  -9.339  33.128  1.00  0.00     0.172 C 
HETATM   10  C8  UNK     1      32.759  -6.789  35.609  1.00  0.00     0.052 C 
HETATM   11  C9  UNK     1      32.449 -12.079  33.826  1.00  0.00     0.011 C 
HETATM   12  C10 UNK     1      34.042  -7.207  35.491  1.00  0.00     0.018 C 
HETATM   13  C13 UNK     1      35.239  -6.535  36.108  1.00  0.00     0.069 C 
HETATM   14  H9  UNK     1      35.296  -8.623  34.667  1.00  0.00     0.165 HD
ENDROOT
BRANCH   8  15
HETATM   15  C11 UNK     1      30.735  -8.166  36.080  1.00  0.00     0.029 A 
HETATM   16  C15 UNK     1      29.348  -7.659  36.232  1.00  0.00     0.194 A 
HETATM   17  C17 UNK     1      28.545  -8.265  37.311  1.00  0.00     0.049 A 
HETATM   18  O7  UNK     1      28.890  -6.786  35.506  1.00  0.00    -0.287 OA
HETATM   19  C18 UNK     1      29.119  -9.257  38.108  1.00  0.00     0.089 A 
HETATM   20  C19 UNK     1      27.228  -7.857  37.535  1.00  0.00     0.025 A 
HETATM   21  C21 UNK     1      28.378  -9.844  39.134  1.00  0.00     0.039 A 
HETATM   22  O3  UNK     1      30.407  -9.696  37.932  1.00  0.00    -0.321 OA
HETATM   23  C24 UNK     1      27.063  -9.438  39.359  1.00  0.00     0.009 A 
HETATM   24  C23 UNK     1      26.490  -8.447  38.562  1.00  0.00    -0.061 A 
HETATM   25  C26 UNK     1      25.082  -8.017  38.808  1.00  0.00     0.048 C 
HETATM   26  C16 UNK     1      31.142  -9.122  36.924  1.00  0.00     0.154 A 
ENDBRANCH   8  15
BRANCH  10  27
HETATM   27  C14 UNK     1      32.414  -5.527  36.284  1.00  0.00     0.292 C 
HETATM   28  O6  UNK     1      32.176  -4.494  35.687  1.00  0.00    -0.259 OA
BRANCH  27  29
HETATM   29  O5  UNK     1      32.418  -5.744  37.621  1.00  0.00    -0.318 OA
BRANCH  29  30
HETATM   30  C22 UNK     1      31.675  -4.792  38.391  1.00  0.00     0.178 C 
BRANCH  30  31
HETATM   31  C25 UNK     1      30.328  -5.398  38.753  1.00  0.00     0.022 C 
HETATM   32  C27 UNK     1      29.179  -4.470  38.401  1.00  0.00     0.007 C 
ENDBRANCH  30  31
ENDBRANCH  29  30
ENDBRANCH  27  29
ENDBRANCH  10  27
BRANCH   4  33
HETATM   33  C12 UNK     1      30.591 -11.274  31.584  1.00  0.00     0.270 C 
HETATM   34  O4  UNK     1      29.797 -11.887  32.285  1.00  0.00    -0.264 OA
BRANCH  33  35
HETATM   35  O2  UNK     1      30.674 -11.321  30.224  1.00  0.00    -0.326 OA
HETATM   36  C20 UNK     1      29.792 -10.438  29.523  1.00  0.00     0.213 C 
ENDBRANCH  33  35
ENDBRANCH   4  33
TORSDOF 7
ENDMDL
