MODEL 1
REMARK VINA RESULT:      -7.1      0.000      0.000
REMARK  3 active torsions:
REMARK  status: ('A' for Active; 'I' for Inactive)
REMARK    1  A    between atoms: C5_10  and  O2_2 
REMARK    2  A    between atoms: C10_15  and  O4_4 
REMARK    3  A    between atoms: C10_15  and  C8_13 
ROOT
HETATM    1  O1  UNK     1      18.604   1.060  31.206  1.00  0.00    -0.303 OA
HETATM    2  O3  UNK     1      21.086  -1.651  29.439  1.00  0.00    -0.287 OA
HETATM    3  C1  UNK     1      19.914  -0.980  31.381  1.00  0.00     0.051 A 
HETATM    4  C2  UNK     1      19.064  -0.017  31.925  1.00  0.00     0.090 A 
HETATM    5  C3  UNK     1      20.351  -2.055  32.159  1.00  0.00     0.055 A 
HETATM    6  C4  UNK     1      20.342  -0.843  29.979  1.00  0.00     0.188 A 
HETATM    7  C5  UNK     1      19.931  -2.159  33.486  1.00  0.00     0.069 A 
HETATM    8  C6  UNK     1      18.645  -0.124  33.251  1.00  0.00     0.041 A 
HETATM    9  C7  UNK     1      19.080  -1.196  34.030  1.00  0.00     0.039 A 
HETATM   10  C8  UNK     1      19.010   1.178  29.894  1.00  0.00     0.153 A 
HETATM   11  C9  UNK     1      19.822   0.331  29.249  1.00  0.00     0.100 A 
ENDROOT
BRANCH  10  12
HETATM   12  C10 UNK     1      18.510   2.332  29.146  1.00  0.00     0.201 C 
HETATM   13  O5  UNK     1      17.856   2.260  28.120  1.00  0.00    -0.645 OA
BRANCH  12  14
HETATM   14  O4  UNK     1      18.884   3.472  29.765  1.00  0.00    -0.771 OA
HETATM   15  H8  UNK     1      19.703   3.850  29.379  1.00  0.00     0.167 HD
ENDBRANCH  12  14
ENDBRANCH  10  12
BRANCH   7  16
HETATM   16  O2  UNK     1      20.351  -3.204  34.251  1.00  0.00    -0.356 OA
HETATM   17  C11 UNK     1      20.214  -3.069  35.664  1.00  0.00     0.210 C 
ENDBRANCH   7  16
TORSDOF 3
ENDMDL
MODEL 2
REMARK VINA RESULT:      -7.0      4.348      6.444
REMARK  3 active torsions:
REMARK  status: ('A' for Active; 'I' for Inactive)
REMARK    1  A    between atoms: C5_10  and  O2_2 
REMARK    2  A    between atoms: C10_15  and  O4_4 
REMARK    3  A    between atoms: C10_15  and  C8_13 
ROOT
HETATM    1  O1  UNK     1      18.038   3.192  31.289  1.00  0.00    -0.303 OA
HETATM    2  O3  UNK     1      20.087   6.276  29.577  1.00  0.00    -0.287 OA
HETATM    3  C1  UNK     1      19.101   5.365  31.525  1.00  0.00     0.051 A 
HETATM    4  C2  UNK     1      18.399   4.278  32.048  1.00  0.00     0.090 A 
HETATM    5  C3  UNK     1      19.443   6.444  32.344  1.00  0.00     0.055 A 
HETATM    6  C4  UNK     1      19.472   5.356  30.100  1.00  0.00     0.188 A 
HETATM    7  C5  UNK     1      19.076   6.428  33.691  1.00  0.00     0.069 A 
HETATM    8  C6  UNK     1      18.036   4.265  33.394  1.00  0.00     0.041 A 
HETATM    9  C7  UNK     1      18.375   5.341  34.214  1.00  0.00     0.039 A 
HETATM   10  C8  UNK     1      18.392   3.193  29.956  1.00  0.00     0.153 A 
HETATM   11  C9  UNK     1      19.061   4.167  29.326  1.00  0.00     0.100 A 
ENDROOT
BRANCH  10  12
HETATM   12  C10 UNK     1      17.997   2.027  29.164  1.00  0.00     0.201 C 
HETATM   13  O5  UNK     1      17.731   2.056  27.975  1.00  0.00    -0.645 OA
BRANCH  12  14
HETATM   14  O4  UNK     1      17.975   0.930  29.952  1.00  0.00    -0.771 OA
HETATM   15  H8  UNK     1      18.014   0.100  29.430  1.00  0.00     0.167 HD
ENDBRANCH  12  14
ENDBRANCH  10  12
BRANCH   7  16
HETATM   16  O2  UNK     1      19.406   7.475  34.496  1.00  0.00    -0.356 OA
HETATM   17  C11 UNK     1      18.817   8.738  34.191  1.00  0.00     0.210 C 
ENDBRANCH   7  16
TORSDOF 3
ENDMDL
MODEL 3
REMARK VINA RESULT:      -6.9      4.116      6.357
REMARK  3 active torsions:
REMARK  status: ('A' for Active; 'I' for Inactive)
REMARK    1  A    between atoms: C5_10  and  O2_2 
REMARK    2  A    between atoms: C10_15  and  O4_4 
REMARK    3  A    between atoms: C10_15  and  C8_13 
ROOT
HETATM    1  O1  UNK     1      18.740   4.020  30.153  1.00  0.00    -0.303 OA
HETATM    2  O3  UNK     1      17.858   2.267  33.730  1.00  0.00    -0.287 OA
HETATM    3  C1  UNK     1      18.335   4.255  32.539  1.00  0.00     0.051 A 
HETATM    4  C2  UNK     1      18.634   4.791  31.286  1.00  0.00     0.090 A 
HETATM    5  C3  UNK     1      18.239   5.087  33.657  1.00  0.00     0.055 A 
HETATM    6  C4  UNK     1      18.124   2.803  32.662  1.00  0.00     0.188 A 
HETATM    7  C5  UNK     1      18.445   6.460  33.512  1.00  0.00     0.069 A 
HETATM    8  C6  UNK     1      18.839   6.163  31.144  1.00  0.00     0.041 A 
HETATM    9  C7  UNK     1      18.745   6.996  32.259  1.00  0.00     0.039 A 
HETATM   10  C8  UNK     1      18.540   2.661  30.280  1.00  0.00     0.153 A 
HETATM   11  C9  UNK     1      18.249   2.017  31.417  1.00  0.00     0.100 A 
ENDROOT
BRANCH  10  12
HETATM   12  C10 UNK     1      18.658   1.858  29.062  1.00  0.00     0.201 C 
HETATM   13  O5  UNK     1      19.344   0.856  28.959  1.00  0.00    -0.645 OA
BRANCH  12  14
HETATM   14  O4  UNK     1      17.896   2.397  28.086  1.00  0.00    -0.771 OA
HETATM   15  H8  UNK     1      18.008   1.930  27.231  1.00  0.00     0.167 HD
ENDBRANCH  12  14
ENDBRANCH  10  12
BRANCH   7  16
HETATM   16  O2  UNK     1      18.353   7.278  34.596  1.00  0.00    -0.356 OA
HETATM   17  C11 UNK     1      17.048   7.718  34.968  1.00  0.00     0.210 C 
ENDBRANCH   7  16
TORSDOF 3
ENDMDL
MODEL 4
REMARK VINA RESULT:      -6.9     12.983     15.767
REMARK  3 active torsions:
REMARK  status: ('A' for Active; 'I' for Inactive)
REMARK    1  A    between atoms: C5_10  and  O2_2 
REMARK    2  A    between atoms: C10_15  and  O4_4 
REMARK    3  A    between atoms: C10_15  and  C8_13 
ROOT
HETATM    1  O1  UNK     1      18.276  -0.932  17.950  1.00  0.00    -0.303 OA
HETATM    2  O3  UNK     1      19.888   1.874  15.467  1.00  0.00    -0.287 OA
HETATM    3  C1  UNK     1      18.990  -0.300  15.714  1.00  0.00     0.051 A 
HETATM    4  C2  UNK     1      18.445  -1.215  16.616  1.00  0.00     0.090 A 
HETATM    5  C3  UNK     1      19.138  -0.641  14.367  1.00  0.00     0.055 A 
HETATM    6  C4  UNK     1      19.404   1.025  16.204  1.00  0.00     0.188 A 
HETATM    7  C5  UNK     1      18.739  -1.906  13.930  1.00  0.00     0.069 A 
HETATM    8  C6  UNK     1      18.047  -2.476  16.176  1.00  0.00     0.041 A 
HETATM    9  C7  UNK     1      18.195  -2.820  14.833  1.00  0.00     0.039 A 
HETATM   10  C8  UNK     1      18.666   0.313  18.398  1.00  0.00     0.153 A 
HETATM   11  C9  UNK     1      19.202   1.281  17.645  1.00  0.00     0.100 A 
ENDROOT
BRANCH  10  12
HETATM   12  C10 UNK     1      18.478   0.594  19.822  1.00  0.00     0.201 C 
HETATM   13  O5  UNK     1      18.073   1.652  20.270  1.00  0.00    -0.645 OA
BRANCH  12  14
HETATM   14  O4  UNK     1      18.820  -0.491  20.548  1.00  0.00    -0.771 OA
HETATM   15  H8  UNK     1      18.095  -1.150  20.593  1.00  0.00     0.167 HD
ENDBRANCH  12  14
ENDBRANCH  10  12
BRANCH   7  16
HETATM   16  O2  UNK     1      18.881  -2.246  12.620  1.00  0.00    -0.356 OA
HETATM   17  C11 UNK     1      19.138  -3.619  12.331  1.00  0.00     0.210 C 
ENDBRANCH   7  16
TORSDOF 3
ENDMDL
MODEL 5
REMARK VINA RESULT:      -6.8      7.608      9.769
REMARK  3 active torsions:
REMARK  status: ('A' for Active; 'I' for Inactive)
REMARK    1  A    between atoms: C5_10  and  O2_2 
REMARK    2  A    between atoms: C10_15  and  O4_4 
REMARK    3  A    between atoms: C10_15  and  C8_13 
ROOT
HETATM    1  O1  UNK     1      16.577   8.912  34.800  1.00  0.00    -0.303 OA
HETATM    2  O3  UNK     1      15.983   8.326  30.808  1.00  0.00    -0.287 OA
HETATM    3  C1  UNK     1      17.348   7.954  32.703  1.00  0.00     0.051 A 
HETATM    4  C2  UNK     1      17.492   8.191  34.071  1.00  0.00     0.090 A 
HETATM    5  C3  UNK     1      18.309   7.213  32.011  1.00  0.00     0.055 A 
HETATM    6  C4  UNK     1      16.171   8.497  32.005  1.00  0.00     0.188 A 
HETATM    7  C5  UNK     1      19.416   6.712  32.698  1.00  0.00     0.069 A 
HETATM    8  C6  UNK     1      18.598   7.688  34.754  1.00  0.00     0.041 A 
HETATM    9  C7  UNK     1      19.560   6.949  34.065  1.00  0.00     0.039 A 
HETATM   10  C8  UNK     1      15.478   9.414  34.137  1.00  0.00     0.153 A 
HETATM   11  C9  UNK     1      15.218   9.265  32.832  1.00  0.00     0.100 A 
ENDROOT
BRANCH  10  12
HETATM   12  C10 UNK     1      14.517  10.179  34.932  1.00  0.00     0.201 C 
HETATM   13  O5  UNK     1      13.575  10.799  34.469  1.00  0.00    -0.645 OA
BRANCH  12  14
HETATM   14  O4  UNK     1      14.837  10.091  36.240  1.00  0.00    -0.771 OA
HETATM   15  H8  UNK     1      14.270   9.447  36.716  1.00  0.00     0.167 HD
ENDBRANCH  12  14
ENDBRANCH  10  12
BRANCH   7  16
HETATM   16  O2  UNK     1      20.358   5.989  32.031  1.00  0.00    -0.356 OA
HETATM   17  C11 UNK     1      20.153   5.790  30.633  1.00  0.00     0.210 C 
ENDBRANCH   7  16
TORSDOF 3
ENDMDL
MODEL 6
REMARK VINA RESULT:      -6.8     23.370     25.537
REMARK  3 active torsions:
REMARK  status: ('A' for Active; 'I' for Inactive)
REMARK    1  A    between atoms: C5_10  and  O2_2 
REMARK    2  A    between atoms: C10_15  and  O4_4 
REMARK    3  A    between atoms: C10_15  and  C8_13 
ROOT
HETATM    1  O1  UNK     1      10.102   5.875   9.119  1.00  0.00    -0.303 OA
HETATM    2  O3  UNK     1      11.704   6.284   5.391  1.00  0.00    -0.287 OA
HETATM    3  C1  UNK     1      12.072   5.904   7.696  1.00  0.00     0.051 A 
HETATM    4  C2  UNK     1      11.461   5.775   8.944  1.00  0.00     0.090 A 
HETATM    5  C3  UNK     1      13.460   5.792   7.576  1.00  0.00     0.055 A 
HETATM    6  C4  UNK     1      11.233   6.160   6.514  1.00  0.00     0.188 A 
HETATM    7  C5  UNK     1      14.231   5.551   8.714  1.00  0.00     0.069 A 
HETATM    8  C6  UNK     1      12.234   5.533  10.078  1.00  0.00     0.041 A 
HETATM    9  C7  UNK     1      13.620   5.422   9.962  1.00  0.00     0.039 A 
HETATM   10  C8  UNK     1       9.326   6.113   8.005  1.00  0.00     0.153 A 
HETATM   11  C9  UNK     1       9.779   6.260   6.754  1.00  0.00     0.100 A 
ENDROOT
BRANCH  10  12
HETATM   12  C10 UNK     1       7.881   6.217   8.214  1.00  0.00     0.201 C 
HETATM   13  O5  UNK     1       7.233   5.486   8.942  1.00  0.00    -0.645 OA
BRANCH  12  14
HETATM   14  O4  UNK     1       7.388   7.237   7.479  1.00  0.00    -0.771 OA
HETATM   15  H8  UNK     1       6.939   7.909   8.035  1.00  0.00     0.167 HD
ENDBRANCH  12  14
ENDBRANCH  10  12
BRANCH   7  16
HETATM   16  O2  UNK     1      15.584   5.441   8.606  1.00  0.00    -0.356 OA
HETATM   17  C11 UNK     1      16.366   5.998   9.660  1.00  0.00     0.210 C 
ENDBRANCH   7  16
TORSDOF 3
ENDMDL
MODEL 7
REMARK VINA RESULT:      -6.7     12.520     15.161
REMARK  3 active torsions:
REMARK  status: ('A' for Active; 'I' for Inactive)
REMARK    1  A    between atoms: C5_10  and  O2_2 
REMARK    2  A    between atoms: C10_15  and  O4_4 
REMARK    3  A    between atoms: C10_15  and  C8_13 
ROOT
HETATM    1  O1  UNK     1      19.390   0.815  15.084  1.00  0.00    -0.303 OA
HETATM    2  O3  UNK     1      18.667  -1.815  18.117  1.00  0.00    -0.287 OA
HETATM    3  C1  UNK     1      19.040   0.426  17.458  1.00  0.00     0.051 A 
HETATM    4  C2  UNK     1      19.287   1.272  16.376  1.00  0.00     0.090 A 
HETATM    5  C3  UNK     1      18.944   0.946  18.751  1.00  0.00     0.055 A 
HETATM    6  C4  UNK     1      18.885  -1.017  17.214  1.00  0.00     0.188 A 
HETATM    7  C5  UNK     1      19.098   2.318  18.954  1.00  0.00     0.069 A 
HETATM    8  C6  UNK     1      19.439   2.642  16.581  1.00  0.00     0.041 A 
HETATM    9  C7  UNK     1      19.345   3.164  17.872  1.00  0.00     0.039 A 
HETATM   10  C8  UNK     1      19.242  -0.539  14.867  1.00  0.00     0.153 A 
HETATM   11  C9  UNK     1      19.005  -1.459  15.810  1.00  0.00     0.100 A 
ENDROOT
BRANCH  10  12
HETATM   12  C10 UNK     1      19.356  -1.005  13.485  1.00  0.00     0.201 C 
HETATM   13  O5  UNK     1      18.410  -1.287  12.770  1.00  0.00    -0.645 OA
BRANCH  12  14
HETATM   14  O4  UNK     1      20.658  -1.072  13.134  1.00  0.00    -0.771 OA
HETATM   15  H8  UNK     1      21.105  -0.201  13.204  1.00  0.00     0.167 HD
ENDBRANCH  12  14
ENDBRANCH  10  12
BRANCH   7  16
HETATM   16  O2  UNK     1      19.006   2.833  20.211  1.00  0.00    -0.356 OA
HETATM   17  C11 UNK     1      19.589   2.072  21.267  1.00  0.00     0.210 C 
ENDBRANCH   7  16
TORSDOF 3
ENDMDL
MODEL 8
REMARK VINA RESULT:      -6.7      3.071      4.314
REMARK  3 active torsions:
REMARK  status: ('A' for Active; 'I' for Inactive)
REMARK    1  A    between atoms: C5_10  and  O2_2 
REMARK    2  A    between atoms: C10_15  and  O4_4 
REMARK    3  A    between atoms: C10_15  and  C8_13 
ROOT
HETATM    1  O1  UNK     1      18.313   1.339  31.815  1.00  0.00    -0.303 OA
HETATM    2  O3  UNK     1      18.215   5.095  33.401  1.00  0.00    -0.287 OA
HETATM    3  C1  UNK     1      18.319   2.764  33.784  1.00  0.00     0.051 A 
HETATM    4  C2  UNK     1      18.349   1.507  33.178  1.00  0.00     0.090 A 
HETATM    5  C3  UNK     1      18.358   2.875  35.176  1.00  0.00     0.055 A 
HETATM    6  C4  UNK     1      18.244   3.964  32.935  1.00  0.00     0.188 A 
HETATM    7  C5  UNK     1      18.426   1.721  35.958  1.00  0.00     0.069 A 
HETATM    8  C6  UNK     1      18.418   0.356  33.961  1.00  0.00     0.041 A 
HETATM    9  C7  UNK     1      18.456   0.464  35.351  1.00  0.00     0.039 A 
HETATM   10  C8  UNK     1      18.245   2.470  31.029  1.00  0.00     0.153 A 
HETATM   11  C9  UNK     1      18.208   3.731  31.477  1.00  0.00     0.100 A 
ENDROOT
BRANCH  10  12
HETATM   12  C10 UNK     1      18.207   2.269  29.580  1.00  0.00     0.201 C 
HETATM   13  O5  UNK     1      18.374   3.151  28.755  1.00  0.00    -0.645 OA
BRANCH  12  14
HETATM   14  O4  UNK     1      17.961   0.970  29.308  1.00  0.00    -0.771 OA
HETATM   15  H8  UNK     1      17.008   0.752  29.380  1.00  0.00     0.167 HD
ENDBRANCH  12  14
ENDBRANCH  10  12
BRANCH   7  16
HETATM   16  O2  UNK     1      18.465   1.821  37.315  1.00  0.00    -0.356 OA
HETATM   17  C11 UNK     1      17.635   0.928  38.055  1.00  0.00     0.210 C 
ENDBRANCH   7  16
TORSDOF 3
ENDMDL
MODEL 9
REMARK VINA RESULT:      -6.6      1.472      5.987
REMARK  3 active torsions:
REMARK  status: ('A' for Active; 'I' for Inactive)
REMARK    1  A    between atoms: C5_10  and  O2_2 
REMARK    2  A    between atoms: C10_15  and  O4_4 
REMARK    3  A    between atoms: C10_15  and  C8_13 
ROOT
HETATM    1  O1  UNK     1      20.342  -2.213  33.048  1.00  0.00    -0.303 OA
HETATM    2  O3  UNK     1      17.777   0.913  33.581  1.00  0.00    -0.287 OA
HETATM    3  C1  UNK     1      19.182  -0.294  32.110  1.00  0.00     0.051 A 
HETATM    4  C2  UNK     1      20.051  -1.380  31.995  1.00  0.00     0.090 A 
HETATM    5  C3  UNK     1      18.921   0.520  31.005  1.00  0.00     0.055 A 
HETATM    6  C4  UNK     1      18.549  -0.022  33.411  1.00  0.00     0.188 A 
HETATM    7  C5  UNK     1      19.537   0.240  29.784  1.00  0.00     0.069 A 
HETATM    8  C6  UNK     1      20.663  -1.658  30.774  1.00  0.00     0.041 A 
HETATM    9  C7  UNK     1      20.406  -0.846  29.669  1.00  0.00     0.039 A 
HETATM   10  C8  UNK     1      19.742  -1.950  34.261  1.00  0.00     0.153 A 
HETATM   11  C9  UNK     1      18.894  -0.945  34.511  1.00  0.00     0.100 A 
ENDROOT
BRANCH  10  12
HETATM   12  C10 UNK     1      20.066  -2.849  35.370  1.00  0.00     0.201 C 
HETATM   13  O5  UNK     1      20.286  -2.486  36.513  1.00  0.00    -0.645 OA
BRANCH  12  14
HETATM   14  O4  UNK     1      20.084  -4.125  34.930  1.00  0.00    -0.771 OA
HETATM   15  H8  UNK     1      20.979  -4.522  34.987  1.00  0.00     0.167 HD
ENDBRANCH  12  14
ENDBRANCH  10  12
BRANCH   7  16
HETATM   16  O2  UNK     1      19.289   1.028  28.702  1.00  0.00    -0.356 OA
HETATM   17  C11 UNK     1      18.063   1.758  28.700  1.00  0.00     0.210 C 
ENDBRANCH   7  16
TORSDOF 3
ENDMDL
MODEL 10
REMARK VINA RESULT:      -6.6      6.527      8.854
REMARK  3 active torsions:
REMARK  status: ('A' for Active; 'I' for Inactive)
REMARK    1  A    between atoms: C5_10  and  O2_2 
REMARK    2  A    between atoms: C10_15  and  O4_4 
REMARK    3  A    between atoms: C10_15  and  C8_13 
ROOT
HETATM    1  O1  UNK     1      16.899   5.520  32.242  1.00  0.00    -0.303 OA
HETATM    2  O3  UNK     1      20.133   7.582  33.630  1.00  0.00    -0.287 OA
HETATM    3  C1  UNK     1      17.779   7.428  33.463  1.00  0.00     0.051 A 
HETATM    4  C2  UNK     1      16.716   6.676  32.960  1.00  0.00     0.090 A 
HETATM    5  C3  UNK     1      17.533   8.597  34.188  1.00  0.00     0.055 A 
HETATM    6  C4  UNK     1      19.156   6.971  33.217  1.00  0.00     0.188 A 
HETATM    7  C5  UNK     1      16.217   9.009  34.405  1.00  0.00     0.069 A 
HETATM    8  C6  UNK     1      15.403   7.089  33.179  1.00  0.00     0.041 A 
HETATM    9  C7  UNK     1      15.155   8.257  33.902  1.00  0.00     0.039 A 
HETATM   10  C8  UNK     1      18.194   5.100  32.018  1.00  0.00     0.153 A 
HETATM   11  C9  UNK     1      19.301   5.723  32.440  1.00  0.00     0.100 A 
ENDROOT
BRANCH  10  12
HETATM   12  C10 UNK     1      18.367   3.866  31.250  1.00  0.00     0.201 C 
HETATM   13  O5  UNK     1      17.627   2.900  31.318  1.00  0.00    -0.645 OA
BRANCH  12  14
HETATM   14  O4  UNK     1      19.463   3.968  30.468  1.00  0.00    -0.771 OA
HETATM   15  H8  UNK     1      20.291   3.990  30.993  1.00  0.00     0.167 HD
ENDBRANCH  12  14
ENDBRANCH  10  12
BRANCH   7  16
HETATM   16  O2  UNK     1      15.970  10.146  35.110  1.00  0.00    -0.356 OA
HETATM   17  C11 UNK     1      14.608  10.430  35.426  1.00  0.00     0.210 C 
ENDBRANCH   7  16
TORSDOF 3
ENDMDL
