MODEL 1
REMARK VINA RESULT:      -9.3      0.000      0.000
REMARK  5 active torsions:
REMARK  status: ('A' for Active; 'I' for Inactive)
REMARK    1  A    between atoms: C16_24  and  O4_4 
REMARK    2  A    between atoms: C22_30  and  O4_4 
REMARK       I    between atoms: C5_13  and  N1_7 
REMARK       I    between atoms: C17_25  and  N2_8 
REMARK    3  A    between atoms: C9_17  and  N2_8 
REMARK    4  A    between atoms: C5_13  and  C6_14 
REMARK    5  A    between atoms: C14_22  and  C17_25 
ROOT
HETATM    1  O5  UNK     1      17.260  -0.637  33.798  1.00  0.00    -0.267 OA
HETATM    2  N2  UNK     1      19.236  -0.261  35.022  1.00  0.00    -0.323 N 
HETATM    3  C17 UNK     1      18.187   0.077  34.179  1.00  0.00     0.262 C 
HETATM    4  H14 UNK     1      19.916   0.457  35.260  1.00  0.00     0.169 HD
ENDROOT
BRANCH   2   5
HETATM    5  C9  UNK     1      19.480  -1.512  35.640  1.00  0.00     0.035 A 
HETATM    6  C10 UNK     1      20.145  -2.499  34.931  1.00  0.00     0.030 A 
HETATM    7  C7  UNK     1      20.384  -3.731  35.540  1.00  0.00     0.019 A 
HETATM    8  C6  UNK     1      19.956  -3.958  36.848  1.00  0.00     0.032 A 
HETATM    9  C8  UNK     1      19.288  -2.952  37.547  1.00  0.00     0.019 A 
HETATM   10  C11 UNK     1      19.047  -1.721  36.938  1.00  0.00     0.030 A 
BRANCH   8  11
HETATM   11  C5  UNK     1      20.210  -5.255  37.490  1.00  0.00     0.253 C 
HETATM   12  N1  UNK     1      19.300  -6.289  37.264  1.00  0.00    -0.344 N 
HETATM   13  C1  UNK     1      19.470  -7.569  37.951  1.00  0.00     0.152 C 
HETATM   14  C2  UNK     1      18.096  -6.205  36.428  1.00  0.00     0.152 C 
HETATM   15  C3  UNK     1      19.329  -8.721  36.968  1.00  0.00     0.187 C 
HETATM   16  O1  UNK     1      18.081  -8.629  36.277  1.00  0.00    -0.388 OA
HETATM   17  C4  UNK     1      18.005  -7.422  35.514  1.00  0.00     0.187 C 
HETATM   18  O2  UNK     1      21.217  -5.328  38.192  1.00  0.00    -0.267 OA
ENDBRANCH   8  11
ENDBRANCH   2   5
BRANCH   3  19
HETATM   19  C14 UNK     1      18.263   1.472  33.731  1.00  0.00     0.108 A 
HETATM   20  C15 UNK     1      18.418   1.663  32.416  1.00  0.00     0.037 A 
HETATM   21  C12 UNK     1      18.504   3.011  31.876  1.00  0.00     0.002 A 
HETATM   22  C13 UNK     1      18.425   4.092  32.748  1.00  0.00     0.123 A 
HETATM   23  C18 UNK     1      18.664   3.257  30.510  1.00  0.00     0.014 A 
HETATM   24  O3  UNK     1      18.263   3.884  34.132  1.00  0.00    -0.271 OA
HETATM   25  C16 UNK     1      18.502   5.408  32.295  1.00  0.00     0.103 A 
HETATM   26  C19 UNK     1      18.177   2.606  34.677  1.00  0.00     0.304 A 
HETATM   27  O6  UNK     1      18.035   2.435  35.883  1.00  0.00    -0.259 OA
HETATM   28  C20 UNK     1      18.661   5.644  30.931  1.00  0.00     0.040 A 
HETATM   29  C21 UNK     1      18.741   4.572  30.040  1.00  0.00     0.004 A 
BRANCH  25  30
HETATM   30  O4  UNK     1      18.424   6.455  33.159  1.00  0.00    -0.349 OA
BRANCH  30  31
HETATM   31  C22 UNK     1      19.604   7.235  33.343  1.00  0.00     0.171 C 
HETATM   32  C23 UNK     1      19.379   8.208  34.481  1.00  0.00     0.034 C 
ENDBRANCH  30  31
ENDBRANCH  25  30
ENDBRANCH   3  19
TORSDOF 5
ENDMDL
MODEL 2
REMARK VINA RESULT:      -9.2      4.099     11.749
REMARK  5 active torsions:
REMARK  status: ('A' for Active; 'I' for Inactive)
REMARK    1  A    between atoms: C16_24  and  O4_4 
REMARK    2  A    between atoms: C22_30  and  O4_4 
REMARK       I    between atoms: C5_13  and  N1_7 
REMARK       I    between atoms: C17_25  and  N2_8 
REMARK    3  A    between atoms: C9_17  and  N2_8 
REMARK    4  A    between atoms: C5_13  and  C6_14 
REMARK    5  A    between atoms: C14_22  and  C17_25 
ROOT
HETATM    1  O5  UNK     1      18.680   4.908  30.376  1.00  0.00    -0.267 OA
HETATM    2  N2  UNK     1      17.562   4.682  32.437  1.00  0.00    -0.323 N 
HETATM    3  C17 UNK     1      18.298   4.249  31.342  1.00  0.00     0.262 C 
HETATM    4  H14 UNK     1      17.343   4.011  33.169  1.00  0.00     0.169 HD
ENDROOT
BRANCH   2   5
HETATM    5  C9  UNK     1      17.081   5.989  32.692  1.00  0.00     0.035 A 
HETATM    6  C10 UNK     1      16.659   6.774  31.632  1.00  0.00     0.030 A 
HETATM    7  C7  UNK     1      16.186   8.062  31.884  1.00  0.00     0.019 A 
HETATM    8  C6  UNK     1      16.141   8.545  33.192  1.00  0.00     0.032 A 
HETATM    9  C8  UNK     1      16.570   7.741  34.248  1.00  0.00     0.019 A 
HETATM   10  C11 UNK     1      17.044   6.454  33.996  1.00  0.00     0.030 A 
BRANCH   8  11
HETATM   11  C5  UNK     1      15.641   9.901  33.458  1.00  0.00     0.253 C 
HETATM   12  N1  UNK     1      16.540  10.847  33.954  1.00  0.00    -0.344 N 
HETATM   13  C1  UNK     1      16.064  12.183  34.311  1.00  0.00     0.152 C 
HETATM   14  C2  UNK     1      17.961  10.615  34.235  1.00  0.00     0.152 C 
HETATM   15  C3  UNK     1      16.982  13.247  33.728  1.00  0.00     0.187 C 
HETATM   16  O1  UNK     1      18.330  13.013  34.142  1.00  0.00    -0.388 OA
HETATM   17  C4  UNK     1      18.803  11.752  33.665  1.00  0.00     0.187 C 
HETATM   18  O2  UNK     1      14.450  10.099  33.224  1.00  0.00    -0.267 OA
ENDBRANCH   8  11
ENDBRANCH   2   5
BRANCH   3  19
HETATM   19  C14 UNK     1      18.620   2.820  31.422  1.00  0.00     0.108 A 
HETATM   20  C15 UNK     1      19.123   2.264  30.314  1.00  0.00     0.037 A 
HETATM   21  C12 UNK     1      19.474   0.852  30.295  1.00  0.00     0.002 A 
HETATM   22  C13 UNK     1      19.277   0.095  31.444  1.00  0.00     0.123 A 
HETATM   23  C18 UNK     1      20.002   0.231  29.160  1.00  0.00     0.014 A 
HETATM   24  O3  UNK     1      18.747   0.685  32.609  1.00  0.00    -0.271 OA
HETATM   25  C16 UNK     1      19.592  -1.262  31.492  1.00  0.00     0.103 A 
HETATM   26  C19 UNK     1      18.403   2.033  32.656  1.00  0.00     0.304 A 
HETATM   27  O6  UNK     1      17.943   2.539  33.675  1.00  0.00    -0.259 OA
HETATM   28  C20 UNK     1      20.118  -1.874  30.356  1.00  0.00     0.040 A 
HETATM   29  C21 UNK     1      20.323  -1.129  29.193  1.00  0.00     0.004 A 
BRANCH  25  30
HETATM   30  O4  UNK     1      19.394  -1.991  32.623  1.00  0.00    -0.349 OA
BRANCH  30  31
HETATM   31  C22 UNK     1      20.555  -2.430  33.326  1.00  0.00     0.171 C 
HETATM   32  C23 UNK     1      20.262  -2.430  34.811  1.00  0.00     0.034 C 
ENDBRANCH  30  31
ENDBRANCH  25  30
ENDBRANCH   3  19
TORSDOF 5
ENDMDL
MODEL 3
REMARK VINA RESULT:      -9.0      2.086      3.293
REMARK  5 active torsions:
REMARK  status: ('A' for Active; 'I' for Inactive)
REMARK    1  A    between atoms: C16_24  and  O4_4 
REMARK    2  A    between atoms: C22_30  and  O4_4 
REMARK       I    between atoms: C5_13  and  N1_7 
REMARK       I    between atoms: C17_25  and  N2_8 
REMARK    3  A    between atoms: C9_17  and  N2_8 
REMARK    4  A    between atoms: C5_13  and  C6_14 
REMARK    5  A    between atoms: C14_22  and  C17_25 
ROOT
HETATM    1  O5  UNK     1      17.494  -1.452  35.666  1.00  0.00    -0.267 OA
HETATM    2  N2  UNK     1      19.663  -2.072  34.992  1.00  0.00    -0.323 N 
HETATM    3  C17 UNK     1      18.496  -1.321  34.965  1.00  0.00     0.262 C 
HETATM    4  H14 UNK     1      20.415  -1.820  34.356  1.00  0.00     0.169 HD
ENDROOT
BRANCH   2   5
HETATM    5  C9  UNK     1      19.967  -3.167  35.838  1.00  0.00     0.035 A 
HETATM    6  C10 UNK     1      19.984  -4.446  35.310  1.00  0.00     0.030 A 
HETATM    7  C7  UNK     1      20.283  -5.524  36.143  1.00  0.00     0.019 A 
HETATM    8  C6  UNK     1      20.561  -5.306  37.492  1.00  0.00     0.032 A 
HETATM    9  C8  UNK     1      20.540  -4.010  38.008  1.00  0.00     0.019 A 
HETATM   10  C11 UNK     1      20.240  -2.933  37.175  1.00  0.00     0.030 A 
BRANCH   8  11
HETATM   11  C5  UNK     1      20.878  -6.440  38.371  1.00  0.00     0.253 C 
HETATM   12  N1  UNK     1      20.003  -7.529  38.380  1.00  0.00    -0.344 N 
HETATM   13  C1  UNK     1      20.236  -8.640  39.300  1.00  0.00     0.152 C 
HETATM   14  C2  UNK     1      18.780  -7.653  37.578  1.00  0.00     0.152 C 
HETATM   15  C3  UNK     1      20.119  -9.969  38.569  1.00  0.00     0.187 C 
HETATM   16  O1  UNK     1      18.854 -10.057  37.909  1.00  0.00    -0.388 OA
HETATM   17  C4  UNK     1      18.716  -9.029  36.925  1.00  0.00     0.187 C 
HETATM   18  O2  UNK     1      21.902  -6.340  39.044  1.00  0.00    -0.267 OA
ENDBRANCH   8  11
ENDBRANCH   2   5
BRANCH   3  19
HETATM   19  C14 UNK     1      18.543  -0.262  33.951  1.00  0.00     0.108 A 
HETATM   20  C15 UNK     1      18.284   0.979  34.380  1.00  0.00     0.037 A 
HETATM   21  C12 UNK     1      18.306   2.097  33.449  1.00  0.00     0.002 A 
HETATM   22  C13 UNK     1      18.600   1.853  32.112  1.00  0.00     0.123 A 
HETATM   23  C18 UNK     1      18.043   3.408  33.853  1.00  0.00     0.014 A 
HETATM   24  O3  UNK     1      18.872   0.545  31.666  1.00  0.00    -0.271 OA
HETATM   25  C16 UNK     1      18.637   2.879  31.169  1.00  0.00     0.103 A 
HETATM   26  C19 UNK     1      18.858  -0.544  32.533  1.00  0.00     0.304 A 
HETATM   27  O6  UNK     1      19.097  -1.680  32.136  1.00  0.00    -0.259 OA
HETATM   28  C20 UNK     1      18.373   4.184  31.580  1.00  0.00     0.040 A 
HETATM   29  C21 UNK     1      18.077   4.448  32.919  1.00  0.00     0.004 A 
BRANCH  25  30
HETATM   30  O4  UNK     1      18.925   2.626  29.865  1.00  0.00    -0.349 OA
BRANCH  30  31
HETATM   31  C22 UNK     1      17.841   2.234  29.024  1.00  0.00     0.171 C 
HETATM   32  C23 UNK     1      18.193   0.929  28.342  1.00  0.00     0.034 C 
ENDBRANCH  30  31
ENDBRANCH  25  30
ENDBRANCH   3  19
TORSDOF 5
ENDMDL
MODEL 4
REMARK VINA RESULT:      -8.8      1.842      2.543
REMARK  5 active torsions:
REMARK  status: ('A' for Active; 'I' for Inactive)
REMARK    1  A    between atoms: C16_24  and  O4_4 
REMARK    2  A    between atoms: C22_30  and  O4_4 
REMARK       I    between atoms: C5_13  and  N1_7 
REMARK       I    between atoms: C17_25  and  N2_8 
REMARK    3  A    between atoms: C9_17  and  N2_8 
REMARK    4  A    between atoms: C5_13  and  C6_14 
REMARK    5  A    between atoms: C14_22  and  C17_25 
ROOT
HETATM    1  O5  UNK     1      17.669  -1.222  35.918  1.00  0.00    -0.267 OA
HETATM    2  N2  UNK     1      19.601  -2.132  34.925  1.00  0.00    -0.323 N 
HETATM    3  C17 UNK     1      18.536  -1.250  35.044  1.00  0.00     0.262 C 
HETATM    4  H14 UNK     1      20.248  -2.007  34.150  1.00  0.00     0.169 HD
ENDROOT
BRANCH   2   5
HETATM    5  C9  UNK     1      19.936  -3.205  35.787  1.00  0.00     0.035 A 
HETATM    6  C10 UNK     1      19.895  -4.501  35.301  1.00  0.00     0.030 A 
HETATM    7  C7  UNK     1      20.223  -5.557  36.150  1.00  0.00     0.019 A 
HETATM    8  C6  UNK     1      20.589  -5.303  37.471  1.00  0.00     0.032 A 
HETATM    9  C8  UNK     1      20.626  -3.991  37.944  1.00  0.00     0.019 A 
HETATM   10  C11 UNK     1      20.295  -2.935  37.096  1.00  0.00     0.030 A 
BRANCH   8  11
HETATM   11  C5  UNK     1      20.937  -6.416  38.365  1.00  0.00     0.253 C 
HETATM   12  N1  UNK     1      20.070  -7.508  38.424  1.00  0.00    -0.344 N 
HETATM   13  C1  UNK     1      20.336  -8.597  39.362  1.00  0.00     0.152 C 
HETATM   14  C2  UNK     1      18.825  -7.656  37.661  1.00  0.00     0.152 C 
HETATM   15  C3  UNK     1      20.205  -9.942  38.665  1.00  0.00     0.187 C 
HETATM   16  O1  UNK     1      18.922 -10.052  38.044  1.00  0.00    -0.388 OA
HETATM   17  C4  UNK     1      18.750  -9.048  37.042  1.00  0.00     0.187 C 
HETATM   18  O2  UNK     1      21.980  -6.294  39.007  1.00  0.00    -0.267 OA
ENDBRANCH   8  11
ENDBRANCH   2   5
BRANCH   3  19
HETATM   19  C14 UNK     1      18.510  -0.263  33.960  1.00  0.00     0.108 A 
HETATM   20  C15 UNK     1      18.999  -0.666  32.781  1.00  0.00     0.037 A 
HETATM   21  C12 UNK     1      19.017   0.241  31.644  1.00  0.00     0.002 A 
HETATM   22  C13 UNK     1      18.520   1.530  31.805  1.00  0.00     0.123 A 
HETATM   23  C18 UNK     1      19.517  -0.139  30.396  1.00  0.00     0.014 A 
HETATM   24  O3  UNK     1      18.006   1.950  33.047  1.00  0.00    -0.271 OA
HETATM   25  C16 UNK     1      18.508   2.448  30.756  1.00  0.00     0.103 A 
HETATM   26  C19 UNK     1      17.976   1.103  34.153  1.00  0.00     0.304 A 
HETATM   27  O6  UNK     1      17.526   1.477  35.231  1.00  0.00    -0.259 OA
HETATM   28  C20 UNK     1      19.009   2.061  29.514  1.00  0.00     0.040 A 
HETATM   29  C21 UNK     1      19.511   0.771  29.334  1.00  0.00     0.004 A 
BRANCH  25  30
HETATM   30  O4  UNK     1      18.020   3.705  30.927  1.00  0.00    -0.349 OA
BRANCH  30  31
HETATM   31  C22 UNK     1      18.958   4.728  31.257  1.00  0.00     0.171 C 
HETATM   32  C23 UNK     1      19.035   5.715  30.112  1.00  0.00     0.034 C 
ENDBRANCH  30  31
ENDBRANCH  25  30
ENDBRANCH   3  19
TORSDOF 5
ENDMDL
MODEL 5
REMARK VINA RESULT:      -8.5      4.643     12.503
REMARK  5 active torsions:
REMARK  status: ('A' for Active; 'I' for Inactive)
REMARK    1  A    between atoms: C16_24  and  O4_4 
REMARK    2  A    between atoms: C22_30  and  O4_4 
REMARK       I    between atoms: C5_13  and  N1_7 
REMARK       I    between atoms: C17_25  and  N2_8 
REMARK    3  A    between atoms: C9_17  and  N2_8 
REMARK    4  A    between atoms: C5_13  and  C6_14 
REMARK    5  A    between atoms: C14_22  and  C17_25 
ROOT
HETATM    1  O5  UNK     1      19.297   5.973  33.324  1.00  0.00    -0.267 OA
HETATM    2  N2  UNK     1      16.959   5.805  33.555  1.00  0.00    -0.323 N 
HETATM    3  C17 UNK     1      18.255   5.325  33.424  1.00  0.00     0.262 C 
HETATM    4  H14 UNK     1      16.202   5.133  33.650  1.00  0.00     0.169 HD
ENDROOT
BRANCH   2   5
HETATM    5  C9  UNK     1      16.538   7.156  33.603  1.00  0.00     0.035 A 
HETATM    6  C10 UNK     1      16.204   7.803  32.425  1.00  0.00     0.030 A 
HETATM    7  C7  UNK     1      15.791   9.135  32.473  1.00  0.00     0.019 A 
HETATM    8  C6  UNK     1      15.715   9.798  33.697  1.00  0.00     0.032 A 
HETATM    9  C8  UNK     1      16.055   9.131  34.874  1.00  0.00     0.019 A 
HETATM   10  C11 UNK     1      16.470   7.801  34.826  1.00  0.00     0.030 A 
BRANCH   8  11
HETATM   11  C5  UNK     1      15.278  11.200  33.748  1.00  0.00     0.253 C 
HETATM   12  N1  UNK     1      16.235  12.178  34.023  1.00  0.00    -0.344 N 
HETATM   13  C1  UNK     1      15.827  13.575  34.165  1.00  0.00     0.152 C 
HETATM   14  C2  UNK     1      17.663  11.937  34.265  1.00  0.00     0.152 C 
HETATM   15  C3  UNK     1      16.743  14.481  33.357  1.00  0.00     0.187 C 
HETATM   16  O1  UNK     1      18.105  14.265  33.734  1.00  0.00    -0.388 OA
HETATM   17  C4  UNK     1      18.506  12.921  33.460  1.00  0.00     0.187 C 
HETATM   18  O2  UNK     1      14.082  11.406  33.546  1.00  0.00    -0.267 OA
ENDBRANCH   8  11
ENDBRANCH   2   5
BRANCH   3  19
HETATM   19  C14 UNK     1      18.305   3.859  33.414  1.00  0.00     0.108 A 
HETATM   20  C15 UNK     1      18.408   3.263  34.608  1.00  0.00     0.037 A 
HETATM   21  C12 UNK     1      18.464   1.812  34.701  1.00  0.00     0.002 A 
HETATM   22  C13 UNK     1      18.410   1.061  33.532  1.00  0.00     0.123 A 
HETATM   23  C18 UNK     1      18.570   1.149  35.926  1.00  0.00     0.014 A 
HETATM   24  O3  UNK     1      18.301   1.694  32.278  1.00  0.00    -0.271 OA
HETATM   25  C16 UNK     1      18.459  -0.332  33.552  1.00  0.00     0.103 A 
HETATM   26  C19 UNK     1      18.245   3.080  32.158  1.00  0.00     0.304 A 
HETATM   27  O6  UNK     1      18.150   3.622  31.062  1.00  0.00    -0.259 OA
HETATM   28  C20 UNK     1      18.565  -0.987  34.778  1.00  0.00     0.040 A 
HETATM   29  C21 UNK     1      18.620  -0.249  35.962  1.00  0.00     0.004 A 
BRANCH  25  30
HETATM   30  O4  UNK     1      18.406  -1.055  32.402  1.00  0.00    -0.349 OA
BRANCH  30  31
HETATM   31  C22 UNK     1      19.616  -1.670  31.964  1.00  0.00     0.171 C 
HETATM   32  C23 UNK     1      20.155  -0.906  30.773  1.00  0.00     0.034 C 
ENDBRANCH  30  31
ENDBRANCH  25  30
ENDBRANCH   3  19
TORSDOF 5
ENDMDL
MODEL 6
REMARK VINA RESULT:      -8.4      2.496     11.073
REMARK  5 active torsions:
REMARK  status: ('A' for Active; 'I' for Inactive)
REMARK    1  A    between atoms: C16_24  and  O4_4 
REMARK    2  A    between atoms: C22_30  and  O4_4 
REMARK       I    between atoms: C5_13  and  N1_7 
REMARK       I    between atoms: C17_25  and  N2_8 
REMARK    3  A    between atoms: C9_17  and  N2_8 
REMARK    4  A    between atoms: C5_13  and  C6_14 
REMARK    5  A    between atoms: C14_22  and  C17_25 
ROOT
HETATM    1  O5  UNK     1      20.448  -2.219  36.790  1.00  0.00    -0.267 OA
HETATM    2  N2  UNK     1      20.003  -3.470  34.845  1.00  0.00    -0.323 N 
HETATM    3  C17 UNK     1      20.256  -3.279  36.197  1.00  0.00     0.262 C 
HETATM    4  H14 UNK     1      19.844  -4.417  34.512  1.00  0.00     0.169 HD
ENDROOT
BRANCH   2   5
HETATM    5  C9  UNK     1      19.908  -2.481  33.836  1.00  0.00     0.035 A 
HETATM    6  C10 UNK     1      20.801  -2.505  32.778  1.00  0.00     0.030 A 
HETATM    7  C7  UNK     1      20.707  -1.530  31.785  1.00  0.00     0.019 A 
HETATM    8  C6  UNK     1      19.721  -0.547  31.863  1.00  0.00     0.032 A 
HETATM    9  C8  UNK     1      18.829  -0.537  32.936  1.00  0.00     0.019 A 
HETATM   10  C11 UNK     1      18.924  -1.511  33.930  1.00  0.00     0.030 A 
BRANCH   8  11
HETATM   11  C5  UNK     1      19.620   0.479  30.817  1.00  0.00     0.253 C 
HETATM   12  N1  UNK     1      18.858   1.618  31.083  1.00  0.00    -0.344 N 
HETATM   13  C1  UNK     1      18.664   2.623  30.039  1.00  0.00     0.152 C 
HETATM   14  C2  UNK     1      18.139   1.897  32.332  1.00  0.00     0.152 C 
HETATM   15  C3  UNK     1      18.918   4.018  30.590  1.00  0.00     0.187 C 
HETATM   16  O1  UNK     1      18.096   4.250  31.737  1.00  0.00    -0.388 OA
HETATM   17  C4  UNK     1      18.406   3.328  32.784  1.00  0.00     0.187 C 
HETATM   18  O2  UNK     1      20.221   0.249  29.768  1.00  0.00    -0.267 OA
ENDBRANCH   8  11
ENDBRANCH   2   5
BRANCH   3  19
HETATM   19  C14 UNK     1      20.281  -4.545  36.939  1.00  0.00     0.108 A 
HETATM   20  C15 UNK     1      21.426  -4.841  37.565  1.00  0.00     0.037 A 
HETATM   21  C12 UNK     1      21.548  -6.074  38.328  1.00  0.00     0.002 A 
HETATM   22  C13 UNK     1      20.458  -6.935  38.391  1.00  0.00     0.123 A 
HETATM   23  C18 UNK     1      22.723  -6.422  38.998  1.00  0.00     0.014 A 
HETATM   24  O3  UNK     1      19.255  -6.619  37.730  1.00  0.00    -0.271 OA
HETATM   25  C16 UNK     1      20.509  -8.132  39.104  1.00  0.00     0.103 A 
HETATM   26  C19 UNK     1      19.109  -5.446  36.994  1.00  0.00     0.304 A 
HETATM   27  O6  UNK     1      18.058  -5.179  36.421  1.00  0.00    -0.259 OA
HETATM   28  C20 UNK     1      21.685  -8.472  39.770  1.00  0.00     0.040 A 
HETATM   29  C21 UNK     1      22.789  -7.619  39.718  1.00  0.00     0.004 A 
BRANCH  25  30
HETATM   30  O4  UNK     1      19.437  -8.966  39.158  1.00  0.00    -0.349 OA
BRANCH  30  31
HETATM   31  C22 UNK     1      19.652 -10.327  38.789  1.00  0.00     0.171 C 
HETATM   32  C23 UNK     1      19.493 -10.463  37.290  1.00  0.00     0.034 C 
ENDBRANCH  30  31
ENDBRANCH  25  30
ENDBRANCH   3  19
TORSDOF 5
ENDMDL
MODEL 7
REMARK VINA RESULT:      -8.4      9.873     13.851
REMARK  5 active torsions:
REMARK  status: ('A' for Active; 'I' for Inactive)
REMARK    1  A    between atoms: C16_24  and  O4_4 
REMARK    2  A    between atoms: C22_30  and  O4_4 
REMARK       I    between atoms: C5_13  and  N1_7 
REMARK       I    between atoms: C17_25  and  N2_8 
REMARK    3  A    between atoms: C9_17  and  N2_8 
REMARK    4  A    between atoms: C5_13  and  C6_14 
REMARK    5  A    between atoms: C14_22  and  C17_25 
ROOT
HETATM    1  O5  UNK     1      26.523  -9.005  39.547  1.00  0.00    -0.267 OA
HETATM    2  N2  UNK     1      26.859  -7.830  37.533  1.00  0.00    -0.323 N 
HETATM    3  C17 UNK     1      26.115  -8.459  38.522  1.00  0.00     0.262 C 
HETATM    4  H14 UNK     1      26.365  -7.405  36.753  1.00  0.00     0.169 HD
ENDROOT
BRANCH   2   5
HETATM    5  C9  UNK     1      28.266  -7.675  37.477  1.00  0.00     0.035 A 
HETATM    6  C10 UNK     1      29.026  -8.623  36.814  1.00  0.00     0.030 A 
HETATM    7  C7  UNK     1      30.411  -8.470  36.759  1.00  0.00     0.019 A 
HETATM    8  C6  UNK     1      31.016  -7.370  37.368  1.00  0.00     0.032 A 
HETATM    9  C8  UNK     1      30.235  -6.424  38.032  1.00  0.00     0.019 A 
HETATM   10  C11 UNK     1      28.850  -6.578  38.088  1.00  0.00     0.030 A 
BRANCH   8  11
HETATM   11  C5  UNK     1      32.475  -7.208  37.310  1.00  0.00     0.253 C 
HETATM   12  N1  UNK     1      33.017  -6.527  36.218  1.00  0.00    -0.344 N 
HETATM   13  C1  UNK     1      34.468  -6.416  36.080  1.00  0.00     0.152 C 
HETATM   14  C2  UNK     1      32.257  -5.942  35.108  1.00  0.00     0.152 C 
HETATM   15  C3  UNK     1      34.864  -4.983  35.759  1.00  0.00     0.187 C 
HETATM   16  O1  UNK     1      34.164  -4.529  34.597  1.00  0.00    -0.388 OA
HETATM   17  C4  UNK     1      32.751  -4.529  34.817  1.00  0.00     0.187 C 
HETATM   18  O2  UNK     1      33.116  -7.697  38.239  1.00  0.00    -0.267 OA
ENDBRANCH   8  11
ENDBRANCH   2   5
BRANCH   3  19
HETATM   19  C14 UNK     1      24.676  -8.423  38.239  1.00  0.00     0.108 A 
HETATM   20  C15 UNK     1      23.944  -7.599  39.000  1.00  0.00     0.037 A 
HETATM   21  C12 UNK     1      22.508  -7.494  38.795  1.00  0.00     0.002 A 
HETATM   22  C13 UNK     1      21.912  -8.262  37.800  1.00  0.00     0.123 A 
HETATM   23  C18 UNK     1      21.706  -6.647  39.564  1.00  0.00     0.014 A 
HETATM   24  O3  UNK     1      22.687  -9.127  37.003  1.00  0.00    -0.271 OA
HETATM   25  C16 UNK     1      20.541  -8.208  37.553  1.00  0.00     0.103 A 
HETATM   26  C19 UNK     1      24.063  -9.249  37.176  1.00  0.00     0.304 A 
HETATM   27  O6  UNK     1      24.730 -10.004  36.477  1.00  0.00    -0.259 OA
HETATM   28  C20 UNK     1      19.749  -7.361  38.325  1.00  0.00     0.040 A 
HETATM   29  C21 UNK     1      20.330  -6.581  39.327  1.00  0.00     0.004 A 
BRANCH  25  30
HETATM   30  O4  UNK     1      19.972  -8.965  36.579  1.00  0.00    -0.349 OA
BRANCH  30  31
HETATM   31  C22 UNK     1      19.000  -9.927  36.986  1.00  0.00     0.171 C 
HETATM   32  C23 UNK     1      19.693 -11.032  37.756  1.00  0.00     0.034 C 
ENDBRANCH  30  31
ENDBRANCH  25  30
ENDBRANCH   3  19
TORSDOF 5
ENDMDL
MODEL 8
REMARK VINA RESULT:      -8.3     27.294     30.449
REMARK  5 active torsions:
REMARK  status: ('A' for Active; 'I' for Inactive)
REMARK    1  A    between atoms: C16_24  and  O4_4 
REMARK    2  A    between atoms: C22_30  and  O4_4 
REMARK       I    between atoms: C5_13  and  N1_7 
REMARK       I    between atoms: C17_25  and  N2_8 
REMARK    3  A    between atoms: C9_17  and  N2_8 
REMARK    4  A    between atoms: C5_13  and  C6_14 
REMARK    5  A    between atoms: C14_22  and  C17_25 
ROOT
HETATM    1  O5  UNK     1      15.323   7.972   9.372  1.00  0.00    -0.267 OA
HETATM    2  N2  UNK     1      14.529   9.933   8.338  1.00  0.00    -0.323 N 
HETATM    3  C17 UNK     1      14.435   8.648   8.854  1.00  0.00     0.262 C 
HETATM    4  H14 UNK     1      13.690  10.365   7.959  1.00  0.00     0.169 HD
ENDROOT
BRANCH   2   5
HETATM    5  C9  UNK     1      15.676  10.763   8.290  1.00  0.00     0.035 A 
HETATM    6  C10 UNK     1      16.832  10.358   8.935  1.00  0.00     0.030 A 
HETATM    7  C7  UNK     1      17.960  11.176   8.888  1.00  0.00     0.019 A 
HETATM    8  C6  UNK     1      17.916  12.387   8.197  1.00  0.00     0.032 A 
HETATM    9  C8  UNK     1      16.743  12.780   7.553  1.00  0.00     0.019 A 
HETATM   10  C11 UNK     1      15.614  11.962   7.601  1.00  0.00     0.030 A 
BRANCH   8  11
HETATM   11  C5  UNK     1      19.105  13.249   8.147  1.00  0.00     0.253 C 
HETATM   12  N1  UNK     1      19.799  13.342   6.939  1.00  0.00    -0.344 N 
HETATM   13  C1  UNK     1      21.034  14.121   6.869  1.00  0.00     0.152 C 
HETATM   14  C2  UNK     1      19.445  12.654   5.691  1.00  0.00     0.152 C 
HETATM   15  C3  UNK     1      21.016  15.036   5.653  1.00  0.00     0.187 C 
HETATM   16  O1  UNK     1      20.779  14.272   4.467  1.00  0.00    -0.388 OA
HETATM   17  C4  UNK     1      19.505  13.628   4.519  1.00  0.00     0.187 C 
HETATM   18  O2  UNK     1      19.405  13.826   9.190  1.00  0.00    -0.267 OA
ENDBRANCH   8  11
ENDBRANCH   2   5
BRANCH   3  19
HETATM   19  C14 UNK     1      13.080   8.099   8.729  1.00  0.00     0.108 A 
HETATM   20  C15 UNK     1      12.711   7.708   7.503  1.00  0.00     0.037 A 
HETATM   21  C12 UNK     1      11.386   7.150   7.279  1.00  0.00     0.002 A 
HETATM   22  C13 UNK     1      10.514   7.034   8.356  1.00  0.00     0.123 A 
HETATM   23  C18 UNK     1      10.960   6.728   6.017  1.00  0.00     0.014 A 
HETATM   24  O3  UNK     1      10.907   7.448   9.643  1.00  0.00    -0.271 OA
HETATM   25  C16 UNK     1       9.231   6.509   8.208  1.00  0.00     0.103 A 
HETATM   26  C19 UNK     1      12.168   7.985   9.889  1.00  0.00     0.304 A 
HETATM   27  O6  UNK     1      12.502   8.342  11.013  1.00  0.00    -0.259 OA
HETATM   28  C20 UNK     1       8.814   6.091   6.946  1.00  0.00     0.040 A 
HETATM   29  C21 UNK     1       9.676   6.198   5.853  1.00  0.00     0.004 A 
BRANCH  25  30
HETATM   30  O4  UNK     1       8.388   6.402   9.269  1.00  0.00    -0.349 OA
BRANCH  30  31
HETATM   31  C22 UNK     1       7.821   5.118   9.522  1.00  0.00     0.171 C 
HETATM   32  C23 UNK     1       8.837   4.265  10.251  1.00  0.00     0.034 C 
ENDBRANCH  30  31
ENDBRANCH  25  30
ENDBRANCH   3  19
TORSDOF 5
ENDMDL
MODEL 9
REMARK VINA RESULT:      -8.3     17.933     20.656
REMARK  5 active torsions:
REMARK  status: ('A' for Active; 'I' for Inactive)
REMARK    1  A    between atoms: C16_24  and  O4_4 
REMARK    2  A    between atoms: C22_30  and  O4_4 
REMARK       I    between atoms: C5_13  and  N1_7 
REMARK       I    between atoms: C17_25  and  N2_8 
REMARK    3  A    between atoms: C9_17  and  N2_8 
REMARK    4  A    between atoms: C5_13  and  C6_14 
REMARK    5  A    between atoms: C14_22  and  C17_25 
ROOT
HETATM    1  O5  UNK     1      17.699  -2.442  15.987  1.00  0.00    -0.267 OA
HETATM    2  N2  UNK     1      19.680  -1.820  14.876  1.00  0.00    -0.323 N 
HETATM    3  C17 UNK     1      18.690  -1.726  15.844  1.00  0.00     0.262 C 
HETATM    4  H14 UNK     1      20.452  -1.158  14.908  1.00  0.00     0.169 HD
ENDROOT
BRANCH   2   5
HETATM    5  C9  UNK     1      19.777  -2.766  13.827  1.00  0.00     0.035 A 
HETATM    6  C10 UNK     1      20.437  -3.961  14.052  1.00  0.00     0.030 A 
HETATM    7  C7  UNK     1      20.533  -4.893  13.018  1.00  0.00     0.019 A 
HETATM    8  C6  UNK     1      19.965  -4.616  11.775  1.00  0.00     0.032 A 
HETATM    9  C8  UNK     1      19.302  -3.406  11.565  1.00  0.00     0.019 A 
HETATM   10  C11 UNK     1      19.208  -2.474  12.598  1.00  0.00     0.030 A 
BRANCH   8  11
HETATM   11  C5  UNK     1      20.064  -5.597  10.686  1.00  0.00     0.253 C 
HETATM   12  N1  UNK     1      19.221  -6.709  10.725  1.00  0.00    -0.344 N 
HETATM   13  C1  UNK     1      19.345  -7.750   9.706  1.00  0.00     0.152 C 
HETATM   14  C2  UNK     1      18.224  -6.994  11.763  1.00  0.00     0.152 C 
HETATM   15  C3  UNK     1      17.977  -8.118   9.152  1.00  0.00     0.187 C 
HETATM   16  O1  UNK     1      17.100  -8.493  10.218  1.00  0.00    -0.388 OA
HETATM   17  C4  UNK     1      16.901  -7.406  11.124  1.00  0.00     0.187 C 
HETATM   18  O2  UNK     1      20.899  -5.362   9.814  1.00  0.00    -0.267 OA
ENDBRANCH   8  11
ENDBRANCH   2   5
BRANCH   3  19
HETATM   19  C14 UNK     1      18.925  -0.614  16.771  1.00  0.00     0.108 A 
HETATM   20  C15 UNK     1      18.946  -0.923  18.073  1.00  0.00     0.037 A 
HETATM   21  C12 UNK     1      19.172   0.111  19.070  1.00  0.00     0.002 A 
HETATM   22  C13 UNK     1      19.365   1.422  18.647  1.00  0.00     0.123 A 
HETATM   23  C18 UNK     1      19.203  -0.168  20.439  1.00  0.00     0.014 A 
HETATM   24  O3  UNK     1      19.343   1.743  17.276  1.00  0.00    -0.271 OA
HETATM   25  C16 UNK     1      19.587   2.460  19.551  1.00  0.00     0.103 A 
HETATM   26  C19 UNK     1      19.128   0.774  16.299  1.00  0.00     0.304 A 
HETATM   27  O6  UNK     1      19.111   1.062  15.107  1.00  0.00    -0.259 OA
HETATM   28  C20 UNK     1      19.616   2.173  20.914  1.00  0.00     0.040 A 
HETATM   29  C21 UNK     1      19.425   0.863  21.357  1.00  0.00     0.004 A 
BRANCH  25  30
HETATM   30  O4  UNK     1      19.773   3.737  19.124  1.00  0.00    -0.349 OA
BRANCH  30  31
HETATM   31  C22 UNK     1      21.071   4.077  18.638  1.00  0.00     0.171 C 
HETATM   32  C23 UNK     1      21.071   5.528  18.206  1.00  0.00     0.034 C 
ENDBRANCH  30  31
ENDBRANCH  25  30
ENDBRANCH   3  19
TORSDOF 5
ENDMDL
MODEL 10
REMARK VINA RESULT:      -8.2      4.688     12.468
REMARK  5 active torsions:
REMARK  status: ('A' for Active; 'I' for Inactive)
REMARK    1  A    between atoms: C16_24  and  O4_4 
REMARK    2  A    between atoms: C22_30  and  O4_4 
REMARK       I    between atoms: C5_13  and  N1_7 
REMARK       I    between atoms: C17_25  and  N2_8 
REMARK    3  A    between atoms: C9_17  and  N2_8 
REMARK    4  A    between atoms: C5_13  and  C6_14 
REMARK    5  A    between atoms: C14_22  and  C17_25 
ROOT
HETATM    1  O5  UNK     1      18.935   5.986  32.029  1.00  0.00    -0.267 OA
HETATM    2  N2  UNK     1      17.446   6.090  33.850  1.00  0.00    -0.323 N 
HETATM    3  C17 UNK     1      18.267   5.465  32.921  1.00  0.00     0.262 C 
HETATM    4  H14 UNK     1      16.974   5.514  34.543  1.00  0.00     0.169 HD
ENDROOT
BRANCH   2   5
HETATM    5  C9  UNK     1      17.188   7.476  33.983  1.00  0.00     0.035 A 
HETATM    6  C10 UNK     1      16.004   7.892  34.567  1.00  0.00     0.030 A 
HETATM    7  C7  UNK     1      15.751   9.257  34.697  1.00  0.00     0.019 A 
HETATM    8  C6  UNK     1      16.686  10.187  34.242  1.00  0.00     0.032 A 
HETATM    9  C8  UNK     1      17.875   9.750  33.656  1.00  0.00     0.019 A 
HETATM   10  C11 UNK     1      18.127   8.385  33.525  1.00  0.00     0.030 A 
BRANCH   8  11
HETATM   11  C5  UNK     1      16.420  11.625  34.380  1.00  0.00     0.253 C 
HETATM   12  N1  UNK     1      15.261  12.139  33.796  1.00  0.00    -0.344 N 
HETATM   13  C1  UNK     1      15.003  13.577  33.838  1.00  0.00     0.152 C 
HETATM   14  C2  UNK     1      14.262  11.365  33.049  1.00  0.00     0.152 C 
HETATM   15  C3  UNK     1      13.571  13.847  34.276  1.00  0.00     0.187 C 
HETATM   16  O1  UNK     1      12.657  13.148  33.427  1.00  0.00    -0.388 OA
HETATM   17  C4  UNK     1      12.857  11.735  33.512  1.00  0.00     0.187 C 
HETATM   18  O2  UNK     1      17.256  12.277  35.005  1.00  0.00    -0.267 OA
ENDBRANCH   8  11
ENDBRANCH   2   5
BRANCH   3  19
HETATM   19  C14 UNK     1      18.287   4.008  33.092  1.00  0.00     0.108 A 
HETATM   20  C15 UNK     1      18.376   3.561  34.350  1.00  0.00     0.037 A 
HETATM   21  C12 UNK     1      18.404   2.132  34.621  1.00  0.00     0.002 A 
HETATM   22  C13 UNK     1      18.337   1.244  33.553  1.00  0.00     0.123 A 
HETATM   23  C18 UNK     1      18.495   1.622  35.918  1.00  0.00     0.014 A 
HETATM   24  O3  UNK     1      18.244   1.720  32.230  1.00  0.00    -0.271 OA
HETATM   25  C16 UNK     1      18.359  -0.137  33.744  1.00  0.00     0.103 A 
HETATM   26  C19 UNK     1      18.215   3.082  31.941  1.00  0.00     0.304 A 
HETATM   27  O6  UNK     1      18.134   3.487  30.786  1.00  0.00    -0.259 OA
HETATM   28  C20 UNK     1      18.450  -0.637  35.041  1.00  0.00     0.040 A 
HETATM   29  C21 UNK     1      18.517   0.239  36.126  1.00  0.00     0.004 A 
BRANCH  25  30
HETATM   30  O4  UNK     1      18.295  -0.994  32.691  1.00  0.00    -0.349 OA
BRANCH  30  31
HETATM   31  C22 UNK     1      19.487  -1.700  32.352  1.00  0.00     0.171 C 
HETATM   32  C23 UNK     1      20.038  -1.145  31.056  1.00  0.00     0.034 C 
ENDBRANCH  30  31
ENDBRANCH  25  30
ENDBRANCH   3  19
TORSDOF 5
ENDMDL
