MODEL 1
REMARK VINA RESULT:      -8.0      0.000      0.000
REMARK  3 active torsions:
REMARK  status: ('A' for Active; 'I' for Inactive)
REMARK    1  A    between atoms: C1_5  and  N1_4 
REMARK       I    between atoms: C7_11  and  N1_4 
REMARK    2  A    between atoms: C1_5  and  C2_6 
REMARK    3  A    between atoms: C4_8  and  C7_11 
ROOT
HETATM    1  O1  UNK     1      18.127   3.072  32.856  1.00  0.00    -0.274 OA
HETATM    2  O3  UNK     1      18.348   0.873  32.276  1.00  0.00    -0.259 OA
HETATM    3  C3  UNK     1      18.522   4.798  31.189  1.00  0.00    -0.001 A 
HETATM    4  C4  UNK     1      18.754   2.467  30.571  1.00  0.00     0.108 A 
HETATM    5  C5  UNK     1      18.812   3.756  30.216  1.00  0.00     0.037 A 
HETATM    6  C6  UNK     1      18.186   4.432  32.488  1.00  0.00     0.089 A 
HETATM    7  C8  UNK     1      18.400   2.053  31.947  1.00  0.00     0.304 A 
HETATM    8  C9  UNK     1      18.569   6.155  30.863  1.00  0.00     0.014 A 
HETATM    9  C11 UNK     1      17.898   5.380  33.467  1.00  0.00     0.038 A 
HETATM   10  C12 UNK     1      18.282   7.119  31.834  1.00  0.00     0.001 A 
HETATM   11  C13 UNK     1      17.947   6.731  33.133  1.00  0.00     0.003 A 
ENDROOT
BRANCH   4  12
HETATM   12  C7  UNK     1      19.064   1.491  29.519  1.00  0.00     0.257 C 
HETATM   13  O2  UNK     1      18.461   1.504  28.448  1.00  0.00    -0.267 OA
HETATM   14  N1  UNK     1      20.065   0.609  29.883  1.00  0.00    -0.357 N 
HETATM   15  H6  UNK     1      20.487   0.664  30.805  1.00  0.00     0.162 HD
BRANCH  14  16
HETATM   16  C1  UNK     1      20.541  -0.444  29.014  1.00  0.00     0.122 C 
BRANCH  16  17
HETATM   17  C2  UNK     1      20.421  -1.823  29.652  1.00  0.00     0.015 C 
HETATM   18  C10 UNK     1      20.261  -1.759  31.164  1.00  0.00     0.006 C 
ENDBRANCH  16  17
ENDBRANCH  14  16
ENDBRANCH   4  12
TORSDOF 3
ENDMDL
MODEL 2
REMARK VINA RESULT:      -7.7      1.484      5.955
REMARK  3 active torsions:
REMARK  status: ('A' for Active; 'I' for Inactive)
REMARK    1  A    between atoms: C1_5  and  N1_4 
REMARK       I    between atoms: C7_11  and  N1_4 
REMARK    2  A    between atoms: C1_5  and  C2_6 
REMARK    3  A    between atoms: C4_8  and  C7_11 
ROOT
HETATM    1  O1  UNK     1      18.920   0.372  32.278  1.00  0.00    -0.274 OA
HETATM    2  O3  UNK     1      18.008   2.463  32.410  1.00  0.00    -0.259 OA
HETATM    3  C3  UNK     1      19.922  -0.371  30.191  1.00  0.00    -0.001 A 
HETATM    4  C4  UNK     1      18.957   1.847  30.329  1.00  0.00     0.108 A 
HETATM    5  C5  UNK     1      19.585   0.915  29.601  1.00  0.00     0.037 A 
HETATM    6  C6  UNK     1      19.581  -0.613  31.517  1.00  0.00     0.089 A 
HETATM    7  C8  UNK     1      18.585   1.611  31.741  1.00  0.00     0.304 A 
HETATM    8  C9  UNK     1      20.578  -1.372  29.470  1.00  0.00     0.014 A 
HETATM    9  C11 UNK     1      19.875  -1.824  32.141  1.00  0.00     0.038 A 
HETATM   10  C12 UNK     1      20.880  -2.592  30.082  1.00  0.00     0.001 A 
HETATM   11  C13 UNK     1      20.529  -2.817  31.415  1.00  0.00     0.003 A 
ENDROOT
BRANCH   4  12
HETATM   12  C7  UNK     1      18.660   3.111  29.645  1.00  0.00     0.257 C 
HETATM   13  O2  UNK     1      17.989   3.130  28.614  1.00  0.00    -0.267 OA
HETATM   14  N1  UNK     1      19.208   4.209  30.282  1.00  0.00    -0.357 N 
HETATM   15  H6  UNK     1      19.770   4.087  31.119  1.00  0.00     0.162 HD
BRANCH  14  16
HETATM   16  C1  UNK     1      19.054   5.561  29.796  1.00  0.00     0.122 C 
BRANCH  16  17
HETATM   17  C2  UNK     1      18.557   6.514  30.877  1.00  0.00     0.015 C 
HETATM   18  C10 UNK     1      19.169   6.228  32.240  1.00  0.00     0.006 C 
ENDBRANCH  16  17
ENDBRANCH  14  16
ENDBRANCH   4  12
TORSDOF 3
ENDMDL
MODEL 3
REMARK VINA RESULT:      -7.6      1.656      6.281
REMARK  3 active torsions:
REMARK  status: ('A' for Active; 'I' for Inactive)
REMARK    1  A    between atoms: C1_5  and  N1_4 
REMARK       I    between atoms: C7_11  and  N1_4 
REMARK    2  A    between atoms: C1_5  and  C2_6 
REMARK    3  A    between atoms: C4_8  and  C7_11 
ROOT
HETATM    1  O1  UNK     1      18.955   1.239  28.574  1.00  0.00    -0.274 OA
HETATM    2  O3  UNK     1      18.120   3.365  28.522  1.00  0.00    -0.259 OA
HETATM    3  C3  UNK     1      19.594   0.252  30.703  1.00  0.00    -0.001 A 
HETATM    4  C4  UNK     1      18.708   2.506  30.651  1.00  0.00     0.108 A 
HETATM    5  C5  UNK     1      19.193   1.484  31.366  1.00  0.00     0.037 A 
HETATM    6  C6  UNK     1      19.467   0.158  29.322  1.00  0.00     0.089 A 
HETATM    7  C8  UNK     1      18.563   2.429  29.180  1.00  0.00     0.304 A 
HETATM    8  C9  UNK     1      20.105  -0.840  31.409  1.00  0.00     0.014 A 
HETATM    9  C11 UNK     1      19.833  -0.992  28.627  1.00  0.00     0.038 A 
HETATM   10  C12 UNK     1      20.477  -2.002  30.726  1.00  0.00     0.001 A 
HETATM   11  C13 UNK     1      20.341  -2.077  29.338  1.00  0.00     0.003 A 
ENDROOT
BRANCH   4  12
HETATM   12  C7  UNK     1      18.331   3.705  31.409  1.00  0.00     0.257 C 
HETATM   13  O2  UNK     1      17.574   3.630  32.376  1.00  0.00    -0.267 OA
HETATM   14  N1  UNK     1      18.909   4.859  30.912  1.00  0.00    -0.357 N 
HETATM   15  H6  UNK     1      19.504   4.821  30.090  1.00  0.00     0.162 HD
BRANCH  14  16
HETATM   16  C1  UNK     1      18.685   6.165  31.491  1.00  0.00     0.122 C 
BRANCH  16  17
HETATM   17  C2  UNK     1      19.798   6.575  32.447  1.00  0.00     0.015 C 
HETATM   18  C10 UNK     1      19.459   6.288  33.903  1.00  0.00     0.006 C 
ENDBRANCH  16  17
ENDBRANCH  14  16
ENDBRANCH   4  12
TORSDOF 3
ENDMDL
MODEL 4
REMARK VINA RESULT:      -7.5      3.479      6.640
REMARK  3 active torsions:
REMARK  status: ('A' for Active; 'I' for Inactive)
REMARK    1  A    between atoms: C1_5  and  N1_4 
REMARK       I    between atoms: C7_11  and  N1_4 
REMARK    2  A    between atoms: C1_5  and  C2_6 
REMARK    3  A    between atoms: C4_8  and  C7_11 
ROOT
HETATM    1  O1  UNK     1      18.814   1.322  31.417  1.00  0.00    -0.274 OA
HETATM    2  O3  UNK     1      17.817   2.240  33.256  1.00  0.00    -0.259 OA
HETATM    3  C3  UNK     1      19.545  -0.996  31.480  1.00  0.00    -0.001 A 
HETATM    4  C4  UNK     1      18.488  -0.025  33.431  1.00  0.00     0.108 A 
HETATM    5  C5  UNK     1      19.056  -1.087  32.847  1.00  0.00     0.037 A 
HETATM    6  C6  UNK     1      19.413   0.207  30.796  1.00  0.00     0.089 A 
HETATM    7  C8  UNK     1      18.336   1.265  32.723  1.00  0.00     0.304 A 
HETATM    8  C9  UNK     1      20.144  -2.078  30.831  1.00  0.00     0.014 A 
HETATM    9  C11 UNK     1      19.861   0.360  29.486  1.00  0.00     0.038 A 
HETATM   10  C12 UNK     1      20.599  -1.941  29.516  1.00  0.00     0.001 A 
HETATM   11  C13 UNK     1      20.457  -0.724  28.845  1.00  0.00     0.003 A 
ENDROOT
BRANCH   4  12
HETATM   12  C7  UNK     1      18.026  -0.215  34.812  1.00  0.00     0.257 C 
HETATM   13  O2  UNK     1      18.700  -0.850  35.622  1.00  0.00    -0.267 OA
HETATM   14  N1  UNK     1      16.803   0.381  35.056  1.00  0.00    -0.357 N 
HETATM   15  H6  UNK     1      16.311   0.866  34.311  1.00  0.00     0.162 HD
BRANCH  14  16
HETATM   16  C1  UNK     1      16.143   0.329  36.341  1.00  0.00     0.122 C 
BRANCH  16  17
HETATM   17  C2  UNK     1      16.526   1.499  37.239  1.00  0.00     0.015 C 
HETATM   18  C10 UNK     1      17.615   1.142  38.240  1.00  0.00     0.006 C 
ENDBRANCH  16  17
ENDBRANCH  14  16
ENDBRANCH   4  12
TORSDOF 3
ENDMDL
MODEL 5
REMARK VINA RESULT:      -7.1      5.977      7.758
REMARK  3 active torsions:
REMARK  status: ('A' for Active; 'I' for Inactive)
REMARK    1  A    between atoms: C1_5  and  N1_4 
REMARK       I    between atoms: C7_11  and  N1_4 
REMARK    2  A    between atoms: C1_5  and  C2_6 
REMARK    3  A    between atoms: C4_8  and  C7_11 
ROOT
HETATM    1  O1  UNK     1      19.582  -0.872  34.813  1.00  0.00    -0.274 OA
HETATM    2  O3  UNK     1      20.588  -2.818  34.163  1.00  0.00    -0.259 OA
HETATM    3  C3  UNK     1      18.437  -0.771  36.956  1.00  0.00    -0.001 A 
HETATM    4  C4  UNK     1      19.503  -2.835  36.269  1.00  0.00     0.108 A 
HETATM    5  C5  UNK     1      18.796  -2.162  37.185  1.00  0.00     0.037 A 
HETATM    6  C6  UNK     1      18.838  -0.158  35.774  1.00  0.00     0.089 A 
HETATM    7  C8  UNK     1      19.941  -2.203  35.004  1.00  0.00     0.304 A 
HETATM    8  C9  UNK     1      17.701  -0.030  37.883  1.00  0.00     0.014 A 
HETATM    9  C11 UNK     1      18.526   1.171  35.493  1.00  0.00     0.038 A 
HETATM   10  C12 UNK     1      17.380   1.304  37.617  1.00  0.00     0.001 A 
HETATM   11  C13 UNK     1      17.792   1.903  36.424  1.00  0.00     0.003 A 
ENDROOT
BRANCH   4  12
HETATM   12  C7  UNK     1      19.817  -4.232  36.591  1.00  0.00     0.257 C 
HETATM   13  O2  UNK     1      20.961  -4.572  36.886  1.00  0.00    -0.267 OA
HETATM   14  N1  UNK     1      18.712  -5.061  36.518  1.00  0.00    -0.357 N 
HETATM   15  H6  UNK     1      17.809  -4.688  36.240  1.00  0.00     0.162 HD
BRANCH  14  16
HETATM   16  C1  UNK     1      18.772  -6.480  36.790  1.00  0.00     0.122 C 
BRANCH  16  17
HETATM   17  C2  UNK     1      18.965  -7.306  35.524  1.00  0.00     0.015 C 
HETATM   18  C10 UNK     1      20.407  -7.751  35.326  1.00  0.00     0.006 C 
ENDBRANCH  16  17
ENDBRANCH  14  16
ENDBRANCH   4  12
TORSDOF 3
ENDMDL
MODEL 6
REMARK VINA RESULT:      -7.1     22.625     24.172
REMARK  3 active torsions:
REMARK  status: ('A' for Active; 'I' for Inactive)
REMARK    1  A    between atoms: C1_5  and  N1_4 
REMARK       I    between atoms: C7_11  and  N1_4 
REMARK    2  A    between atoms: C1_5  and  C2_6 
REMARK    3  A    between atoms: C4_8  and  C7_11 
ROOT
HETATM    1  O1  UNK     1      11.157   7.186   9.491  1.00  0.00    -0.274 OA
HETATM    2  O3  UNK     1      12.882   7.460  10.964  1.00  0.00    -0.259 OA
HETATM    3  C3  UNK     1      11.613   6.361   7.250  1.00  0.00    -0.001 A 
HETATM    4  C4  UNK     1      13.443   6.649   8.811  1.00  0.00     0.108 A 
HETATM    5  C5  UNK     1      13.025   6.289   7.591  1.00  0.00     0.037 A 
HETATM    6  C6  UNK     1      10.711   6.808   8.208  1.00  0.00     0.089 A 
HETATM    7  C8  UNK     1      12.501   7.129   9.847  1.00  0.00     0.304 A 
HETATM    8  C9  UNK     1      11.132   5.995   5.991  1.00  0.00     0.014 A 
HETATM    9  C11 UNK     1       9.346   6.901   7.946  1.00  0.00     0.038 A 
HETATM   10  C12 UNK     1       9.765   6.081   5.711  1.00  0.00     0.001 A 
HETATM   11  C13 UNK     1       8.874   6.534   6.687  1.00  0.00     0.003 A 
ENDROOT
BRANCH   4  12
HETATM   12  C7  UNK     1      14.886   6.542   9.058  1.00  0.00     0.257 C 
HETATM   13  O2  UNK     1      15.517   5.549   8.700  1.00  0.00    -0.267 OA
HETATM   14  N1  UNK     1      15.402   7.646   9.713  1.00  0.00    -0.357 N 
HETATM   15  H6  UNK     1      14.792   8.409   9.989  1.00  0.00     0.162 HD
BRANCH  14  16
HETATM   16  C1  UNK     1      16.798   7.770  10.068  1.00  0.00     0.122 C 
BRANCH  16  17
HETATM   17  C2  UNK     1      17.337   9.174   9.821  1.00  0.00     0.015 C 
HETATM   18  C10 UNK     1      16.342  10.068   9.095  1.00  0.00     0.006 C 
ENDBRANCH  16  17
ENDBRANCH  14  16
ENDBRANCH   4  12
TORSDOF 3
ENDMDL
MODEL 7
REMARK VINA RESULT:      -7.1      2.886      4.431
REMARK  3 active torsions:
REMARK  status: ('A' for Active; 'I' for Inactive)
REMARK    1  A    between atoms: C1_5  and  N1_4 
REMARK       I    between atoms: C7_11  and  N1_4 
REMARK    2  A    between atoms: C1_5  and  C2_6 
REMARK    3  A    between atoms: C4_8  and  C7_11 
ROOT
HETATM    1  O1  UNK     1      18.943   2.536  30.610  1.00  0.00    -0.274 OA
HETATM    2  O3  UNK     1      18.872   0.365  31.321  1.00  0.00    -0.259 OA
HETATM    3  C3  UNK     1      18.381   4.325  32.158  1.00  0.00    -0.001 A 
HETATM    4  C4  UNK     1      18.306   2.025  32.915  1.00  0.00     0.108 A 
HETATM    5  C5  UNK     1      18.144   3.325  33.188  1.00  0.00     0.037 A 
HETATM    6  C6  UNK     1      18.774   3.907  30.891  1.00  0.00     0.089 A 
HETATM    7  C8  UNK     1      18.725   1.556  31.575  1.00  0.00     0.304 A 
HETATM    8  C9  UNK     1      18.225   5.692  32.398  1.00  0.00     0.014 A 
HETATM    9  C11 UNK     1      19.016   4.813  29.861  1.00  0.00     0.038 A 
HETATM   10  C12 UNK     1      18.464   6.614  31.375  1.00  0.00     0.001 A 
HETATM   11  C13 UNK     1      18.859   6.175  30.109  1.00  0.00     0.003 A 
ENDROOT
BRANCH   4  12
HETATM   12  C7  UNK     1      18.044   1.093  34.019  1.00  0.00     0.257 C 
HETATM   13  O2  UNK     1      18.967   0.614  34.675  1.00  0.00    -0.267 OA
HETATM   14  N1  UNK     1      16.696   0.846  34.204  1.00  0.00    -0.357 N 
HETATM   15  H6  UNK     1      16.007   1.273  33.591  1.00  0.00     0.162 HD
BRANCH  14  16
HETATM   16  C1  UNK     1      16.191  -0.040  35.228  1.00  0.00     0.122 C 
BRANCH  16  17
HETATM   17  C2  UNK     1      15.991   0.669  36.563  1.00  0.00     0.015 C 
HETATM   18  C10 UNK     1      17.101   0.370  37.560  1.00  0.00     0.006 C 
ENDBRANCH  16  17
ENDBRANCH  14  16
ENDBRANCH   4  12
TORSDOF 3
ENDMDL
MODEL 8
REMARK VINA RESULT:      -7.0     13.213     15.335
REMARK  3 active torsions:
REMARK  status: ('A' for Active; 'I' for Inactive)
REMARK    1  A    between atoms: C1_5  and  N1_4 
REMARK       I    between atoms: C7_11  and  N1_4 
REMARK    2  A    between atoms: C1_5  and  C2_6 
REMARK    3  A    between atoms: C4_8  and  C7_11 
ROOT
HETATM    1  O1  UNK     1      19.281   1.044  15.353  1.00  0.00    -0.274 OA
HETATM    2  O3  UNK     1      19.261  -0.553  13.719  1.00  0.00    -0.259 OA
HETATM    3  C3  UNK     1      18.936   0.393  17.671  1.00  0.00    -0.001 A 
HETATM    4  C4  UNK     1      18.916  -1.302  15.940  1.00  0.00     0.108 A 
HETATM    5  C5  UNK     1      18.808  -0.990  17.237  1.00  0.00     0.037 A 
HETATM    6  C6  UNK     1      19.169   1.379  16.718  1.00  0.00     0.089 A 
HETATM    7  C8  UNK     1      19.164  -0.270  14.908  1.00  0.00     0.304 A 
HETATM    8  C9  UNK     1      18.831   0.765  19.013  1.00  0.00     0.014 A 
HETATM    9  C11 UNK     1      19.300   2.721  17.067  1.00  0.00     0.038 A 
HETATM   10  C12 UNK     1      18.961   2.108  19.380  1.00  0.00     0.001 A 
HETATM   11  C13 UNK     1      19.194   3.083  18.408  1.00  0.00     0.003 A 
ENDROOT
BRANCH   4  12
HETATM   12  C7  UNK     1      18.772  -2.723  15.602  1.00  0.00     0.257 C 
HETATM   13  O2  UNK     1      17.708  -3.311  15.781  1.00  0.00    -0.267 OA
HETATM   14  N1  UNK     1      19.933  -3.273  15.088  1.00  0.00    -0.357 N 
HETATM   15  H6  UNK     1      20.772  -2.708  15.000  1.00  0.00     0.162 HD
BRANCH  14  16
HETATM   16  C1  UNK     1      20.037  -4.656  14.684  1.00  0.00     0.122 C 
BRANCH  16  17
HETATM   17  C2  UNK     1      21.101  -5.413  15.471  1.00  0.00     0.015 C 
HETATM   18  C10 UNK     1      22.061  -4.486  16.203  1.00  0.00     0.006 C 
ENDBRANCH  16  17
ENDBRANCH  14  16
ENDBRANCH   4  12
TORSDOF 3
ENDMDL
MODEL 9
REMARK VINA RESULT:      -6.9      1.549      2.175
REMARK  3 active torsions:
REMARK  status: ('A' for Active; 'I' for Inactive)
REMARK    1  A    between atoms: C1_5  and  N1_4 
REMARK       I    between atoms: C7_11  and  N1_4 
REMARK    2  A    between atoms: C1_5  and  C2_6 
REMARK    3  A    between atoms: C4_8  and  C7_11 
ROOT
HETATM    1  O1  UNK     1      17.937   3.529  33.422  1.00  0.00    -0.274 OA
HETATM    2  O3  UNK     1      17.859   1.511  34.489  1.00  0.00    -0.259 OA
HETATM    3  C3  UNK     1      18.697   3.638  31.115  1.00  0.00    -0.001 A 
HETATM    4  C4  UNK     1      18.614   1.496  32.244  1.00  0.00     0.108 A 
HETATM    5  C5  UNK     1      18.890   2.196  31.137  1.00  0.00     0.037 A 
HETATM    6  C6  UNK     1      18.226   4.272  32.259  1.00  0.00     0.089 A 
HETATM    7  C8  UNK     1      18.111   2.149  33.473  1.00  0.00     0.304 A 
HETATM    8  C9  UNK     1      18.971   4.408  29.982  1.00  0.00     0.014 A 
HETATM    9  C11 UNK     1      18.020   5.649  32.304  1.00  0.00     0.038 A 
HETATM   10  C12 UNK     1      18.770   5.792  30.011  1.00  0.00     0.001 A 
HETATM   11  C13 UNK     1      18.296   6.410  31.170  1.00  0.00     0.003 A 
ENDROOT
BRANCH   4  12
HETATM   12  C7  UNK     1      18.841   0.048  32.168  1.00  0.00     0.257 C 
HETATM   13  O2  UNK     1      18.072  -0.742  32.713  1.00  0.00    -0.267 OA
HETATM   14  N1  UNK     1      19.972  -0.281  31.443  1.00  0.00    -0.357 N 
HETATM   15  H6  UNK     1      20.559   0.448  31.050  1.00  0.00     0.162 HD
BRANCH  14  16
HETATM   16  C1  UNK     1      20.403  -1.645  31.232  1.00  0.00     0.122 C 
BRANCH  16  17
HETATM   17  C2  UNK     1      20.596  -1.970  29.755  1.00  0.00     0.015 C 
HETATM   18  C10 UNK     1      20.370  -0.766  28.853  1.00  0.00     0.006 C 
ENDBRANCH  16  17
ENDBRANCH  14  16
ENDBRANCH   4  12
TORSDOF 3
ENDMDL
MODEL 10
REMARK VINA RESULT:      -6.9      3.655      5.196
REMARK  3 active torsions:
REMARK  status: ('A' for Active; 'I' for Inactive)
REMARK    1  A    between atoms: C1_5  and  N1_4 
REMARK       I    between atoms: C7_11  and  N1_4 
REMARK    2  A    between atoms: C1_5  and  C2_6 
REMARK    3  A    between atoms: C4_8  and  C7_11 
ROOT
HETATM    1  O1  UNK     1      17.768   1.908  34.667  1.00  0.00    -0.274 OA
HETATM    2  O3  UNK     1      18.092   2.128  32.415  1.00  0.00    -0.259 OA
HETATM    3  C3  UNK     1      18.308  -0.197  35.757  1.00  0.00    -0.001 A 
HETATM    4  C4  UNK     1      18.654   0.034  33.370  1.00  0.00     0.108 A 
HETATM    5  C5  UNK     1      18.724  -0.729  34.468  1.00  0.00     0.037 A 
HETATM    6  C6  UNK     1      17.839   1.110  35.826  1.00  0.00     0.089 A 
HETATM    7  C8  UNK     1      18.159   1.427  33.420  1.00  0.00     0.304 A 
HETATM    8  C9  UNK     1      18.364  -0.956  36.928  1.00  0.00     0.014 A 
HETATM    9  C11 UNK     1      17.425   1.679  37.029  1.00  0.00     0.038 A 
HETATM   10  C12 UNK     1      17.952  -0.400  38.143  1.00  0.00     0.001 A 
HETATM   11  C13 UNK     1      17.484   0.915  38.193  1.00  0.00     0.003 A 
ENDROOT
BRANCH   4  12
HETATM   12  C7  UNK     1      19.096  -0.592  32.118  1.00  0.00     0.257 C 
HETATM   13  O2  UNK     1      18.786  -1.751  31.847  1.00  0.00    -0.267 OA
HETATM   14  N1  UNK     1      19.863   0.252  31.337  1.00  0.00    -0.357 N 
HETATM   15  H6  UNK     1      20.085   1.189  31.661  1.00  0.00     0.162 HD
BRANCH  14  16
HETATM   16  C1  UNK     1      20.414  -0.140  30.060  1.00  0.00     0.122 C 
BRANCH  16  17
HETATM   17  C2  UNK     1      19.503   0.229  28.895  1.00  0.00     0.015 C 
HETATM   18  C10 UNK     1      18.726   1.515  29.141  1.00  0.00     0.006 C 
ENDBRANCH  16  17
ENDBRANCH  14  16
ENDBRANCH   4  12
TORSDOF 3
ENDMDL
