MODEL 1
REMARK VINA RESULT:     -10.9      0.000      0.000
REMARK  3 active torsions:
REMARK  status: ('A' for Active; 'I' for Inactive)
REMARK       I    between atoms: C11_20  and  N1_7 
REMARK    1  A    between atoms: C9_18  and  N1_7 
REMARK    2  A    between atoms: C19_28  and  N3_9 
REMARK    3  A    between atoms: C11_20  and  C12_21 
ROOT
HETATM    1  S1  UNK     1      19.722  -5.866  37.582  1.00  0.00    -0.075 SA
HETATM    2  N2  UNK     1      20.889  -7.488  32.916  1.00  0.00    -0.191 NA
HETATM    3  C1  UNK     1      19.782 -10.653  38.251  1.00  0.00     0.001 C 
HETATM    4  C2  UNK     1      19.847 -10.496  36.729  1.00  0.00     0.005 C 
HETATM    5  C3  UNK     1      19.207  -9.451  39.007  1.00  0.00     0.005 C 
HETATM    6  C4  UNK     1      20.890  -9.485  36.247  1.00  0.00     0.041 C 
HETATM    7  C5  UNK     1      20.117  -8.222  39.018  1.00  0.00     0.047 C 
HETATM    8  C6  UNK     1      20.478  -8.062  36.464  1.00  0.00    -0.021 A 
HETATM    9  C7  UNK     1      20.142  -7.523  37.694  1.00  0.00    -0.007 A 
HETATM   10  C8  UNK     1      20.384  -7.079  35.426  1.00  0.00     0.085 A 
HETATM   11  C9  UNK     1      19.984  -5.849  35.895  1.00  0.00     0.098 A 
HETATM   12  C10 UNK     1      20.664  -7.305  34.039  1.00  0.00     0.103 C 
ENDROOT
BRANCH  11  13
HETATM   13  N1  UNK     1      19.770  -4.657  35.257  1.00  0.00    -0.316 N 
HETATM   14  C11 UNK     1      20.377  -3.429  35.551  1.00  0.00     0.262 C 
HETATM   15  O2  UNK     1      21.203  -3.176  36.420  1.00  0.00    -0.267 OA
HETATM   16  H11 UNK     1      19.083  -4.694  34.508  1.00  0.00     0.170 HD
BRANCH  14  17
HETATM   17  C12 UNK     1      19.914  -2.343  34.661  1.00  0.00     0.108 A 
HETATM   18  C14 UNK     1      20.304  -2.420  33.383  1.00  0.00     0.037 A 
HETATM   19  C13 UNK     1      19.898  -1.398  32.430  1.00  0.00     0.001 A 
HETATM   20  C15 UNK     1      19.101  -0.346  32.870  1.00  0.00     0.089 A 
HETATM   21  C17 UNK     1      20.281  -1.437  31.088  1.00  0.00     0.050 A 
HETATM   22  C18 UNK     1      18.677   0.663  32.008  1.00  0.00     0.041 A 
HETATM   23  O1  UNK     1      18.693  -0.271  34.217  1.00  0.00    -0.274 OA
HETATM   24  C20 UNK     1      19.065   0.617  30.672  1.00  0.00     0.039 A 
HETATM   25  C19 UNK     1      19.865  -0.431  30.211  1.00  0.00     0.103 A 
HETATM   26  C16 UNK     1      19.065  -1.234  35.151  1.00  0.00     0.304 A 
HETATM   27  O3  UNK     1      18.705  -1.161  36.321  1.00  0.00    -0.259 OA
BRANCH  25  28
HETATM   28  N3  UNK     1      20.256  -0.474  28.846  1.00  0.00    -0.116 N 
HETATM   29  O4  UNK     1      19.369  -0.475  27.959  1.00  0.00    -0.532 OA
HETATM   30  O5  UNK     1      21.479  -0.511  28.565  1.00  0.00    -0.532 OA
ENDBRANCH  25  28
ENDBRANCH  14  17
ENDBRANCH  11  13
TORSDOF 3
ENDMDL
MODEL 2
REMARK VINA RESULT:     -10.0     16.863     20.065
REMARK  3 active torsions:
REMARK  status: ('A' for Active; 'I' for Inactive)
REMARK       I    between atoms: C11_20  and  N1_7 
REMARK    1  A    between atoms: C9_18  and  N1_7 
REMARK    2  A    between atoms: C19_28  and  N3_9 
REMARK    3  A    between atoms: C11_20  and  C12_21 
ROOT
HETATM    1  S1  UNK     1      19.006  -4.882  12.230  1.00  0.00    -0.075 SA
HETATM    2  N2  UNK     1      22.260  -5.584  16.061  1.00  0.00    -0.191 NA
HETATM    3  C1  UNK     1      21.219  -8.946  10.834  1.00  0.00     0.001 C 
HETATM    4  C2  UNK     1      22.065  -8.455  12.012  1.00  0.00     0.005 C 
HETATM    5  C3  UNK     1      20.373  -7.871  10.146  1.00  0.00     0.005 C 
HETATM    6  C4  UNK     1      21.253  -8.068  13.250  1.00  0.00     0.041 C 
HETATM    7  C5  UNK     1      19.195  -7.367  10.981  1.00  0.00     0.047 C 
HETATM    8  C6  UNK     1      20.540  -6.759  13.104  1.00  0.00    -0.021 A 
HETATM    9  C7  UNK     1      19.635  -6.469  12.097  1.00  0.00    -0.007 A 
HETATM   10  C8  UNK     1      20.702  -5.645  13.989  1.00  0.00     0.085 A 
HETATM   11  C9  UNK     1      19.930  -4.565  13.629  1.00  0.00     0.098 A 
HETATM   12  C10 UNK     1      21.563  -5.611  15.134  1.00  0.00     0.103 C 
ENDROOT
BRANCH  11  13
HETATM   13  N1  UNK     1      19.785  -3.323  14.188  1.00  0.00    -0.316 N 
HETATM   14  C11 UNK     1      18.788  -2.920  15.086  1.00  0.00     0.262 C 
HETATM   15  O2  UNK     1      17.864  -3.581  15.544  1.00  0.00    -0.267 OA
HETATM   16  H11 UNK     1      20.477  -2.639  13.888  1.00  0.00     0.170 HD
BRANCH  14  17
HETATM   17  C12 UNK     1      18.931  -1.505  15.489  1.00  0.00     0.108 A 
HETATM   18  C14 UNK     1      18.825  -1.251  16.799  1.00  0.00     0.037 A 
HETATM   19  C13 UNK     1      18.952   0.111  17.294  1.00  0.00     0.001 A 
HETATM   20  C15 UNK     1      19.184   1.139  16.385  1.00  0.00     0.089 A 
HETATM   21  C17 UNK     1      18.849   0.423  18.651  1.00  0.00     0.050 A 
HETATM   22  C18 UNK     1      19.315   2.464  16.794  1.00  0.00     0.041 A 
HETATM   23  O1  UNK     1      19.294   0.865  15.007  1.00  0.00    -0.274 OA
HETATM   24  C20 UNK     1      19.210   2.767  18.149  1.00  0.00     0.039 A 
HETATM   25  C19 UNK     1      18.978   1.749  19.077  1.00  0.00     0.103 A 
HETATM   26  C16 UNK     1      19.177  -0.428  14.505  1.00  0.00     0.304 A 
HETATM   27  O3  UNK     1      19.276  -0.658  13.304  1.00  0.00    -0.259 OA
BRANCH  25  28
HETATM   28  N3  UNK     1      18.873   2.062  20.458  1.00  0.00    -0.116 N 
HETATM   29  O4  UNK     1      17.749   1.997  21.012  1.00  0.00    -0.532 OA
HETATM   30  O5  UNK     1      19.907   2.394  21.087  1.00  0.00    -0.532 OA
ENDBRANCH  25  28
ENDBRANCH  14  17
ENDBRANCH  11  13
TORSDOF 3
ENDMDL
MODEL 3
REMARK VINA RESULT:      -9.9      2.734      4.212
REMARK  3 active torsions:
REMARK  status: ('A' for Active; 'I' for Inactive)
REMARK       I    between atoms: C11_20  and  N1_7 
REMARK    1  A    between atoms: C9_18  and  N1_7 
REMARK    2  A    between atoms: C19_28  and  N3_9 
REMARK    3  A    between atoms: C11_20  and  C12_21 
ROOT
HETATM    1  S1  UNK     1      19.689  -6.691  38.176  1.00  0.00    -0.075 SA
HETATM    2  N2  UNK     1      20.770  -7.382  33.265  1.00  0.00    -0.191 NA
HETATM    3  C1  UNK     1      19.993 -11.511  37.962  1.00  0.00     0.001 C 
HETATM    4  C2  UNK     1      19.999 -11.078  36.493  1.00  0.00     0.005 C 
HETATM    5  C3  UNK     1      19.390 -10.496  38.938  1.00  0.00     0.005 C 
HETATM    6  C4  UNK     1      20.977  -9.945  36.177  1.00  0.00     0.041 C 
HETATM    7  C5  UNK     1      20.242  -9.244  39.150  1.00  0.00     0.047 C 
HETATM    8  C6  UNK     1      20.508  -8.607  36.659  1.00  0.00    -0.021 A 
HETATM    9  C7  UNK     1      20.189  -8.317  37.974  1.00  0.00    -0.007 A 
HETATM   10  C8  UNK     1      20.332  -7.459  35.820  1.00  0.00     0.085 A 
HETATM   11  C9  UNK     1      19.892  -6.357  36.515  1.00  0.00     0.098 A 
HETATM   12  C10 UNK     1      20.575  -7.416  34.409  1.00  0.00     0.103 C 
ENDROOT
BRANCH  11  13
HETATM   13  N1  UNK     1      19.602  -5.081  36.110  1.00  0.00    -0.316 N 
HETATM   14  C11 UNK     1      20.391  -3.940  36.306  1.00  0.00     0.262 C 
HETATM   15  O2  UNK     1      21.476  -3.852  36.866  1.00  0.00    -0.267 OA
HETATM   16  H11 UNK     1      18.707  -4.980  35.635  1.00  0.00     0.170 HD
BRANCH  14  17
HETATM   17  C12 UNK     1      19.773  -2.723  35.738  1.00  0.00     0.108 A 
HETATM   18  C14 UNK     1      18.807  -2.155  36.469  1.00  0.00     0.037 A 
HETATM   19  C13 UNK     1      18.139  -0.953  35.995  1.00  0.00     0.001 A 
HETATM   20  C15 UNK     1      18.522  -0.408  34.773  1.00  0.00     0.089 A 
HETATM   21  C17 UNK     1      17.126  -0.326  36.724  1.00  0.00     0.050 A 
HETATM   22  C18 UNK     1      17.923   0.742  34.263  1.00  0.00     0.041 A 
HETATM   23  O1  UNK     1      19.540  -1.011  34.008  1.00  0.00    -0.274 OA
HETATM   24  C20 UNK     1      16.913   1.360  34.996  1.00  0.00     0.039 A 
HETATM   25  C19 UNK     1      16.515   0.828  36.224  1.00  0.00     0.103 A 
HETATM   26  C16 UNK     1      20.197  -2.161  34.437  1.00  0.00     0.304 A 
HETATM   27  O3  UNK     1      21.082  -2.678  33.765  1.00  0.00    -0.259 OA
BRANCH  25  28
HETATM   28  N3  UNK     1      15.486   1.463  36.969  1.00  0.00    -0.116 N 
HETATM   29  O4  UNK     1      15.801   2.290  37.858  1.00  0.00    -0.532 OA
HETATM   30  O5  UNK     1      14.289   1.179  36.717  1.00  0.00    -0.532 OA
ENDBRANCH  25  28
ENDBRANCH  14  17
ENDBRANCH  11  13
TORSDOF 3
ENDMDL
MODEL 4
REMARK VINA RESULT:      -9.8      6.365     11.806
REMARK  3 active torsions:
REMARK  status: ('A' for Active; 'I' for Inactive)
REMARK       I    between atoms: C11_20  and  N1_7 
REMARK    1  A    between atoms: C9_18  and  N1_7 
REMARK    2  A    between atoms: C19_28  and  N3_9 
REMARK    3  A    between atoms: C11_20  and  C12_21 
ROOT
HETATM    1  S1  UNK     1      16.310   6.354  31.513  1.00  0.00    -0.075 SA
HETATM    2  N2  UNK     1      21.166   6.550  32.980  1.00  0.00    -0.191 NA
HETATM    3  C1  UNK     1      16.209  10.109  34.555  1.00  0.00     0.001 C 
HETATM    4  C2  UNK     1      17.590   9.489  34.785  1.00  0.00     0.005 C 
HETATM    5  C3  UNK     1      15.165   9.168  33.945  1.00  0.00     0.005 C 
HETATM    6  C4  UNK     1      18.367   9.194  33.500  1.00  0.00     0.041 C 
HETATM    7  C5  UNK     1      15.420   8.812  32.480  1.00  0.00     0.047 C 
HETATM    8  C6  UNK     1      17.856   7.994  32.763  1.00  0.00    -0.021 A 
HETATM    9  C7  UNK     1      16.553   7.844  32.320  1.00  0.00    -0.007 A 
HETATM   10  C8  UNK     1      18.651   6.854  32.421  1.00  0.00     0.085 A 
HETATM   11  C9  UNK     1      17.937   5.893  31.744  1.00  0.00     0.098 A 
HETATM   12  C10 UNK     1      20.041   6.686  32.729  1.00  0.00     0.103 C 
ENDROOT
BRANCH  11  13
HETATM   13  N1  UNK     1      18.303   4.672  31.241  1.00  0.00    -0.316 N 
HETATM   14  C11 UNK     1      18.130   3.426  31.859  1.00  0.00     0.262 C 
HETATM   15  O2  UNK     1      17.629   3.180  32.950  1.00  0.00    -0.267 OA
HETATM   16  H11 UNK     1      18.759   4.706  30.333  1.00  0.00     0.170 HD
BRANCH  14  17
HETATM   17  C12 UNK     1      18.641   2.312  31.034  1.00  0.00     0.108 A 
HETATM   18  C14 UNK     1      19.093   1.242  31.700  1.00  0.00     0.037 A 
HETATM   19  C13 UNK     1      19.616   0.094  30.975  1.00  0.00     0.001 A 
HETATM   20  C15 UNK     1      19.637   0.128  29.585  1.00  0.00     0.089 A 
HETATM   21  C17 UNK     1      20.098  -1.042  31.629  1.00  0.00     0.050 A 
HETATM   22  C18 UNK     1      20.123  -0.938  28.832  1.00  0.00     0.041 A 
HETATM   23  O1  UNK     1      19.159   1.257  28.890  1.00  0.00    -0.274 OA
HETATM   24  C20 UNK     1      20.603  -2.067  29.491  1.00  0.00     0.039 A 
HETATM   25  C19 UNK     1      20.590  -2.120  30.887  1.00  0.00     0.103 A 
HETATM   26  C16 UNK     1      18.653   2.370  29.556  1.00  0.00     0.304 A 
HETATM   27  O3  UNK     1      18.239   3.347  28.942  1.00  0.00    -0.259 OA
BRANCH  25  28
HETATM   28  N3  UNK     1      21.079  -3.275  31.554  1.00  0.00    -0.116 N 
HETATM   29  O4  UNK     1      21.459  -4.256  30.871  1.00  0.00    -0.532 OA
HETATM   30  O5  UNK     1      21.117  -3.281  32.808  1.00  0.00    -0.532 OA
ENDBRANCH  25  28
ENDBRANCH  14  17
ENDBRANCH  11  13
TORSDOF 3
ENDMDL
MODEL 5
REMARK VINA RESULT:      -9.7      8.060     10.752
REMARK  3 active torsions:
REMARK  status: ('A' for Active; 'I' for Inactive)
REMARK       I    between atoms: C11_20  and  N1_7 
REMARK    1  A    between atoms: C9_18  and  N1_7 
REMARK    2  A    between atoms: C19_28  and  N3_9 
REMARK    3  A    between atoms: C11_20  and  C12_21 
ROOT
HETATM    1  S1  UNK     1      29.215  -8.612  37.300  1.00  0.00    -0.075 SA
HETATM    2  N2  UNK     1      29.399  -4.081  39.580  1.00  0.00    -0.191 NA
HETATM    3  C1  UNK     1      33.853  -7.426  36.634  1.00  0.00     0.001 C 
HETATM    4  C2  UNK     1      33.216  -6.133  37.153  1.00  0.00     0.005 C 
HETATM    5  C3  UNK     1      32.879  -8.425  36.001  1.00  0.00     0.005 C 
HETATM    6  C4  UNK     1      32.344  -6.320  38.396  1.00  0.00     0.041 C 
HETATM    7  C5  UNK     1      31.942  -9.106  37.000  1.00  0.00     0.047 C 
HETATM    8  C6  UNK     1      31.021  -6.956  38.100  1.00  0.00    -0.021 A 
HETATM    9  C7  UNK     1      30.864  -8.186  37.484  1.00  0.00    -0.007 A 
HETATM   10  C8  UNK     1      29.752  -6.373  38.419  1.00  0.00     0.085 A 
HETATM   11  C9  UNK     1      28.694  -7.165  38.039  1.00  0.00     0.098 A 
HETATM   12  C10 UNK     1      29.557  -5.107  39.061  1.00  0.00     0.103 C 
ENDROOT
BRANCH  11  13
HETATM   13  N1  UNK     1      27.340  -6.992  38.153  1.00  0.00    -0.316 N 
HETATM   14  C11 UNK     1      26.455  -7.777  38.903  1.00  0.00     0.262 C 
HETATM   15  O2  UNK     1      26.706  -8.756  39.595  1.00  0.00    -0.267 OA
HETATM   16  H11 UNK     1      26.964  -6.216  37.612  1.00  0.00     0.170 HD
BRANCH  14  17
HETATM   17  C12 UNK     1      25.058  -7.307  38.801  1.00  0.00     0.108 A 
HETATM   18  C14 UNK     1      24.129  -8.252  38.612  1.00  0.00     0.037 A 
HETATM   19  C13 UNK     1      22.725  -7.887  38.499  1.00  0.00     0.001 A 
HETATM   20  C15 UNK     1      22.368  -6.546  38.591  1.00  0.00     0.089 A 
HETATM   21  C17 UNK     1      21.722  -8.839  38.302  1.00  0.00     0.050 A 
HETATM   22  C18 UNK     1      21.042  -6.131  38.491  1.00  0.00     0.041 A 
HETATM   23  O1  UNK     1      23.351  -5.556  38.790  1.00  0.00    -0.274 OA
HETATM   24  C20 UNK     1      20.048  -7.086  38.294  1.00  0.00     0.039 A 
HETATM   25  C19 UNK     1      20.386  -8.438  38.199  1.00  0.00     0.103 A 
HETATM   26  C16 UNK     1      24.701  -5.874  38.902  1.00  0.00     0.304 A 
HETATM   27  O3  UNK     1      25.549  -5.006  39.076  1.00  0.00    -0.259 OA
BRANCH  25  28
HETATM   28  N3  UNK     1      19.369  -9.409  37.999  1.00  0.00    -0.116 N 
HETATM   29  O4  UNK     1      18.682  -9.362  36.950  1.00  0.00    -0.532 OA
HETATM   30  O5  UNK     1      19.186 -10.288  38.876  1.00  0.00    -0.532 OA
ENDBRANCH  25  28
ENDBRANCH  14  17
ENDBRANCH  11  13
TORSDOF 3
ENDMDL
MODEL 6
REMARK VINA RESULT:      -9.6      2.709      3.349
REMARK  3 active torsions:
REMARK  status: ('A' for Active; 'I' for Inactive)
REMARK       I    between atoms: C11_20  and  N1_7 
REMARK    1  A    between atoms: C9_18  and  N1_7 
REMARK    2  A    between atoms: C19_28  and  N3_9 
REMARK    3  A    between atoms: C11_20  and  C12_21 
ROOT
HETATM    1  S1  UNK     1      18.272  -6.820  37.106  1.00  0.00    -0.075 SA
HETATM    2  N2  UNK     1      22.864  -5.054  38.353  1.00  0.00    -0.191 NA
HETATM    3  C1  UNK     1      20.827 -10.919  37.277  1.00  0.00     0.001 C 
HETATM    4  C2  UNK     1      21.892  -9.821  37.351  1.00  0.00     0.005 C 
HETATM    5  C3  UNK     1      19.490 -10.490  36.666  1.00  0.00     0.005 C 
HETATM    6  C4  UNK     1      21.590  -8.724  38.374  1.00  0.00     0.041 C 
HETATM    7  C5  UNK     1      18.672  -9.543  37.546  1.00  0.00     0.047 C 
HETATM    8  C6  UNK     1      20.520  -7.776  37.926  1.00  0.00    -0.021 A 
HETATM    9  C7  UNK     1      19.239  -8.157  37.565  1.00  0.00    -0.007 A 
HETATM   10  C8  UNK     1      20.687  -6.358  37.816  1.00  0.00     0.085 A 
HETATM   11  C9  UNK     1      19.548  -5.722  37.382  1.00  0.00     0.098 A 
HETATM   12  C10 UNK     1      21.890  -5.637  38.113  1.00  0.00     0.103 C 
ENDROOT
BRANCH  11  13
HETATM   13  N1  UNK     1      19.277  -4.400  37.145  1.00  0.00    -0.316 N 
HETATM   14  C11 UNK     1      19.727  -3.635  36.061  1.00  0.00     0.262 C 
HETATM   15  O2  UNK     1      20.436  -3.983  35.125  1.00  0.00    -0.267 OA
HETATM   16  H11 UNK     1      18.704  -3.950  37.855  1.00  0.00     0.170 HD
BRANCH  14  17
HETATM   17  C12 UNK     1      19.245  -2.239  36.118  1.00  0.00     0.108 A 
HETATM   18  C14 UNK     1      19.164  -1.593  34.948  1.00  0.00     0.037 A 
HETATM   19  C13 UNK     1      18.700  -0.215  34.902  1.00  0.00     0.001 A 
HETATM   20  C15 UNK     1      18.344   0.416  36.090  1.00  0.00     0.089 A 
HETATM   21  C17 UNK     1      18.599   0.497  33.705  1.00  0.00     0.050 A 
HETATM   22  C18 UNK     1      17.892   1.733  36.114  1.00  0.00     0.041 A 
HETATM   23  O1  UNK     1      18.432  -0.269  37.318  1.00  0.00    -0.274 OA
HETATM   24  C20 UNK     1      17.795   2.436  34.916  1.00  0.00     0.039 A 
HETATM   25  C19 UNK     1      18.147   1.820  33.713  1.00  0.00     0.103 A 
HETATM   26  C16 UNK     1      18.872  -1.588  37.394  1.00  0.00     0.304 A 
HETATM   27  O3  UNK     1      18.944  -2.176  38.467  1.00  0.00    -0.259 OA
BRANCH  25  28
HETATM   28  N3  UNK     1      18.045   2.541  32.494  1.00  0.00    -0.116 N 
HETATM   29  O4  UNK     1      17.785   3.768  32.533  1.00  0.00    -0.532 OA
HETATM   30  O5  UNK     1      18.219   1.931  31.410  1.00  0.00    -0.532 OA
ENDBRANCH  25  28
ENDBRANCH  14  17
ENDBRANCH  11  13
TORSDOF 3
ENDMDL
MODEL 7
REMARK VINA RESULT:      -9.5      3.909      9.013
REMARK  3 active torsions:
REMARK  status: ('A' for Active; 'I' for Inactive)
REMARK       I    between atoms: C11_20  and  N1_7 
REMARK    1  A    between atoms: C9_18  and  N1_7 
REMARK    2  A    between atoms: C19_28  and  N3_9 
REMARK    3  A    between atoms: C11_20  and  C12_21 
ROOT
HETATM    1  S1  UNK     1      17.503  -2.296  37.385  1.00  0.00    -0.075 SA
HETATM    2  N2  UNK     1      20.926  -2.471  33.641  1.00  0.00    -0.191 NA
HETATM    3  C1  UNK     1      18.262   2.412  36.601  1.00  0.00     0.001 C 
HETATM    4  C2  UNK     1      19.368   1.725  35.795  1.00  0.00     0.005 C 
HETATM    5  C3  UNK     1      17.667   1.576  37.738  1.00  0.00     0.005 C 
HETATM    6  C4  UNK     1      18.878   0.574  34.913  1.00  0.00     0.041 C 
HETATM    7  C5  UNK     1      16.808   0.400  37.270  1.00  0.00     0.047 C 
HETATM    8  C6  UNK     1      18.550  -0.666  35.687  1.00  0.00    -0.021 A 
HETATM    9  C7  UNK     1      17.634  -0.723  36.722  1.00  0.00    -0.007 A 
HETATM   10  C8  UNK     1      19.142  -1.948  35.450  1.00  0.00     0.085 A 
HETATM   11  C9  UNK     1      18.665  -2.918  36.301  1.00  0.00     0.098 A 
HETATM   12  C10 UNK     1      20.128  -2.238  34.450  1.00  0.00     0.103 C 
ENDROOT
BRANCH  11  13
HETATM   13  N1  UNK     1      18.956  -4.251  36.416  1.00  0.00    -0.316 N 
HETATM   14  C11 UNK     1      20.013  -4.818  37.140  1.00  0.00     0.262 C 
HETATM   15  O2  UNK     1      20.873  -4.251  37.802  1.00  0.00    -0.267 OA
HETATM   16  H11 UNK     1      18.333  -4.868  35.898  1.00  0.00     0.170 HD
BRANCH  14  17
HETATM   17  C12 UNK     1      20.032  -6.293  37.048  1.00  0.00     0.108 A 
HETATM   18  C14 UNK     1      21.218  -6.853  36.777  1.00  0.00     0.037 A 
HETATM   19  C13 UNK     1      21.338  -8.299  36.667  1.00  0.00     0.001 A 
HETATM   20  C15 UNK     1      20.204  -9.084  36.848  1.00  0.00     0.089 A 
HETATM   21  C17 UNK     1      22.554  -8.926  36.387  1.00  0.00     0.050 A 
HETATM   22  C18 UNK     1      20.251 -10.473  36.757  1.00  0.00     0.041 A 
HETATM   23  O1  UNK     1      18.959  -8.489  37.133  1.00  0.00    -0.274 OA
HETATM   24  C20 UNK     1      21.467 -11.091  36.476  1.00  0.00     0.039 A 
HETATM   25  C19 UNK     1      22.617 -10.319  36.291  1.00  0.00     0.103 A 
HETATM   26  C16 UNK     1      18.813  -7.109  37.244  1.00  0.00     0.304 A 
HETATM   27  O3  UNK     1      17.726  -6.600  37.493  1.00  0.00    -0.259 OA
BRANCH  25  28
HETATM   28  N3  UNK     1      23.855 -10.954  36.006  1.00  0.00    -0.116 N 
HETATM   29  O4  UNK     1      24.918 -10.423  36.411  1.00  0.00    -0.532 OA
HETATM   30  O5  UNK     1      23.853 -12.028  35.357  1.00  0.00    -0.532 OA
ENDBRANCH  25  28
ENDBRANCH  14  17
ENDBRANCH  11  13
TORSDOF 3
ENDMDL
MODEL 8
REMARK VINA RESULT:      -9.5      7.606     13.125
REMARK  3 active torsions:
REMARK  status: ('A' for Active; 'I' for Inactive)
REMARK       I    between atoms: C11_20  and  N1_7 
REMARK    1  A    between atoms: C9_18  and  N1_7 
REMARK    2  A    between atoms: C19_28  and  N3_9 
REMARK    3  A    between atoms: C11_20  and  C12_21 
ROOT
HETATM    1  S1  UNK     1      14.997   8.029  32.679  1.00  0.00    -0.075 SA
HETATM    2  N2  UNK     1      19.715   8.798  34.387  1.00  0.00    -0.191 NA
HETATM    3  C1  UNK     1      14.525  12.348  34.796  1.00  0.00     0.001 C 
HETATM    4  C2  UNK     1      15.906  11.868  35.250  1.00  0.00     0.005 C 
HETATM    5  C3  UNK     1      13.566  11.243  34.342  1.00  0.00     0.005 C 
HETATM    6  C4  UNK     1      16.790  11.340  34.118  1.00  0.00     0.041 C 
HETATM    7  C5  UNK     1      13.945  10.588  33.013  1.00  0.00     0.047 C 
HETATM    8  C6  UNK     1      16.381   9.982  33.633  1.00  0.00    -0.021 A 
HETATM    9  C7  UNK     1      15.122   9.671  33.149  1.00  0.00    -0.007 A 
HETATM   10  C8  UNK     1      17.242   8.838  33.607  1.00  0.00     0.085 A 
HETATM   11  C9  UNK     1      16.617   7.716  33.115  1.00  0.00     0.098 A 
HETATM   12  C10 UNK     1      18.609   8.816  34.037  1.00  0.00     0.103 C 
ENDROOT
BRANCH  11  13
HETATM   13  N1  UNK     1      17.065   6.436  32.922  1.00  0.00    -0.316 N 
HETATM   14  C11 UNK     1      17.883   5.983  31.879  1.00  0.00     0.262 C 
HETATM   15  O2  UNK     1      18.354   6.624  30.947  1.00  0.00    -0.267 OA
HETATM   16  H11 UNK     1      16.740   5.764  33.613  1.00  0.00     0.170 HD
BRANCH  14  17
HETATM   17  C12 UNK     1      18.174   4.537  31.977  1.00  0.00     0.108 A 
HETATM   18  C14 UNK     1      18.488   3.918  30.832  1.00  0.00     0.037 A 
HETATM   19  C13 UNK     1      18.791   2.496  30.827  1.00  0.00     0.001 A 
HETATM   20  C15 UNK     1      18.749   1.794  32.027  1.00  0.00     0.089 A 
HETATM   21  C17 UNK     1      19.123   1.809  29.657  1.00  0.00     0.050 A 
HETATM   22  C18 UNK     1      19.029   0.431  32.091  1.00  0.00     0.041 A 
HETATM   23  O1  UNK     1      18.418   2.451  33.229  1.00  0.00    -0.274 OA
HETATM   24  C20 UNK     1      19.359  -0.246  30.920  1.00  0.00     0.039 A 
HETATM   25  C19 UNK     1      19.406   0.441  29.705  1.00  0.00     0.103 A 
HETATM   26  C16 UNK     1      18.124   3.811  33.265  1.00  0.00     0.304 A 
HETATM   27  O3  UNK     1      17.838   4.375  34.316  1.00  0.00    -0.259 OA
BRANCH  25  28
HETATM   28  N3  UNK     1      19.744  -0.254  28.513  1.00  0.00    -0.116 N 
HETATM   29  O4  UNK     1      20.847  -0.849  28.448  1.00  0.00    -0.532 OA
HETATM   30  O5  UNK     1      18.930  -0.255  27.558  1.00  0.00    -0.532 OA
ENDBRANCH  25  28
ENDBRANCH  14  17
ENDBRANCH  11  13
TORSDOF 3
ENDMDL
MODEL 9
REMARK VINA RESULT:      -9.4      7.484     11.012
REMARK  3 active torsions:
REMARK  status: ('A' for Active; 'I' for Inactive)
REMARK       I    between atoms: C11_20  and  N1_7 
REMARK    1  A    between atoms: C9_18  and  N1_7 
REMARK    2  A    between atoms: C19_28  and  N3_9 
REMARK    3  A    between atoms: C11_20  and  C12_21 
ROOT
HETATM    1  S1  UNK     1      18.580   2.917  30.093  1.00  0.00    -0.075 SA
HETATM    2  N2  UNK     1      18.207   1.424  34.930  1.00  0.00    -0.191 NA
HETATM    3  C1  UNK     1      20.537  -1.496  29.856  1.00  0.00     0.001 C 
HETATM    4  C2  UNK     1      20.414  -1.231  31.359  1.00  0.00     0.005 C 
HETATM    5  C3  UNK     1      20.553  -0.245  28.972  1.00  0.00     0.005 C 
HETATM    6  C4  UNK     1      19.043  -0.708  31.793  1.00  0.00     0.041 C 
HETATM    7  C5  UNK     1      19.211   0.483  28.890  1.00  0.00     0.047 C 
HETATM    8  C6  UNK     1      18.818   0.729  31.433  1.00  0.00    -0.021 A 
HETATM    9  C7  UNK     1      18.895   1.235  30.147  1.00  0.00    -0.007 A 
HETATM   10  C8  UNK     1      18.491   1.758  32.374  1.00  0.00     0.085 A 
HETATM   11  C9  UNK     1      18.337   2.989  31.780  1.00  0.00     0.098 A 
HETATM   12  C10 UNK     1      18.333   1.574  33.786  1.00  0.00     0.103 C 
ENDROOT
BRANCH  11  13
HETATM   13  N1  UNK     1      18.030   4.218  32.301  1.00  0.00    -0.316 N 
HETATM   14  C11 UNK     1      18.194   5.459  31.671  1.00  0.00     0.262 C 
HETATM   15  O2  UNK     1      18.634   5.692  30.552  1.00  0.00    -0.267 OA
HETATM   16  H11 UNK     1      17.664   4.198  33.250  1.00  0.00     0.170 HD
BRANCH  14  17
HETATM   17  C12 UNK     1      17.759   6.586  32.523  1.00  0.00     0.108 A 
HETATM   18  C14 UNK     1      16.733   7.312  32.064  1.00  0.00     0.037 A 
HETATM   19  C13 UNK     1      16.233   8.442  32.833  1.00  0.00     0.001 A 
HETATM   20  C15 UNK     1      16.838   8.751  34.046  1.00  0.00     0.089 A 
HETATM   21  C17 UNK     1      15.165   9.227  32.393  1.00  0.00     0.050 A 
HETATM   22  C18 UNK     1      16.407   9.819  34.830  1.00  0.00     0.041 A 
HETATM   23  O1  UNK     1      17.918   7.982  34.524  1.00  0.00    -0.274 OA
HETATM   24  C20 UNK     1      15.342  10.598  34.384  1.00  0.00     0.039 A 
HETATM   25  C19 UNK     1      14.721  10.303  33.169  1.00  0.00     0.103 A 
HETATM   26  C16 UNK     1      18.418   6.896  33.811  1.00  0.00     0.304 A 
HETATM   27  O3  UNK     1      19.358   6.232  34.235  1.00  0.00    -0.259 OA
BRANCH  25  28
HETATM   28  N3  UNK     1      13.635  11.099  32.719  1.00  0.00    -0.116 N 
HETATM   29  O4  UNK     1      12.496  10.579  32.630  1.00  0.00    -0.532 OA
HETATM   30  O5  UNK     1      13.843  12.301  32.422  1.00  0.00    -0.532 OA
ENDBRANCH  25  28
ENDBRANCH  14  17
ENDBRANCH  11  13
TORSDOF 3
ENDMDL
MODEL 10
REMARK VINA RESULT:      -9.4      7.598     13.445
REMARK  3 active torsions:
REMARK  status: ('A' for Active; 'I' for Inactive)
REMARK       I    between atoms: C11_20  and  N1_7 
REMARK    1  A    between atoms: C9_18  and  N1_7 
REMARK    2  A    between atoms: C19_28  and  N3_9 
REMARK    3  A    between atoms: C11_20  and  C12_21 
ROOT
HETATM    1  S1  UNK     1      15.136   7.875  33.033  1.00  0.00    -0.075 SA
HETATM    2  N2  UNK     1      19.914   8.464  34.639  1.00  0.00    -0.191 NA
HETATM    3  C1  UNK     1      15.046  12.464  34.550  1.00  0.00     0.001 C 
HETATM    4  C2  UNK     1      16.385  11.933  35.069  1.00  0.00     0.005 C 
HETATM    5  C3  UNK     1      13.994  11.393  34.245  1.00  0.00     0.005 C 
HETATM    6  C4  UNK     1      17.212  11.185  34.021  1.00  0.00     0.041 C 
HETATM    7  C5  UNK     1      14.306  10.536  33.018  1.00  0.00     0.047 C 
HETATM    8  C6  UNK     1      16.686   9.815  33.721  1.00  0.00    -0.021 A 
HETATM    9  C7  UNK     1      15.402   9.549  33.279  1.00  0.00    -0.007 A 
HETATM   10  C8  UNK     1      17.447   8.608  33.853  1.00  0.00     0.085 A 
HETATM   11  C9  UNK     1      16.727   7.487  33.513  1.00  0.00     0.098 A 
HETATM   12  C10 UNK     1      18.811   8.528  34.287  1.00  0.00     0.103 C 
ENDROOT
BRANCH  11  13
HETATM   13  N1  UNK     1      17.063   6.160  33.495  1.00  0.00    -0.316 N 
HETATM   14  C11 UNK     1      18.004   5.545  32.658  1.00  0.00     0.262 C 
HETATM   15  O2  UNK     1      18.701   6.058  31.791  1.00  0.00    -0.267 OA
HETATM   16  H11 UNK     1      16.549   5.583  34.156  1.00  0.00     0.170 HD
BRANCH  14  17
HETATM   17  C12 UNK     1      18.116   4.093  32.907  1.00  0.00     0.108 A 
HETATM   18  C14 UNK     1      18.044   3.705  34.186  1.00  0.00     0.037 A 
HETATM   19  C13 UNK     1      18.144   2.295  34.531  1.00  0.00     0.001 A 
HETATM   20  C15 UNK     1      18.315   1.363  33.514  1.00  0.00     0.089 A 
HETATM   21  C17 UNK     1      18.073   1.846  35.852  1.00  0.00     0.050 A 
HETATM   22  C18 UNK     1      18.417  -0.001  33.777  1.00  0.00     0.041 A 
HETATM   23  O1  UNK     1      18.390   1.778  32.169  1.00  0.00    -0.274 OA
HETATM   24  C20 UNK     1      18.347  -0.441  35.096  1.00  0.00     0.039 A 
HETATM   25  C19 UNK     1      18.175   0.480  36.132  1.00  0.00     0.103 A 
HETATM   26  C16 UNK     1      18.298   3.119  31.808  1.00  0.00     0.304 A 
HETATM   27  O3  UNK     1      18.363   3.470  30.635  1.00  0.00    -0.259 OA
BRANCH  25  28
HETATM   28  N3  UNK     1      18.103   0.026  37.476  1.00  0.00    -0.116 N 
HETATM   29  O4  UNK     1      17.966   0.869  38.396  1.00  0.00    -0.532 OA
HETATM   30  O5  UNK     1      18.177  -1.206  37.707  1.00  0.00    -0.532 OA
ENDBRANCH  25  28
ENDBRANCH  14  17
ENDBRANCH  11  13
TORSDOF 3
ENDMDL
