MODEL 1
REMARK VINA RESULT:      -9.1      0.000      0.000
REMARK  6 active torsions:
REMARK  status: ('A' for Active; 'I' for Inactive)
REMARK    1  A    between atoms: C17_24  and  O1_2 
REMARK    2  A    between atoms: C8_15  and  O1_2 
REMARK    3  A    between atoms: C5_12  and  N1_7 
REMARK       I    between atoms: C9_16  and  N1_7 
REMARK    4  A    between atoms: C1_8  and  C3_10 
REMARK    5  A    between atoms: C2_9  and  C8_15 
REMARK    6  A    between atoms: C10_17  and  C9_16 
ROOT
HETATM    1  O4  UNK     1      21.296  -3.847  37.226  1.00  0.00    -0.267 OA
HETATM    2  N1  UNK     1      19.033  -3.747  36.563  1.00  0.00    -0.316 N 
HETATM    3  C9  UNK     1      20.227  -4.365  36.908  1.00  0.00     0.262 C 
HETATM    4  H6  UNK     1      18.221  -4.314  36.340  1.00  0.00     0.169 HD
ENDROOT
BRANCH   2   5
HETATM    5  C5  UNK     1      18.805  -2.368  36.508  1.00  0.00     0.094 A 
HETATM    6  C2  UNK     1      19.098  -1.465  35.537  1.00  0.00     0.080 A 
HETATM    7  C1  UNK     1      18.678  -0.155  35.910  1.00  0.00    -0.027 A 
HETATM    8  C4  UNK     1      18.087  -0.136  37.153  1.00  0.00    -0.012 A 
HETATM    9  S1  UNK     1      18.038  -1.692  37.866  1.00  0.00    -0.076 SA
HETATM   10  C7  UNK     1      17.522   1.013  37.897  1.00  0.00     0.057 C 
BRANCH   6  11
HETATM   11  C8  UNK     1      19.746  -1.814  34.297  1.00  0.00     0.296 C 
HETATM   12  O3  UNK     1      20.895  -2.274  34.224  1.00  0.00    -0.259 OA
BRANCH  11  13
HETATM   13  O1  UNK     1      18.972  -1.591  33.179  1.00  0.00    -0.318 OA
BRANCH  13  14
HETATM   14  C17 UNK     1      19.658  -1.504  31.925  1.00  0.00     0.174 C 
HETATM   15  C20 UNK     1      19.436  -0.128  31.336  1.00  0.00     0.034 C 
ENDBRANCH  13  14
ENDBRANCH  11  13
ENDBRANCH   6  11
BRANCH   7  16
HETATM   16  C3  UNK     1      18.857   1.049  35.060  1.00  0.00     0.036 C 
HETATM   17  C6  UNK     1      17.608   1.383  34.243  1.00  0.00     0.010 C 
ENDBRANCH   7  16
ENDBRANCH   2   5
BRANCH   3  18
HETATM   18  C10 UNK     1      20.118  -5.827  36.862  1.00  0.00     0.108 A 
HETATM   19  C12 UNK     1      19.993  -6.449  38.041  1.00  0.00     0.037 A 
HETATM   20  C11 UNK     1      19.878  -7.898  38.099  1.00  0.00    -0.001 A 
HETATM   21  C13 UNK     1      19.901  -8.622  36.911  1.00  0.00     0.089 A 
HETATM   22  C15 UNK     1      19.745  -8.587  39.306  1.00  0.00     0.014 A 
HETATM   23  O2  UNK     1      20.033  -7.963  35.674  1.00  0.00    -0.274 OA
HETATM   24  C16 UNK     1      19.797 -10.011  36.897  1.00  0.00     0.038 A 
HETATM   25  C14 UNK     1      20.145  -6.578  35.587  1.00  0.00     0.304 A 
HETATM   26  O5  UNK     1      20.261  -6.013  34.504  1.00  0.00    -0.259 OA
HETATM   27  C19 UNK     1      19.665 -10.691  38.106  1.00  0.00     0.003 A 
HETATM   28  C18 UNK     1      19.639  -9.981  39.308  1.00  0.00     0.001 A 
ENDBRANCH   3  18
TORSDOF 6
ENDMDL
MODEL 2
REMARK VINA RESULT:      -8.9      8.115     10.549
REMARK  6 active torsions:
REMARK  status: ('A' for Active; 'I' for Inactive)
REMARK    1  A    between atoms: C17_24  and  O1_2 
REMARK    2  A    between atoms: C8_15  and  O1_2 
REMARK    3  A    between atoms: C5_12  and  N1_7 
REMARK       I    between atoms: C9_16  and  N1_7 
REMARK    4  A    between atoms: C1_8  and  C3_10 
REMARK    5  A    between atoms: C2_9  and  C8_15 
REMARK    6  A    between atoms: C10_17  and  C9_16 
ROOT
HETATM    1  O4  UNK     1      17.583   3.844  32.870  1.00  0.00    -0.267 OA
HETATM    2  N1  UNK     1      19.065   5.211  31.643  1.00  0.00    -0.316 N 
HETATM    3  C9  UNK     1      18.375   4.047  31.951  1.00  0.00     0.262 C 
HETATM    4  H6  UNK     1      19.676   5.232  30.833  1.00  0.00     0.169 HD
ENDROOT
BRANCH   2   5
HETATM    5  C5  UNK     1      18.992   6.421  32.341  1.00  0.00     0.094 A 
HETATM    6  C2  UNK     1      18.028   7.378  32.347  1.00  0.00     0.080 A 
HETATM    7  C1  UNK     1      18.375   8.452  33.216  1.00  0.00    -0.027 A 
HETATM    8  C4  UNK     1      19.594   8.251  33.826  1.00  0.00    -0.012 A 
HETATM    9  S1  UNK     1      20.313   6.771  33.351  1.00  0.00    -0.076 SA
HETATM   10  C7  UNK     1      20.307   9.120  34.789  1.00  0.00     0.057 C 
BRANCH   6  11
HETATM   11  C8  UNK     1      16.818   7.290  31.568  1.00  0.00     0.296 C 
HETATM   12  O3  UNK     1      16.667   7.833  30.463  1.00  0.00    -0.259 OA
BRANCH  11  13
HETATM   13  O1  UNK     1      15.824   6.542  32.160  1.00  0.00    -0.318 OA
BRANCH  13  14
HETATM   14  C17 UNK     1      14.483   7.024  32.023  1.00  0.00     0.174 C 
HETATM   15  C20 UNK     1      13.910   7.284  33.400  1.00  0.00     0.034 C 
ENDBRANCH  13  14
ENDBRANCH  11  13
ENDBRANCH   6  11
BRANCH   7  16
HETATM   16  C3  UNK     1      17.526   9.649  33.440  1.00  0.00     0.036 C 
HETATM   17  C6  UNK     1      16.537   9.461  34.591  1.00  0.00     0.010 C 
ENDBRANCH   7  16
ENDBRANCH   2   5
BRANCH   3  18
HETATM   18  C10 UNK     1      18.685   2.963  31.012  1.00  0.00     0.108 A 
HETATM   19  C12 UNK     1      19.070   1.802  31.554  1.00  0.00     0.037 A 
HETATM   20  C11 UNK     1      19.399   0.668  30.705  1.00  0.00    -0.001 A 
HETATM   21  C13 UNK     1      19.307   0.813  29.324  1.00  0.00     0.089 A 
HETATM   22  C15 UNK     1      19.804  -0.562  31.229  1.00  0.00     0.014 A 
HETATM   23  O2  UNK     1      18.902   2.037  28.759  1.00  0.00    -0.274 OA
HETATM   24  C16 UNK     1      19.610  -0.234  28.455  1.00  0.00     0.038 A 
HETATM   25  C14 UNK     1      18.581   3.140  29.546  1.00  0.00     0.304 A 
HETATM   26  O5  UNK     1      18.230   4.202  29.044  1.00  0.00    -0.259 OA
HETATM   27  C19 UNK     1      20.013  -1.457  28.986  1.00  0.00     0.003 A 
HETATM   28  C18 UNK     1      20.111  -1.621  30.369  1.00  0.00     0.001 A 
ENDBRANCH   3  18
TORSDOF 6
ENDMDL
MODEL 3
REMARK VINA RESULT:      -8.7      1.798      7.661
REMARK  6 active torsions:
REMARK  status: ('A' for Active; 'I' for Inactive)
REMARK    1  A    between atoms: C17_24  and  O1_2 
REMARK    2  A    between atoms: C8_15  and  O1_2 
REMARK    3  A    between atoms: C5_12  and  N1_7 
REMARK       I    between atoms: C9_16  and  N1_7 
REMARK    4  A    between atoms: C1_8  and  C3_10 
REMARK    5  A    between atoms: C2_9  and  C8_15 
REMARK    6  A    between atoms: C10_17  and  C9_16 
ROOT
HETATM    1  O4  UNK     1      21.433  -4.346  36.898  1.00  0.00    -0.267 OA
HETATM    2  N1  UNK     1      19.180  -5.014  37.115  1.00  0.00    -0.316 N 
HETATM    3  C9  UNK     1      20.222  -4.138  36.846  1.00  0.00     0.262 C 
HETATM    4  H6  UNK     1      18.220  -4.700  37.009  1.00  0.00     0.169 HD
ENDROOT
BRANCH   2   5
HETATM    5  C5  UNK     1      19.307  -6.349  37.513  1.00  0.00     0.094 A 
HETATM    6  C2  UNK     1      18.961  -7.496  36.873  1.00  0.00     0.080 A 
HETATM    7  C1  UNK     1      19.279  -8.640  37.660  1.00  0.00    -0.027 A 
HETATM    8  C4  UNK     1      19.853  -8.296  38.864  1.00  0.00    -0.012 A 
HETATM    9  S1  UNK     1      20.008  -6.600  39.041  1.00  0.00    -0.076 SA
HETATM   10  C7  UNK     1      20.325  -9.178  39.955  1.00  0.00     0.057 C 
BRANCH   6  11
HETATM   11  C8  UNK     1      18.353  -7.523  35.566  1.00  0.00     0.296 C 
HETATM   12  O3  UNK     1      17.226  -7.986  35.337  1.00  0.00    -0.259 OA
BRANCH  11  13
HETATM   13  O1  UNK     1      19.140  -6.981  34.572  1.00  0.00    -0.318 OA
BRANCH  13  14
HETATM   14  C17 UNK     1      20.513  -7.388  34.541  1.00  0.00     0.174 C 
HETATM   15  C20 UNK     1      21.018  -7.309  33.117  1.00  0.00     0.034 C 
ENDBRANCH  13  14
ENDBRANCH  11  13
ENDBRANCH   6  11
BRANCH   7  16
HETATM   16  C3  UNK     1      19.023 -10.039  37.236  1.00  0.00     0.036 C 
HETATM   17  C6  UNK     1      20.289 -10.749  36.754  1.00  0.00     0.010 C 
ENDBRANCH   7  16
ENDBRANCH   2   5
BRANCH   3  18
HETATM   18  C10 UNK     1      19.733  -2.811  36.454  1.00  0.00     0.108 A 
HETATM   19  C12 UNK     1      19.032  -2.143  37.378  1.00  0.00     0.037 A 
HETATM   20  C11 UNK     1      18.506  -0.819  37.084  1.00  0.00    -0.001 A 
HETATM   21  C13 UNK     1      18.743  -0.264  35.830  1.00  0.00     0.089 A 
HETATM   22  C15 UNK     1      17.770  -0.086  38.018  1.00  0.00     0.014 A 
HETATM   23  O2  UNK     1      19.480  -0.972  34.862  1.00  0.00    -0.274 OA
HETATM   24  C16 UNK     1      18.265   0.999  35.485  1.00  0.00     0.038 A 
HETATM   25  C14 UNK     1      19.997  -2.240  35.115  1.00  0.00     0.304 A 
HETATM   26  O5  UNK     1      20.637  -2.850  34.265  1.00  0.00    -0.259 OA
HETATM   27  C19 UNK     1      17.532   1.723  36.422  1.00  0.00     0.003 A 
HETATM   28  C18 UNK     1      17.284   1.183  37.686  1.00  0.00     0.001 A 
ENDBRANCH   3  18
TORSDOF 6
ENDMDL
MODEL 4
REMARK VINA RESULT:      -8.5      1.814      7.682
REMARK  6 active torsions:
REMARK  status: ('A' for Active; 'I' for Inactive)
REMARK    1  A    between atoms: C17_24  and  O1_2 
REMARK    2  A    between atoms: C8_15  and  O1_2 
REMARK    3  A    between atoms: C5_12  and  N1_7 
REMARK       I    between atoms: C9_16  and  N1_7 
REMARK    4  A    between atoms: C1_8  and  C3_10 
REMARK    5  A    between atoms: C2_9  and  C8_15 
REMARK    6  A    between atoms: C10_17  and  C9_16 
ROOT
HETATM    1  O4  UNK     1      21.623  -4.193  37.200  1.00  0.00    -0.267 OA
HETATM    2  N1  UNK     1      19.470  -5.132  36.975  1.00  0.00    -0.316 N 
HETATM    3  C9  UNK     1      20.423  -4.124  36.940  1.00  0.00     0.262 C 
HETATM    4  H6  UNK     1      18.512  -4.925  36.712  1.00  0.00     0.169 HD
ENDROOT
BRANCH   2   5
HETATM    5  C5  UNK     1      19.695  -6.467  37.325  1.00  0.00     0.094 A 
HETATM    6  C2  UNK     1      19.834  -7.571  36.547  1.00  0.00     0.080 A 
HETATM    7  C1  UNK     1      20.053  -8.735  37.339  1.00  0.00    -0.027 A 
HETATM    8  C4  UNK     1      20.066  -8.449  38.686  1.00  0.00    -0.012 A 
HETATM    9  S1  UNK     1      19.817  -6.782  38.991  1.00  0.00    -0.076 SA
HETATM   10  C7  UNK     1      20.262  -9.368  39.830  1.00  0.00     0.057 C 
BRANCH   6  11
HETATM   11  C8  UNK     1      19.768  -7.540  35.107  1.00  0.00     0.296 C 
HETATM   12  O3  UNK     1      20.734  -7.768  34.365  1.00  0.00    -0.259 OA
BRANCH  11  13
HETATM   13  O1  UNK     1      18.520  -7.229  34.611  1.00  0.00    -0.318 OA
BRANCH  13  14
HETATM   14  C17 UNK     1      17.401  -7.885  35.219  1.00  0.00     0.174 C 
HETATM   15  C20 UNK     1      16.312  -6.865  35.475  1.00  0.00     0.034 C 
ENDBRANCH  13  14
ENDBRANCH  11  13
ENDBRANCH   6  11
BRANCH   7  16
HETATM   16  C3  UNK     1      20.243 -10.098  36.781  1.00  0.00     0.036 C 
HETATM   17  C6  UNK     1      21.717 -10.443  36.563  1.00  0.00     0.010 C 
ENDBRANCH   7  16
ENDBRANCH   2   5
BRANCH   3  18
HETATM   18  C10 UNK     1      19.845  -2.839  36.530  1.00  0.00     0.108 A 
HETATM   19  C12 UNK     1      19.112  -2.200  37.449  1.00  0.00     0.037 A 
HETATM   20  C11 UNK     1      18.498  -0.919  37.137  1.00  0.00    -0.001 A 
HETATM   21  C13 UNK     1      18.686  -0.374  35.871  1.00  0.00     0.089 A 
HETATM   22  C15 UNK     1      17.726  -0.217  38.065  1.00  0.00     0.014 A 
HETATM   23  O2  UNK     1      19.458  -1.051  34.908  1.00  0.00    -0.274 OA
HETATM   24  C16 UNK     1      18.124   0.849  35.508  1.00  0.00     0.038 A 
HETATM   25  C14 UNK     1      20.059  -2.278  35.177  1.00  0.00     0.304 A 
HETATM   26  O5  UNK     1      20.729  -2.861  34.331  1.00  0.00    -0.259 OA
HETATM   27  C19 UNK     1      17.355   1.542  36.440  1.00  0.00     0.003 A 
HETATM   28  C18 UNK     1      17.155   1.010  37.715  1.00  0.00     0.001 A 
ENDBRANCH   3  18
TORSDOF 6
ENDMDL
MODEL 5
REMARK VINA RESULT:      -8.4     17.516     21.693
REMARK  6 active torsions:
REMARK  status: ('A' for Active; 'I' for Inactive)
REMARK    1  A    between atoms: C17_24  and  O1_2 
REMARK    2  A    between atoms: C8_15  and  O1_2 
REMARK    3  A    between atoms: C5_12  and  N1_7 
REMARK       I    between atoms: C9_16  and  N1_7 
REMARK    4  A    between atoms: C1_8  and  C3_10 
REMARK    5  A    between atoms: C2_9  and  C8_15 
REMARK    6  A    between atoms: C10_17  and  C9_16 
ROOT
HETATM    1  O4  UNK     1      17.684  -2.021  15.834  1.00  0.00    -0.267 OA
HETATM    2  N1  UNK     1      19.746  -1.470  14.826  1.00  0.00    -0.316 N 
HETATM    3  C9  UNK     1      18.721  -1.363  15.756  1.00  0.00     0.262 C 
HETATM    4  H6  UNK     1      20.557  -0.863  14.902  1.00  0.00     0.169 HD
ENDROOT
BRANCH   2   5
HETATM    5  C5  UNK     1      19.802  -2.375  13.762  1.00  0.00     0.094 A 
HETATM    6  C2  UNK     1      20.215  -3.668  13.725  1.00  0.00     0.080 A 
HETATM    7  C1  UNK     1      20.096  -4.209  12.412  1.00  0.00    -0.027 A 
HETATM    8  C4  UNK     1      19.596  -3.290  11.517  1.00  0.00    -0.012 A 
HETATM    9  S1  UNK     1      19.271  -1.781  12.260  1.00  0.00    -0.076 SA
HETATM   10  C7  UNK     1      19.323  -3.453  10.072  1.00  0.00     0.057 C 
BRANCH   6  11
HETATM   11  C8  UNK     1      20.705  -4.377  14.881  1.00  0.00     0.296 C 
HETATM   12  O3  UNK     1      21.890  -4.701  15.043  1.00  0.00    -0.259 OA
BRANCH  11  13
HETATM   13  O1  UNK     1      19.730  -4.673  15.810  1.00  0.00    -0.318 OA
BRANCH  13  14
HETATM   14  C17 UNK     1      19.086  -5.946  15.688  1.00  0.00     0.174 C 
HETATM   15  C20 UNK     1      17.636  -5.730  15.312  1.00  0.00     0.034 C 
ENDBRANCH  13  14
ENDBRANCH  11  13
ENDBRANCH   6  11
BRANCH   7  16
HETATM   16  C3  UNK     1      20.467  -5.600  12.049  1.00  0.00     0.036 C 
HETATM   17  C6  UNK     1      19.264  -6.544  12.033  1.00  0.00     0.010 C 
ENDBRANCH   7  16
ENDBRANCH   2   5
BRANCH   3  18
HETATM   18  C10 UNK     1      18.982  -0.306  16.739  1.00  0.00     0.108 A 
HETATM   19  C12 UNK     1      18.967  -0.677  18.025  1.00  0.00     0.037 A 
HETATM   20  C11 UNK     1      19.215   0.300  19.074  1.00  0.00    -0.001 A 
HETATM   21  C13 UNK     1      19.468   1.621  18.717  1.00  0.00     0.089 A 
HETATM   22  C15 UNK     1      19.209  -0.043  20.428  1.00  0.00     0.014 A 
HETATM   23  O2  UNK     1      19.483   2.005  17.362  1.00  0.00    -0.274 OA
HETATM   24  C16 UNK     1      19.712   2.605  19.672  1.00  0.00     0.038 A 
HETATM   25  C14 UNK     1      19.249   1.093  16.336  1.00  0.00     0.304 A 
HETATM   26  O5  UNK     1      19.263   1.438  15.160  1.00  0.00    -0.259 OA
HETATM   27  C19 UNK     1      19.704   2.255  21.020  1.00  0.00     0.003 A 
HETATM   28  C18 UNK     1      19.453   0.934  21.398  1.00  0.00     0.001 A 
ENDBRANCH   3  18
TORSDOF 6
ENDMDL
MODEL 6
REMARK VINA RESULT:      -8.3      6.522     11.880
REMARK  6 active torsions:
REMARK  status: ('A' for Active; 'I' for Inactive)
REMARK    1  A    between atoms: C17_24  and  O1_2 
REMARK    2  A    between atoms: C8_15  and  O1_2 
REMARK    3  A    between atoms: C5_12  and  N1_7 
REMARK       I    between atoms: C9_16  and  N1_7 
REMARK    4  A    between atoms: C1_8  and  C3_10 
REMARK    5  A    between atoms: C2_9  and  C8_15 
REMARK    6  A    between atoms: C10_17  and  C9_16 
ROOT
HETATM    1  O4  UNK     1      19.514   5.062  31.250  1.00  0.00    -0.267 OA
HETATM    2  N1  UNK     1      18.042   3.551  32.309  1.00  0.00    -0.316 N 
HETATM    3  C9  UNK     1      18.583   4.793  32.009  1.00  0.00     0.262 C 
HETATM    4  H6  UNK     1      17.254   3.488  32.946  1.00  0.00     0.169 HD
ENDROOT
BRANCH   2   5
HETATM    5  C5  UNK     1      18.463   2.322  31.791  1.00  0.00     0.094 A 
HETATM    6  C2  UNK     1      18.583   1.109  32.390  1.00  0.00     0.080 A 
HETATM    7  C1  UNK     1      19.053   0.126  31.471  1.00  0.00    -0.027 A 
HETATM    8  C4  UNK     1      19.267   0.652  30.216  1.00  0.00    -0.012 A 
HETATM    9  S1  UNK     1      18.900   2.324  30.149  1.00  0.00    -0.076 SA
HETATM   10  C7  UNK     1      19.748  -0.028  28.992  1.00  0.00     0.057 C 
BRANCH   6  11
HETATM   11  C8  UNK     1      18.267   0.873  33.776  1.00  0.00     0.296 C 
HETATM   12  O3  UNK     1      19.111   0.597  34.641  1.00  0.00    -0.259 OA
BRANCH  11  13
HETATM   13  O1  UNK     1      16.924   0.980  34.069  1.00  0.00    -0.318 OA
BRANCH  13  14
HETATM   14  C17 UNK     1      16.354  -0.055  34.878  1.00  0.00     0.174 C 
HETATM   15  C20 UNK     1      15.880   0.545  36.184  1.00  0.00     0.034 C 
ENDBRANCH  13  14
ENDBRANCH  11  13
ENDBRANCH   6  11
BRANCH   7  16
HETATM   16  C3  UNK     1      19.287  -1.297  31.821  1.00  0.00     0.036 C 
HETATM   17  C6  UNK     1      20.772  -1.661  31.844  1.00  0.00     0.010 C 
ENDBRANCH   7  16
ENDBRANCH   2   5
BRANCH   3  18
HETATM   18  C10 UNK     1      17.902   5.875  32.729  1.00  0.00     0.108 A 
HETATM   19  C12 UNK     1      16.693   6.219  32.274  1.00  0.00     0.037 A 
HETATM   20  C11 UNK     1      15.938   7.281  32.923  1.00  0.00    -0.001 A 
HETATM   21  C13 UNK     1      16.497   7.928  34.021  1.00  0.00     0.089 A 
HETATM   22  C15 UNK     1      14.673   7.672  32.482  1.00  0.00     0.014 A 
HETATM   23  O2  UNK     1      17.771   7.561  34.496  1.00  0.00    -0.274 OA
HETATM   24  C16 UNK     1      15.828   8.953  34.686  1.00  0.00     0.038 A 
HETATM   25  C14 UNK     1      18.516   6.549  33.895  1.00  0.00     0.304 A 
HETATM   26  O5  UNK     1      19.625   6.238  34.316  1.00  0.00    -0.259 OA
HETATM   27  C19 UNK     1      14.566   9.338  34.239  1.00  0.00     0.003 A 
HETATM   28  C18 UNK     1      13.989   8.700  33.139  1.00  0.00     0.001 A 
ENDBRANCH   3  18
TORSDOF 6
ENDMDL
MODEL 7
REMARK VINA RESULT:      -8.3      2.207      8.212
REMARK  6 active torsions:
REMARK  status: ('A' for Active; 'I' for Inactive)
REMARK    1  A    between atoms: C17_24  and  O1_2 
REMARK    2  A    between atoms: C8_15  and  O1_2 
REMARK    3  A    between atoms: C5_12  and  N1_7 
REMARK       I    between atoms: C9_16  and  N1_7 
REMARK    4  A    between atoms: C1_8  and  C3_10 
REMARK    5  A    between atoms: C2_9  and  C8_15 
REMARK    6  A    between atoms: C10_17  and  C9_16 
ROOT
HETATM    1  O4  UNK     1      21.442  -4.482  37.179  1.00  0.00    -0.267 OA
HETATM    2  N1  UNK     1      19.899  -5.586  35.776  1.00  0.00    -0.316 N 
HETATM    3  C9  UNK     1      20.496  -4.496  36.394  1.00  0.00     0.262 C 
HETATM    4  H6  UNK     1      19.130  -5.437  35.130  1.00  0.00     0.169 HD
ENDROOT
BRANCH   2   5
HETATM    5  C5  UNK     1      20.269  -6.926  35.931  1.00  0.00     0.094 A 
HETATM    6  C2  UNK     1      20.170  -7.748  37.007  1.00  0.00     0.080 A 
HETATM    7  C1  UNK     1      20.676  -9.047  36.710  1.00  0.00    -0.027 A 
HETATM    8  C4  UNK     1      21.136  -9.139  35.416  1.00  0.00    -0.012 A 
HETATM    9  S1  UNK     1      20.956  -7.664  34.563  1.00  0.00    -0.076 SA
HETATM   10  C7  UNK     1      21.731 -10.302  34.721  1.00  0.00     0.057 C 
BRANCH   6  11
HETATM   11  C8  UNK     1      19.617  -7.336  38.273  1.00  0.00     0.296 C 
HETATM   12  O3  UNK     1      18.515  -6.782  38.399  1.00  0.00    -0.259 OA
BRANCH  11  13
HETATM   13  O1  UNK     1      20.427  -7.611  39.354  1.00  0.00    -0.318 OA
BRANCH  13  14
HETATM   14  C17 UNK     1      21.683  -6.924  39.411  1.00  0.00     0.174 C 
HETATM   15  C20 UNK     1      22.768  -7.912  39.784  1.00  0.00     0.034 C 
ENDBRANCH  13  14
ENDBRANCH  11  13
ENDBRANCH   6  11
BRANCH   7  16
HETATM   16  C3  UNK     1      20.705 -10.170  37.681  1.00  0.00     0.036 C 
HETATM   17  C6  UNK     1      19.436 -11.022  37.633  1.00  0.00     0.010 C 
ENDBRANCH   7  16
ENDBRANCH   2   5
BRANCH   3  18
HETATM   18  C10 UNK     1      19.858  -3.232  36.009  1.00  0.00     0.108 A 
HETATM   19  C12 UNK     1      19.096  -2.647  36.940  1.00  0.00     0.037 A 
HETATM   20  C11 UNK     1      18.421  -1.390  36.653  1.00  0.00    -0.001 A 
HETATM   21  C13 UNK     1      18.582  -0.812  35.398  1.00  0.00     0.089 A 
HETATM   22  C15 UNK     1      17.617  -0.744  37.595  1.00  0.00     0.014 A 
HETATM   23  O2  UNK     1      19.385  -1.433  34.422  1.00  0.00    -0.274 OA
HETATM   24  C16 UNK     1      17.963   0.389  35.059  1.00  0.00     0.038 A 
HETATM   25  C14 UNK     1      20.043  -2.635  34.668  1.00  0.00     0.304 A 
HETATM   26  O5  UNK     1      20.740  -3.169  33.811  1.00  0.00    -0.259 OA
HETATM   27  C19 UNK     1      17.162   1.027  36.004  1.00  0.00     0.003 A 
HETATM   28  C18 UNK     1      16.989   0.462  37.269  1.00  0.00     0.001 A 
ENDBRANCH   3  18
TORSDOF 6
ENDMDL
MODEL 8
REMARK VINA RESULT:      -8.0      7.775      9.926
REMARK  6 active torsions:
REMARK  status: ('A' for Active; 'I' for Inactive)
REMARK    1  A    between atoms: C17_24  and  O1_2 
REMARK    2  A    between atoms: C8_15  and  O1_2 
REMARK    3  A    between atoms: C5_12  and  N1_7 
REMARK       I    between atoms: C9_16  and  N1_7 
REMARK    4  A    between atoms: C1_8  and  C3_10 
REMARK    5  A    between atoms: C2_9  and  C8_15 
REMARK    6  A    between atoms: C10_17  and  C9_16 
ROOT
HETATM    1  O4  UNK     1      17.838   3.167  33.240  1.00  0.00    -0.267 OA
HETATM    2  N1  UNK     1      18.162   4.746  31.517  1.00  0.00    -0.316 N 
HETATM    3  C9  UNK     1      18.163   3.486  32.098  1.00  0.00     0.262 C 
HETATM    4  H6  UNK     1      18.443   4.851  30.547  1.00  0.00     0.169 HD
ENDROOT
BRANCH   2   5
HETATM    5  C5  UNK     1      17.779   5.940  32.137  1.00  0.00     0.094 A 
HETATM    6  C2  UNK     1      18.407   6.680  33.088  1.00  0.00     0.080 A 
HETATM    7  C1  UNK     1      17.643   7.833  33.429  1.00  0.00    -0.027 A 
HETATM    8  C4  UNK     1      16.468   7.905  32.714  1.00  0.00    -0.012 A 
HETATM    9  S1  UNK     1      16.290   6.586  31.636  1.00  0.00    -0.076 SA
HETATM   10  C7  UNK     1      15.407   8.936  32.771  1.00  0.00     0.057 C 
BRANCH   6  11
HETATM   11  C8  UNK     1      19.682   6.322  33.658  1.00  0.00     0.296 C 
HETATM   12  O3  UNK     1      19.825   5.489  34.565  1.00  0.00    -0.259 OA
BRANCH  11  13
HETATM   13  O1  UNK     1      20.750   6.994  33.104  1.00  0.00    -0.318 OA
BRANCH  13  14
HETATM   14  C17 UNK     1      21.790   6.194  32.528  1.00  0.00     0.174 C 
HETATM   15  C20 UNK     1      21.442   5.898  31.085  1.00  0.00     0.034 C 
ENDBRANCH  13  14
ENDBRANCH  11  13
ENDBRANCH   6  11
BRANCH   7  16
HETATM   16  C3  UNK     1      18.062   8.841  34.436  1.00  0.00     0.036 C 
HETATM   17  C6  UNK     1      18.777  10.037  33.808  1.00  0.00     0.010 C 
ENDBRANCH   7  16
ENDBRANCH   2   5
BRANCH   3  18
HETATM   18  C10 UNK     1      18.626   2.454  31.163  1.00  0.00     0.108 A 
HETATM   19  C12 UNK     1      18.990   1.286  31.705  1.00  0.00     0.037 A 
HETATM   20  C11 UNK     1      19.462   0.200  30.860  1.00  0.00    -0.001 A 
HETATM   21  C13 UNK     1      19.528   0.398  29.484  1.00  0.00     0.089 A 
HETATM   22  C15 UNK     1      19.852  -1.035  31.382  1.00  0.00     0.014 A 
HETATM   23  O2  UNK     1      19.144   1.630  28.920  1.00  0.00    -0.274 OA
HETATM   24  C16 UNK     1      19.973  -0.600  28.620  1.00  0.00     0.038 A 
HETATM   25  C14 UNK     1      18.687   2.687  29.703  1.00  0.00     0.304 A 
HETATM   26  O5  UNK     1      18.356   3.756  29.202  1.00  0.00    -0.259 OA
HETATM   27  C19 UNK     1      20.360  -1.829  29.149  1.00  0.00     0.003 A 
HETATM   28  C18 UNK     1      20.300  -2.047  30.527  1.00  0.00     0.001 A 
ENDBRANCH   3  18
TORSDOF 6
ENDMDL
MODEL 9
REMARK VINA RESULT:      -7.9      2.420      4.417
REMARK  6 active torsions:
REMARK  status: ('A' for Active; 'I' for Inactive)
REMARK    1  A    between atoms: C17_24  and  O1_2 
REMARK    2  A    between atoms: C8_15  and  O1_2 
REMARK    3  A    between atoms: C5_12  and  N1_7 
REMARK       I    between atoms: C9_16  and  N1_7 
REMARK    4  A    between atoms: C1_8  and  C3_10 
REMARK    5  A    between atoms: C2_9  and  C8_15 
REMARK    6  A    between atoms: C10_17  and  C9_16 
ROOT
HETATM    1  O4  UNK     1      21.666  -2.046  34.705  1.00  0.00    -0.267 OA
HETATM    2  N1  UNK     1      19.640  -2.522  33.592  1.00  0.00    -0.316 N 
HETATM    3  C9  UNK     1      20.614  -2.669  34.570  1.00  0.00     0.262 C 
HETATM    4  H6  UNK     1      18.808  -3.103  33.623  1.00  0.00     0.169 HD
ENDROOT
BRANCH   2   5
HETATM    5  C5  UNK     1      19.665  -1.607  32.535  1.00  0.00     0.094 A 
HETATM    6  C2  UNK     1      19.125  -0.366  32.431  1.00  0.00     0.080 A 
HETATM    7  C1  UNK     1      19.404   0.211  31.158  1.00  0.00    -0.027 A 
HETATM    8  C4  UNK     1      20.145  -0.631  30.360  1.00  0.00    -0.012 A 
HETATM    9  S1  UNK     1      20.503  -2.110  31.144  1.00  0.00    -0.076 SA
HETATM   10  C7  UNK     1      20.638  -0.410  28.982  1.00  0.00     0.057 C 
BRANCH   6  11
HETATM   11  C8  UNK     1      18.373   0.263  33.488  1.00  0.00     0.296 C 
HETATM   12  O3  UNK     1      18.711   1.319  34.043  1.00  0.00    -0.259 OA
BRANCH  11  13
HETATM   13  O1  UNK     1      17.227  -0.416  33.840  1.00  0.00    -0.318 OA
BRANCH  13  14
HETATM   14  C17 UNK     1      16.938  -0.517  35.239  1.00  0.00     0.174 C 
HETATM   15  C20 UNK     1      15.641   0.209  35.528  1.00  0.00     0.034 C 
ENDBRANCH  13  14
ENDBRANCH  11  13
ENDBRANCH   6  11
BRANCH   7  16
HETATM   16  C3  UNK     1      18.949   1.561  30.739  1.00  0.00     0.036 C 
HETATM   17  C6  UNK     1      18.059   1.523  29.497  1.00  0.00     0.010 C 
ENDBRANCH   7  16
ENDBRANCH   2   5
BRANCH   3  18
HETATM   18  C10 UNK     1      20.271  -3.725  35.529  1.00  0.00     0.108 A 
HETATM   19  C12 UNK     1      20.137  -4.958  35.029  1.00  0.00     0.037 A 
HETATM   20  C11 UNK     1      19.798  -6.072  35.901  1.00  0.00    -0.001 A 
HETATM   21  C13 UNK     1      19.616  -5.832  37.259  1.00  0.00     0.089 A 
HETATM   22  C15 UNK     1      19.649  -7.375  35.421  1.00  0.00     0.014 A 
HETATM   23  O2  UNK     1      19.759  -4.531  37.781  1.00  0.00    -0.274 OA
HETATM   24  C16 UNK     1      19.289  -6.854  38.148  1.00  0.00     0.038 A 
HETATM   25  C14 UNK     1      20.082  -3.446  36.971  1.00  0.00     0.304 A 
HETATM   26  O5  UNK     1      20.203  -2.317  37.434  1.00  0.00    -0.259 OA
HETATM   27  C19 UNK     1      19.142  -8.151  37.661  1.00  0.00     0.003 A 
HETATM   28  C18 UNK     1      19.321  -8.411  36.301  1.00  0.00     0.001 A 
ENDBRANCH   3  18
TORSDOF 6
ENDMDL
MODEL 10
REMARK VINA RESULT:      -7.8      1.916      7.756
REMARK  6 active torsions:
REMARK  status: ('A' for Active; 'I' for Inactive)
REMARK    1  A    between atoms: C17_24  and  O1_2 
REMARK    2  A    between atoms: C8_15  and  O1_2 
REMARK    3  A    between atoms: C5_12  and  N1_7 
REMARK       I    between atoms: C9_16  and  N1_7 
REMARK    4  A    between atoms: C1_8  and  C3_10 
REMARK    5  A    between atoms: C2_9  and  C8_15 
REMARK    6  A    between atoms: C10_17  and  C9_16 
ROOT
HETATM    1  O4  UNK     1      19.423  -2.390  37.444  1.00  0.00    -0.267 OA
HETATM    2  N1  UNK     1      20.039  -4.217  36.083  1.00  0.00    -0.316 N 
HETATM    3  C9  UNK     1      19.648  -2.913  36.354  1.00  0.00     0.262 C 
HETATM    4  H6  UNK     1      20.208  -4.501  35.123  1.00  0.00     0.169 HD
ENDROOT
BRANCH   2   5
HETATM    5  C5  UNK     1      20.259  -5.224  37.028  1.00  0.00     0.094 A 
HETATM    6  C2  UNK     1      19.540  -6.342  37.310  1.00  0.00     0.080 A 
HETATM    7  C1  UNK     1      20.143  -7.091  38.361  1.00  0.00    -0.027 A 
HETATM    8  C4  UNK     1      21.296  -6.496  38.823  1.00  0.00    -0.012 A 
HETATM    9  S1  UNK     1      21.647  -5.041  37.992  1.00  0.00    -0.076 SA
HETATM   10  C7  UNK     1      22.210  -6.950  39.895  1.00  0.00     0.057 C 
BRANCH   6  11
HETATM   11  C8  UNK     1      18.327  -6.699  36.617  1.00  0.00     0.296 C 
HETATM   12  O3  UNK     1      17.211  -6.236  36.893  1.00  0.00    -0.259 OA
BRANCH  11  13
HETATM   13  O1  UNK     1      18.511  -7.615  35.604  1.00  0.00    -0.318 OA
BRANCH  13  14
HETATM   14  C17 UNK     1      19.510  -7.306  34.625  1.00  0.00     0.174 C 
HETATM   15  C20 UNK     1      20.726  -8.174  34.871  1.00  0.00     0.034 C 
ENDBRANCH  13  14
ENDBRANCH  11  13
ENDBRANCH   6  11
BRANCH   7  16
HETATM   16  C3  UNK     1      19.596  -8.363  38.896  1.00  0.00     0.036 C 
HETATM   17  C6  UNK     1      20.247  -9.594  38.265  1.00  0.00     0.010 C 
ENDBRANCH   7  16
ENDBRANCH   2   5
BRANCH   3  18
HETATM   18  C10 UNK     1      19.507  -2.120  35.128  1.00  0.00     0.108 A 
HETATM   19  C12 UNK     1      20.135  -2.589  34.044  1.00  0.00     0.037 A 
HETATM   20  C11 UNK     1      20.055  -1.872  32.780  1.00  0.00    -0.001 A 
HETATM   21  C13 UNK     1      19.316  -0.694  32.722  1.00  0.00     0.089 A 
HETATM   22  C15 UNK     1      20.693  -2.326  31.624  1.00  0.00     0.014 A 
HETATM   23  O2  UNK     1      18.658  -0.205  33.866  1.00  0.00    -0.274 OA
HETATM   24  C16 UNK     1      19.201   0.041  31.544  1.00  0.00     0.038 A 
HETATM   25  C14 UNK     1      18.717  -0.869  35.089  1.00  0.00     0.304 A 
HETATM   26  O5  UNK     1      18.141  -0.434  36.080  1.00  0.00    -0.259 OA
HETATM   27  C19 UNK     1      19.841  -0.419  30.395  1.00  0.00     0.003 A 
HETATM   28  C18 UNK     1      20.586  -1.599  30.434  1.00  0.00     0.001 A 
ENDBRANCH   3  18
TORSDOF 6
ENDMDL
