MODEL 1
REMARK VINA RESULT:      -8.8      0.000      0.000
REMARK  2 active torsions:
REMARK  status: ('A' for Active; 'I' for Inactive)
REMARK    1  A    between atoms: C1_5  and  N1_4 
REMARK       I    between atoms: C7_11  and  N1_4 
REMARK    2  A    between atoms: C7_11  and  C8_12 
ROOT
HETATM    1  O2  UNK     1      18.823   0.163  32.433  1.00  0.00    -0.274 OA
HETATM    2  O3  UNK     1      17.858   2.148  33.025  1.00  0.00    -0.259 OA
HETATM    3  C8  UNK     1      18.876   2.057  30.887  1.00  0.00     0.108 A 
HETATM    4  C9  UNK     1      19.546   1.335  29.981  1.00  0.00     0.037 A 
HETATM    5  C10 UNK     1      19.898  -0.049  30.263  1.00  0.00    -0.001 A 
HETATM    6  C11 UNK     1      18.471   1.488  32.193  1.00  0.00     0.304 A 
HETATM    7  C12 UNK     1      19.527  -0.603  31.484  1.00  0.00     0.089 A 
HETATM    8  C13 UNK     1      20.597  -0.840  29.348  1.00  0.00     0.014 A 
HETATM    9  C14 UNK     1      19.834  -1.921  31.815  1.00  0.00     0.038 A 
HETATM   10  C15 UNK     1      20.911  -2.165  29.666  1.00  0.00     0.001 A 
HETATM   11  C16 UNK     1      20.531  -2.704  30.897  1.00  0.00     0.003 A 
ENDROOT
BRANCH   3  12
HETATM   12  C7  UNK     1      18.565   3.448  30.509  1.00  0.00     0.258 C 
HETATM   13  O1  UNK     1      18.360   3.746  29.338  1.00  0.00    -0.267 OA
HETATM   14  N1  UNK     1      18.543   4.302  31.595  1.00  0.00    -0.352 N 
HETATM   15  H12 UNK     1      18.805   3.954  32.511  1.00  0.00     0.163 HD
BRANCH  14  16
HETATM   16  C1  UNK     1      18.263   5.716  31.474  1.00  0.00     0.084 C 
HETATM   17  C2  UNK     1      17.170   6.146  32.458  1.00  0.00     0.025 C 
HETATM   18  C4  UNK     1      17.659   6.159  33.906  1.00  0.00     0.002 C 
HETATM   19  C6  UNK     1      18.921   7.003  34.068  1.00  0.00     0.000 C 
HETATM   20  C5  UNK     1      20.022   6.559  33.109  1.00  0.00     0.002 C 
HETATM   21  C3  UNK     1      19.537   6.547  31.659  1.00  0.00     0.025 C 
ENDBRANCH  14  16
ENDBRANCH   3  12
TORSDOF 2
ENDMDL
MODEL 2
REMARK VINA RESULT:      -8.6      1.396      2.134
REMARK  2 active torsions:
REMARK  status: ('A' for Active; 'I' for Inactive)
REMARK    1  A    between atoms: C1_5  and  N1_4 
REMARK       I    between atoms: C7_11  and  N1_4 
REMARK    2  A    between atoms: C7_11  and  C8_12 
ROOT
HETATM    1  O2  UNK     1      19.374   0.098  28.674  1.00  0.00    -0.274 OA
HETATM    2  O3  UNK     1      18.358   2.044  28.040  1.00  0.00    -0.259 OA
HETATM    3  C8  UNK     1      18.635   1.700  30.367  1.00  0.00     0.108 A 
HETATM    4  C9  UNK     1      19.081   0.909  31.350  1.00  0.00     0.037 A 
HETATM    5  C10 UNK     1      19.714  -0.363  31.037  1.00  0.00    -0.001 A 
HETATM    6  C11 UNK     1      18.765   1.321  28.942  1.00  0.00     0.304 A 
HETATM    7  C12 UNK     1      19.846  -0.739  29.704  1.00  0.00     0.089 A 
HETATM    8  C13 UNK     1      20.192  -1.221  32.030  1.00  0.00     0.014 A 
HETATM    9  C14 UNK     1      20.442  -1.944  29.337  1.00  0.00     0.038 A 
HETATM   10  C15 UNK     1      20.794  -2.433  31.677  1.00  0.00     0.001 A 
HETATM   11  C16 UNK     1      20.918  -2.793  30.333  1.00  0.00     0.003 A 
ENDROOT
BRANCH   3  12
HETATM   12  C7  UNK     1      18.010   2.969  30.786  1.00  0.00     0.258 C 
HETATM   13  O1  UNK     1      16.827   3.007  31.104  1.00  0.00    -0.267 OA
HETATM   14  N1  UNK     1      18.894   4.029  30.764  1.00  0.00    -0.352 N 
HETATM   15  H12 UNK     1      19.834   3.891  30.408  1.00  0.00     0.163 HD
BRANCH  14  16
HETATM   16  C1  UNK     1      18.512   5.375  31.132  1.00  0.00     0.084 C 
HETATM   17  C2  UNK     1      17.848   5.400  32.513  1.00  0.00     0.025 C 
HETATM   18  C4  UNK     1      18.844   5.157  33.646  1.00  0.00     0.002 C 
HETATM   19  C6  UNK     1      20.025   6.120  33.575  1.00  0.00     0.000 C 
HETATM   20  C5  UNK     1      20.708   6.078  32.210  1.00  0.00     0.002 C 
HETATM   21  C3  UNK     1      19.714   6.324  31.075  1.00  0.00     0.025 C 
ENDBRANCH  14  16
ENDBRANCH   3  12
TORSDOF 2
ENDMDL
MODEL 3
REMARK VINA RESULT:      -8.4      2.860      4.121
REMARK  2 active torsions:
REMARK  status: ('A' for Active; 'I' for Inactive)
REMARK    1  A    between atoms: C1_5  and  N1_4 
REMARK       I    between atoms: C7_11  and  N1_4 
REMARK    2  A    between atoms: C7_11  and  C8_12 
ROOT
HETATM    1  O2  UNK     1      18.770  -0.427  33.970  1.00  0.00    -0.274 OA
HETATM    2  O3  UNK     1      18.992   0.268  31.804  1.00  0.00    -0.259 OA
HETATM    3  C8  UNK     1      18.172   1.863  33.353  1.00  0.00     0.108 A 
HETATM    4  C9  UNK     1      17.828   2.143  34.615  1.00  0.00     0.037 A 
HETATM    5  C10 UNK     1      17.940   1.124  35.648  1.00  0.00    -0.001 A 
HETATM    6  C11 UNK     1      18.675   0.527  32.960  1.00  0.00     0.304 A 
HETATM    7  C12 UNK     1      18.410  -0.139  35.300  1.00  0.00     0.089 A 
HETATM    8  C13 UNK     1      17.591   1.371  36.978  1.00  0.00     0.014 A 
HETATM    9  C14 UNK     1      18.541  -1.158  36.242  1.00  0.00     0.038 A 
HETATM   10  C15 UNK     1      17.717   0.358  37.934  1.00  0.00     0.001 A 
HETATM   11  C16 UNK     1      18.191  -0.903  37.566  1.00  0.00     0.003 A 
ENDROOT
BRANCH   3  12
HETATM   12  C7  UNK     1      18.024   2.961  32.379  1.00  0.00     0.258 C 
HETATM   13  O1  UNK     1      17.621   2.738  31.243  1.00  0.00    -0.267 OA
HETATM   14  N1  UNK     1      18.382   4.187  32.903  1.00  0.00    -0.352 N 
HETATM   15  H12 UNK     1      18.775   4.238  33.837  1.00  0.00     0.163 HD
BRANCH  14  16
HETATM   16  C1  UNK     1      18.324   5.413  32.137  1.00  0.00     0.084 C 
HETATM   17  C2  UNK     1      17.547   6.497  32.893  1.00  0.00     0.025 C 
HETATM   18  C4  UNK     1      18.322   7.043  34.092  1.00  0.00     0.002 C 
HETATM   19  C6  UNK     1      19.713   7.528  33.691  1.00  0.00     0.000 C 
HETATM   20  C5  UNK     1      20.500   6.443  32.963  1.00  0.00     0.002 C 
HETATM   21  C3  UNK     1      19.729   5.895  31.762  1.00  0.00     0.025 C 
ENDBRANCH  14  16
ENDBRANCH   3  12
TORSDOF 2
ENDMDL
MODEL 4
REMARK VINA RESULT:      -7.9      2.756      4.085
REMARK  2 active torsions:
REMARK  status: ('A' for Active; 'I' for Inactive)
REMARK    1  A    between atoms: C1_5  and  N1_4 
REMARK       I    between atoms: C7_11  and  N1_4 
REMARK    2  A    between atoms: C7_11  and  C8_12 
ROOT
HETATM    1  O2  UNK     1      18.278   1.583  32.162  1.00  0.00    -0.274 OA
HETATM    2  O3  UNK     1      18.201   3.082  30.439  1.00  0.00    -0.259 OA
HETATM    3  C8  UNK     1      18.221   3.982  32.631  1.00  0.00     0.108 A 
HETATM    4  C9  UNK     1      18.255   3.754  33.949  1.00  0.00     0.037 A 
HETATM    5  C10 UNK     1      18.303   2.390  34.455  1.00  0.00    -0.001 A 
HETATM    6  C11 UNK     1      18.232   2.876  31.648  1.00  0.00     0.304 A 
HETATM    7  C12 UNK     1      18.314   1.335  33.548  1.00  0.00     0.089 A 
HETATM    8  C13 UNK     1      18.338   2.104  35.822  1.00  0.00     0.014 A 
HETATM    9  C14 UNK     1      18.359   0.007  33.967  1.00  0.00     0.038 A 
HETATM   10  C15 UNK     1      18.385   0.776  36.258  1.00  0.00     0.001 A 
HETATM   11  C16 UNK     1      18.395  -0.270  35.332  1.00  0.00     0.003 A 
ENDROOT
BRANCH   3  12
HETATM   12  C7  UNK     1      18.173   5.397  32.217  1.00  0.00     0.258 C 
HETATM   13  O1  UNK     1      19.163   5.943  31.742  1.00  0.00    -0.267 OA
HETATM   14  N1  UNK     1      16.936   5.972  32.432  1.00  0.00    -0.352 N 
HETATM   15  H12 UNK     1      16.212   5.441  32.904  1.00  0.00     0.163 HD
BRANCH  14  16
HETATM   16  C1  UNK     1      16.647   7.352  32.107  1.00  0.00     0.084 C 
HETATM   17  C2  UNK     1      15.164   7.538  31.771  1.00  0.00     0.025 C 
HETATM   18  C4  UNK     1      14.266   7.427  33.003  1.00  0.00     0.002 C 
HETATM   19  C6  UNK     1      14.711   8.376  34.113  1.00  0.00     0.000 C 
HETATM   20  C5  UNK     1      16.181   8.174  34.471  1.00  0.00     0.002 C 
HETATM   21  C3  UNK     1      17.082   8.286  33.241  1.00  0.00     0.025 C 
ENDBRANCH  14  16
ENDBRANCH   3  12
TORSDOF 2
ENDMDL
MODEL 5
REMARK VINA RESULT:      -7.8      2.871      6.283
REMARK  2 active torsions:
REMARK  status: ('A' for Active; 'I' for Inactive)
REMARK    1  A    between atoms: C1_5  and  N1_4 
REMARK       I    between atoms: C7_11  and  N1_4 
REMARK    2  A    between atoms: C7_11  and  C8_12 
ROOT
HETATM    1  O2  UNK     1      19.065   2.986  29.845  1.00  0.00    -0.274 OA
HETATM    2  O3  UNK     1      19.338   0.718  29.831  1.00  0.00    -0.259 OA
HETATM    3  C8  UNK     1      18.692   1.697  31.889  1.00  0.00     0.108 A 
HETATM    4  C9  UNK     1      18.385   2.809  32.568  1.00  0.00     0.037 A 
HETATM    5  C10 UNK     1      18.402   4.102  31.901  1.00  0.00    -0.001 A 
HETATM    6  C11 UNK     1      19.056   1.735  30.455  1.00  0.00     0.304 A 
HETATM    7  C12 UNK     1      18.742   4.160  30.552  1.00  0.00     0.089 A 
HETATM    8  C13 UNK     1      18.090   5.289  32.568  1.00  0.00     0.014 A 
HETATM    9  C14 UNK     1      18.778   5.367  29.856  1.00  0.00     0.038 A 
HETATM   10  C15 UNK     1      18.121   6.507  31.882  1.00  0.00     0.001 A 
HETATM   11  C16 UNK     1      18.464   6.545  30.529  1.00  0.00     0.003 A 
ENDROOT
BRANCH   3  12
HETATM   12  C7  UNK     1      18.645   0.436  32.652  1.00  0.00     0.258 C 
HETATM   13  O1  UNK     1      19.354  -0.512  32.337  1.00  0.00    -0.267 OA
HETATM   14  N1  UNK     1      17.745   0.482  33.699  1.00  0.00    -0.352 N 
HETATM   15  H12 UNK     1      17.155   1.299  33.817  1.00  0.00     0.163 HD
BRANCH  14  16
HETATM   16  C1  UNK     1      17.521  -0.637  34.589  1.00  0.00     0.084 C 
HETATM   17  C2  UNK     1      18.469  -0.580  35.792  1.00  0.00     0.025 C 
HETATM   18  C4  UNK     1      18.105   0.534  36.772  1.00  0.00     0.002 C 
HETATM   19  C6  UNK     1      16.647   0.444  37.213  1.00  0.00     0.000 C 
HETATM   20  C5  UNK     1      15.697   0.416  36.018  1.00  0.00     0.002 C 
HETATM   21  C3  UNK     1      16.057  -0.699  35.037  1.00  0.00     0.025 C 
ENDBRANCH  14  16
ENDBRANCH   3  12
TORSDOF 2
ENDMDL
MODEL 6
REMARK VINA RESULT:      -7.8      1.785      2.675
REMARK  2 active torsions:
REMARK  status: ('A' for Active; 'I' for Inactive)
REMARK    1  A    between atoms: C1_5  and  N1_4 
REMARK       I    between atoms: C7_11  and  N1_4 
REMARK    2  A    between atoms: C7_11  and  C8_12 
ROOT
HETATM    1  O2  UNK     1      20.546  -1.012  30.751  1.00  0.00    -0.274 OA
HETATM    2  O3  UNK     1      20.284   0.463  29.025  1.00  0.00    -0.259 OA
HETATM    3  C8  UNK     1      19.094   0.937  31.018  1.00  0.00     0.108 A 
HETATM    4  C9  UNK     1      18.796   0.578  32.272  1.00  0.00     0.037 A 
HETATM    5  C10 UNK     1      19.374  -0.628  32.846  1.00  0.00    -0.001 A 
HETATM    6  C11 UNK     1      20.009   0.137  30.175  1.00  0.00     0.304 A 
HETATM    7  C12 UNK     1      20.238  -1.395  32.070  1.00  0.00     0.089 A 
HETATM    8  C13 UNK     1      19.091  -1.042  34.149  1.00  0.00     0.014 A 
HETATM    9  C14 UNK     1      20.824  -2.560  32.560  1.00  0.00     0.038 A 
HETATM   10  C15 UNK     1      19.673  -2.208  34.655  1.00  0.00     0.001 A 
HETATM   11  C16 UNK     1      20.538  -2.966  33.861  1.00  0.00     0.003 A 
ENDROOT
BRANCH   3  12
HETATM   12  C7  UNK     1      18.459   2.175  30.527  1.00  0.00     0.258 C 
HETATM   13  O1  UNK     1      17.480   2.125  29.790  1.00  0.00    -0.267 OA
HETATM   14  N1  UNK     1      19.088   3.314  30.989  1.00  0.00    -0.352 N 
HETATM   15  H12 UNK     1      19.939   3.230  31.535  1.00  0.00     0.163 HD
BRANCH  14  16
HETATM   16  C1  UNK     1      18.648   4.647  30.642  1.00  0.00     0.084 C 
HETATM   17  C2  UNK     1      17.881   5.293  31.801  1.00  0.00     0.025 C 
HETATM   18  C4  UNK     1      18.795   5.678  32.964  1.00  0.00     0.002 C 
HETATM   19  C6  UNK     1      19.955   6.556  32.503  1.00  0.00     0.000 C 
HETATM   20  C5  UNK     1      20.739   5.904  31.368  1.00  0.00     0.002 C 
HETATM   21  C3  UNK     1      19.829   5.519  30.202  1.00  0.00     0.025 C 
ENDBRANCH  14  16
ENDBRANCH   3  12
TORSDOF 2
ENDMDL
MODEL 7
REMARK VINA RESULT:      -7.8     22.938     24.497
REMARK  2 active torsions:
REMARK  status: ('A' for Active; 'I' for Inactive)
REMARK    1  A    between atoms: C1_5  and  N1_4 
REMARK       I    between atoms: C7_11  and  N1_4 
REMARK    2  A    between atoms: C7_11  and  C8_12 
ROOT
HETATM    1  O2  UNK     1      14.083   5.046   8.994  1.00  0.00    -0.274 OA
HETATM    2  O3  UNK     1      12.184   4.031   8.229  1.00  0.00    -0.259 OA
HETATM    3  C8  UNK     1      12.198   6.400   8.223  1.00  0.00     0.108 A 
HETATM    4  C9  UNK     1      12.865   7.529   8.487  1.00  0.00     0.037 A 
HETATM    5  C10 UNK     1      14.213   7.473   9.033  1.00  0.00    -0.001 A 
HETATM    6  C11 UNK     1      12.793   5.067   8.470  1.00  0.00     0.304 A 
HETATM    7  C12 UNK     1      14.791   6.231   9.274  1.00  0.00     0.089 A 
HETATM    8  C13 UNK     1      14.946   8.626   9.326  1.00  0.00     0.014 A 
HETATM    9  C14 UNK     1      16.077   6.109   9.796  1.00  0.00     0.038 A 
HETATM   10  C15 UNK     1      16.238   8.519   9.849  1.00  0.00     0.001 A 
HETATM   11  C16 UNK     1      16.802   7.263  10.083  1.00  0.00     0.003 A 
ENDROOT
BRANCH   3  12
HETATM   12  C7  UNK     1      10.840   6.560   7.671  1.00  0.00     0.258 C 
HETATM   13  O1  UNK     1      10.673   7.021   6.547  1.00  0.00    -0.267 OA
HETATM   14  N1  UNK     1       9.858   6.146   8.548  1.00  0.00    -0.352 N 
HETATM   15  H12 UNK     1      10.114   5.852   9.485  1.00  0.00     0.163 HD
BRANCH  14  16
HETATM   16  C1  UNK     1       8.447   6.209   8.232  1.00  0.00     0.084 C 
HETATM   17  C2  UNK     1       7.678   5.075   8.920  1.00  0.00     0.025 C 
HETATM   18  C4  UNK     1       7.557   5.283  10.429  1.00  0.00     0.002 C 
HETATM   19  C6  UNK     1       6.961   6.648  10.764  1.00  0.00     0.000 C 
HETATM   20  C5  UNK     1       7.741   7.782  10.104  1.00  0.00     0.002 C 
HETATM   21  C3  UNK     1       7.863   7.578   8.594  1.00  0.00     0.025 C 
ENDBRANCH  14  16
ENDBRANCH   3  12
TORSDOF 2
ENDMDL
MODEL 8
REMARK VINA RESULT:      -7.8     22.857     24.448
REMARK  2 active torsions:
REMARK  status: ('A' for Active; 'I' for Inactive)
REMARK    1  A    between atoms: C1_5  and  N1_4 
REMARK       I    between atoms: C7_11  and  N1_4 
REMARK    2  A    between atoms: C7_11  and  C8_12 
ROOT
HETATM    1  O2  UNK     1      11.948   6.736   6.406  1.00  0.00    -0.274 OA
HETATM    2  O3  UNK     1      14.205   6.943   6.698  1.00  0.00    -0.259 OA
HETATM    3  C8  UNK     1      12.944   6.285   8.593  1.00  0.00     0.108 A 
HETATM    4  C9  UNK     1      11.744   5.996   9.111  1.00  0.00     0.037 A 
HETATM    5  C10 UNK     1      10.552   6.065   8.280  1.00  0.00    -0.001 A 
HETATM    6  C11 UNK     1      13.107   6.678   7.176  1.00  0.00     0.304 A 
HETATM    7  C12 UNK     1      10.683   6.433   6.944  1.00  0.00     0.089 A 
HETATM    8  C13 UNK     1       9.280   5.774   8.778  1.00  0.00     0.014 A 
HETATM    9  C14 UNK     1       9.581   6.518   6.096  1.00  0.00     0.038 A 
HETATM   10  C15 UNK     1       8.165   5.854   7.938  1.00  0.00     0.001 A 
HETATM   11  C16 UNK     1       8.316   6.225   6.599  1.00  0.00     0.003 A 
ENDROOT
BRANCH   3  12
HETATM   12  C7  UNK     1      14.091   6.186   9.515  1.00  0.00     0.258 C 
HETATM   13  O1  UNK     1      14.422   5.104   9.987  1.00  0.00    -0.267 OA
HETATM   14  N1  UNK     1      14.691   7.407   9.749  1.00  0.00    -0.352 N 
HETATM   15  H12 UNK     1      14.281   8.250   9.361  1.00  0.00     0.163 HD
BRANCH  14  16
HETATM   16  C1  UNK     1      15.834   7.564  10.622  1.00  0.00     0.084 C 
HETATM   17  C2  UNK     1      17.054   8.072   9.845  1.00  0.00     0.025 C 
HETATM   18  C4  UNK     1      16.914   9.536   9.429  1.00  0.00     0.002 C 
HETATM   19  C6  UNK     1      16.598  10.433  10.622  1.00  0.00     0.000 C 
HETATM   20  C5  UNK     1      15.367   9.948  11.383  1.00  0.00     0.002 C 
HETATM   21  C3  UNK     1      15.504   8.484  11.802  1.00  0.00     0.025 C 
ENDBRANCH  14  16
ENDBRANCH   3  12
TORSDOF 2
ENDMDL
MODEL 9
REMARK VINA RESULT:      -7.8      1.521      1.996
REMARK  2 active torsions:
REMARK  status: ('A' for Active; 'I' for Inactive)
REMARK    1  A    between atoms: C1_5  and  N1_4 
REMARK       I    between atoms: C7_11  and  N1_4 
REMARK    2  A    between atoms: C7_11  and  C8_12 
ROOT
HETATM    1  O2  UNK     1      19.173  -1.020  32.781  1.00  0.00    -0.274 OA
HETATM    2  O3  UNK     1      18.238   0.049  34.571  1.00  0.00    -0.259 OA
HETATM    3  C8  UNK     1      18.581   1.347  32.619  1.00  0.00     0.108 A 
HETATM    4  C9  UNK     1      19.019   1.399  31.355  1.00  0.00     0.037 A 
HETATM    5  C10 UNK     1      19.572   0.211  30.723  1.00  0.00    -0.001 A 
HETATM    6  C11 UNK     1      18.639   0.099  33.413  1.00  0.00     0.304 A 
HETATM    7  C12 UNK     1      19.636  -0.973  31.452  1.00  0.00     0.089 A 
HETATM    8  C13 UNK     1      20.042   0.218  29.408  1.00  0.00     0.014 A 
HETATM    9  C14 UNK     1      20.154  -2.145  30.904  1.00  0.00     0.038 A 
HETATM   10  C15 UNK     1      20.564  -0.951  28.844  1.00  0.00     0.001 A 
HETATM   11  C16 UNK     1      20.620  -2.129  29.592  1.00  0.00     0.003 A 
ENDROOT
BRANCH   3  12
HETATM   12  C7  UNK     1      18.037   2.602  33.171  1.00  0.00     0.258 C 
HETATM   13  O1  UNK     1      17.536   2.628  34.289  1.00  0.00    -0.267 OA
HETATM   14  N1  UNK     1      18.169   3.666  32.300  1.00  0.00    -0.352 N 
HETATM   15  H12 UNK     1      18.534   3.507  31.367  1.00  0.00     0.163 HD
BRANCH  14  16
HETATM   16  C1  UNK     1      17.707   5.000  32.618  1.00  0.00     0.084 C 
HETATM   17  C2  UNK     1      18.256   5.463  33.972  1.00  0.00     0.025 C 
HETATM   18  C4  UNK     1      19.751   5.773  33.922  1.00  0.00     0.002 C 
HETATM   19  C6  UNK     1      20.085   6.767  32.813  1.00  0.00     0.000 C 
HETATM   20  C5  UNK     1      19.566   6.296  31.458  1.00  0.00     0.002 C 
HETATM   21  C3  UNK     1      18.069   5.987  31.504  1.00  0.00     0.025 C 
ENDBRANCH  14  16
ENDBRANCH   3  12
TORSDOF 2
ENDMDL
MODEL 10
REMARK VINA RESULT:      -7.7      5.904     10.067
REMARK  2 active torsions:
REMARK  status: ('A' for Active; 'I' for Inactive)
REMARK    1  A    between atoms: C1_5  and  N1_4 
REMARK       I    between atoms: C7_11  and  N1_4 
REMARK    2  A    between atoms: C7_11  and  C8_12 
ROOT
HETATM    1  O2  UNK     1      19.383  -0.769  34.659  1.00  0.00    -0.274 OA
HETATM    2  O3  UNK     1      20.660  -2.516  33.925  1.00  0.00    -0.259 OA
HETATM    3  C8  UNK     1      19.794  -2.684  36.124  1.00  0.00     0.108 A 
HETATM    4  C9  UNK     1      19.064  -2.130  37.099  1.00  0.00     0.037 A 
HETATM    5  C10 UNK     1      18.439  -0.831  36.899  1.00  0.00    -0.001 A 
HETATM    6  C11 UNK     1      19.992  -2.011  34.821  1.00  0.00     0.304 A 
HETATM    7  C12 UNK     1      18.613  -0.181  35.681  1.00  0.00     0.089 A 
HETATM    8  C13 UNK     1      17.670  -0.215  37.889  1.00  0.00     0.014 A 
HETATM    9  C14 UNK     1      18.041   1.064  35.426  1.00  0.00     0.038 A 
HETATM   10  C15 UNK     1      17.089   1.034  37.647  1.00  0.00     0.001 A 
HETATM   11  C16 UNK     1      17.275   1.672  36.418  1.00  0.00     0.003 A 
ENDROOT
BRANCH   3  12
HETATM   12  C7  UNK     1      20.385  -4.001  36.422  1.00  0.00     0.258 C 
HETATM   13  O1  UNK     1      21.273  -4.112  37.260  1.00  0.00    -0.267 OA
HETATM   14  N1  UNK     1      19.829  -5.017  35.669  1.00  0.00    -0.352 N 
HETATM   15  H12 UNK     1      19.151  -4.792  34.949  1.00  0.00     0.163 HD
BRANCH  14  16
HETATM   16  C1  UNK     1      20.249  -6.396  35.783  1.00  0.00     0.084 C 
HETATM   17  C2  UNK     1      20.181  -6.873  37.238  1.00  0.00     0.025 C 
HETATM   18  C4  UNK     1      18.745  -7.056  37.727  1.00  0.00     0.002 C 
HETATM   19  C6  UNK     1      17.946  -7.970  36.802  1.00  0.00     0.000 C 
HETATM   20  C5  UNK     1      17.987  -7.483  35.356  1.00  0.00     0.002 C 
HETATM   21  C3  UNK     1      19.423  -7.301  34.863  1.00  0.00     0.025 C 
ENDBRANCH  14  16
ENDBRANCH   3  12
TORSDOF 2
ENDMDL
