MODEL 1
REMARK VINA RESULT:      -7.4      0.000      0.000
REMARK  5 active torsions:
REMARK  status: ('A' for Active; 'I' for Inactive)
REMARK    1  A    between atoms: C12_19  and  O3_4 
REMARK    2  A    between atoms: C20_27  and  O3_4 
REMARK    3  A    between atoms: C7_14  and  N1_7 
REMARK    4  A    between atoms: C1_8  and  C5_12 
REMARK    5  A    between atoms: C12_19  and  C3_10 
ROOT
HETATM    1  O1  UNK     1      30.338  -5.843  33.651  1.00  0.00    -0.292 OA
HETATM    2  O2  UNK     1      29.154  -9.651  32.383  1.00  0.00    -0.274 OA
HETATM    3  O4  UNK     1      30.568 -10.600  33.900  1.00  0.00    -0.259 OA
HETATM    4  C1  UNK     1      31.448  -8.102  35.032  1.00  0.00     0.104 C 
HETATM    5  C2  UNK     1      30.467  -8.225  33.881  1.00  0.00     0.066 A 
HETATM    6  C3  UNK     1      31.944  -6.675  35.200  1.00  0.00     0.081 C 
HETATM    7  C4  UNK     1      29.976  -7.127  33.284  1.00  0.00     0.104 A 
HETATM    8  C6  UNK     1      29.006  -7.230  32.196  1.00  0.00     0.033 A 
HETATM    9  C7  UNK     1      31.392  -5.634  34.542  1.00  0.00     0.155 C 
HETATM   10  C8  UNK     1      30.089  -9.582  33.411  1.00  0.00     0.298 A 
HETATM   11  C9  UNK     1      28.617  -8.499  31.779  1.00  0.00     0.092 A 
HETATM   12  C13 UNK     1      28.443  -6.122  31.553  1.00  0.00     0.017 A 
HETATM   13  C14 UNK     1      27.692  -8.692  30.752  1.00  0.00     0.038 A 
HETATM   14  C17 UNK     1      27.514  -6.297  30.521  1.00  0.00     0.001 A 
HETATM   15  C19 UNK     1      27.140  -7.581  30.122  1.00  0.00     0.003 A 
ENDROOT
BRANCH   4  16
HETATM   16  C5  UNK     1      30.821  -8.586  36.307  1.00  0.00    -0.043 A 
HETATM   17  C10 UNK     1      29.594  -8.070  36.711  1.00  0.00     0.027 A 
HETATM   18  C15 UNK     1      29.011  -8.521  37.894  1.00  0.00     0.011 A 
HETATM   19 Br1  UNK     1      27.345  -7.825  38.453  1.00  0.00    -0.051 Br
HETATM   20  C18 UNK     1      29.657  -9.487  38.666  1.00  0.00     0.019 A 
HETATM   21  C16 UNK     1      30.886 -10.000  38.255  1.00  0.00     0.002 A 
HETATM   22  C11 UNK     1      31.470  -9.549  37.071  1.00  0.00     0.008 A 
ENDBRANCH   4  16
BRANCH   6  23
HETATM   23  C12 UNK     1      33.091  -6.483  36.105  1.00  0.00     0.294 C 
HETATM   24  O5  UNK     1      34.110  -7.142  36.040  1.00  0.00    -0.259 OA
BRANCH  23  25
HETATM   25  O3  UNK     1      32.791  -5.481  36.966  1.00  0.00    -0.318 OA
BRANCH  25  26
HETATM   26  C20 UNK     1      32.264  -5.905  38.227  1.00  0.00     0.174 C 
HETATM   27  C21 UNK     1      30.962  -5.177  38.486  1.00  0.00     0.034 C 
ENDBRANCH  25  26
ENDBRANCH  23  25
ENDBRANCH   6  23
BRANCH   9  28
HETATM   28  N1  UNK     1      31.763  -4.323  34.643  1.00  0.00    -0.379 N 
HETATM   29  H7  UNK     1      31.906  -3.924  35.562  1.00  0.00     0.158 HD
HETATM   30  H8  UNK     1      31.892  -3.758  33.814  1.00  0.00     0.158 HD
ENDBRANCH   9  28
TORSDOF 5
ENDMDL
MODEL 2
REMARK VINA RESULT:      -7.3      4.848      8.032
REMARK  5 active torsions:
REMARK  status: ('A' for Active; 'I' for Inactive)
REMARK    1  A    between atoms: C12_19  and  O3_4 
REMARK    2  A    between atoms: C20_27  and  O3_4 
REMARK    3  A    between atoms: C7_14  and  N1_7 
REMARK    4  A    between atoms: C1_8  and  C5_12 
REMARK    5  A    between atoms: C12_19  and  C3_10 
ROOT
HETATM    1  O1  UNK     1      33.134 -11.286  30.915  1.00  0.00    -0.292 OA
HETATM    2  O2  UNK     1      35.932  -8.177  31.068  1.00  0.00    -0.274 OA
HETATM    3  O4  UNK     1      34.604  -6.910  29.715  1.00  0.00    -0.259 OA
HETATM    4  C1  UNK     1      32.475  -8.844  29.556  1.00  0.00     0.104 C 
HETATM    5  C2  UNK     1      33.772  -9.055  30.315  1.00  0.00     0.066 A 
HETATM    6  C3  UNK     1      31.694 -10.139  29.404  1.00  0.00     0.081 C 
HETATM    7  C4  UNK     1      34.016 -10.219  30.939  1.00  0.00     0.104 A 
HETATM    8  C6  UNK     1      35.245 -10.423  31.700  1.00  0.00     0.033 A 
HETATM    9  C7  UNK     1      32.026 -11.267  30.066  1.00  0.00     0.155 C 
HETATM   10  C8  UNK     1      34.776  -7.961  30.326  1.00  0.00     0.298 A 
HETATM   11  C9  UNK     1      36.171  -9.387  31.747  1.00  0.00     0.092 A 
HETATM   12  C13 UNK     1      35.541 -11.605  32.390  1.00  0.00     0.017 A 
HETATM   13  C14 UNK     1      37.369  -9.493  32.455  1.00  0.00     0.038 A 
HETATM   14  C17 UNK     1      36.738 -11.729  33.104  1.00  0.00     0.001 A 
HETATM   15  C19 UNK     1      37.650 -10.673  33.137  1.00  0.00     0.003 A 
ENDROOT
BRANCH   4  16
HETATM   16  C5  UNK     1      31.633  -7.807  30.240  1.00  0.00    -0.043 A 
HETATM   17  C10 UNK     1      31.324  -7.950  31.588  1.00  0.00     0.027 A 
HETATM   18  C15 UNK     1      30.542  -6.987  32.224  1.00  0.00     0.011 A 
HETATM   19 Br1  UNK     1      30.115  -7.172  34.056  1.00  0.00    -0.051 Br
HETATM   20  C18 UNK     1      30.075  -5.884  31.508  1.00  0.00     0.019 A 
HETATM   21  C16 UNK     1      30.388  -5.747  30.156  1.00  0.00     0.002 A 
HETATM   22  C11 UNK     1      31.170  -6.711  29.520  1.00  0.00     0.008 A 
ENDBRANCH   4  16
BRANCH   6  23
HETATM   23  C12 UNK     1      30.559 -10.113  28.465  1.00  0.00     0.294 C 
HETATM   24  O5  UNK     1      30.684  -9.909  27.273  1.00  0.00    -0.259 OA
BRANCH  23  25
HETATM   25  O3  UNK     1      29.423 -10.351  29.162  1.00  0.00    -0.318 OA
BRANCH  25  26
HETATM   26  C20 UNK     1      28.348  -9.444  28.895  1.00  0.00     0.174 C 
HETATM   27  C21 UNK     1      27.928  -8.783  30.191  1.00  0.00     0.034 C 
ENDBRANCH  25  26
ENDBRANCH  23  25
ENDBRANCH   6  23
BRANCH   9  28
HETATM   28  N1  UNK     1      31.375 -12.466  30.002  1.00  0.00    -0.379 N 
HETATM   29  H7  UNK     1      30.387 -12.500  30.220  1.00  0.00     0.158 HD
HETATM   30  H8  UNK     1      31.870 -13.309  29.740  1.00  0.00     0.158 HD
ENDBRANCH   9  28
TORSDOF 5
ENDMDL
MODEL 3
REMARK VINA RESULT:      -7.2      1.484      2.203
REMARK  5 active torsions:
REMARK  status: ('A' for Active; 'I' for Inactive)
REMARK    1  A    between atoms: C12_19  and  O3_4 
REMARK    2  A    between atoms: C20_27  and  O3_4 
REMARK    3  A    between atoms: C7_14  and  N1_7 
REMARK    4  A    between atoms: C1_8  and  C5_12 
REMARK    5  A    between atoms: C12_19  and  C3_10 
ROOT
HETATM    1  O1  UNK     1      30.382  -5.543  34.203  1.00  0.00    -0.292 OA
HETATM    2  O2  UNK     1      28.373  -9.052  33.125  1.00  0.00    -0.274 OA
HETATM    3  O4  UNK     1      28.955 -10.002  35.114  1.00  0.00    -0.259 OA
HETATM    4  C1  UNK     1      30.290  -7.664  36.137  1.00  0.00     0.104 C 
HETATM    5  C2  UNK     1      29.653  -7.756  34.763  1.00  0.00     0.066 A 
HETATM    6  C3  UNK     1      31.169  -6.431  36.269  1.00  0.00     0.081 C 
HETATM    7  C4  UNK     1      29.723  -6.724  33.908  1.00  0.00     0.104 A 
HETATM    8  C6  UNK     1      29.086  -6.788  32.595  1.00  0.00     0.033 A 
HETATM    9  C7  UNK     1      31.181  -5.447  35.345  1.00  0.00     0.155 C 
HETATM   10  C8  UNK     1      28.981  -9.023  34.375  1.00  0.00     0.298 A 
HETATM   11  C9  UNK     1      28.421  -7.957  32.242  1.00  0.00     0.092 A 
HETATM   12  C13 UNK     1      29.105  -5.734  31.673  1.00  0.00     0.017 A 
HETATM   13  C14 UNK     1      27.779  -8.104  31.010  1.00  0.00     0.038 A 
HETATM   14  C17 UNK     1      28.468  -5.865  30.434  1.00  0.00     0.001 A 
HETATM   15  C19 UNK     1      27.806  -7.048  30.104  1.00  0.00     0.003 A 
ENDROOT
BRANCH   4  16
HETATM   16  C5  UNK     1      29.233  -7.663  37.203  1.00  0.00    -0.043 A 
HETATM   17  C10 UNK     1      29.127  -8.745  38.070  1.00  0.00     0.027 A 
HETATM   18  C15 UNK     1      28.146  -8.743  39.061  1.00  0.00     0.011 A 
HETATM   19 Br1  UNK     1      27.993 -10.209  40.243  1.00  0.00    -0.051 Br
HETATM   20  C18 UNK     1      27.278  -7.658  39.180  1.00  0.00     0.019 A 
HETATM   21  C16 UNK     1      27.390  -6.576  38.307  1.00  0.00     0.002 A 
HETATM   22  C11 UNK     1      28.371  -6.578  37.316  1.00  0.00     0.008 A 
ENDBRANCH   4  16
BRANCH   6  23
HETATM   23  C12 UNK     1      32.043  -6.372  37.454  1.00  0.00     0.294 C 
HETATM   24  O5  UNK     1      31.824  -5.654  38.409  1.00  0.00    -0.259 OA
BRANCH  23  25
HETATM   25  O3  UNK     1      33.073  -7.232  37.267  1.00  0.00    -0.318 OA
BRANCH  25  26
HETATM   26  C20 UNK     1      34.356  -6.735  37.661  1.00  0.00     0.174 C 
HETATM   27  C21 UNK     1      34.969  -5.980  36.500  1.00  0.00     0.034 C 
ENDBRANCH  25  26
ENDBRANCH  23  25
ENDBRANCH   6  23
BRANCH   9  28
HETATM   28  N1  UNK     1      31.924  -4.302  35.388  1.00  0.00    -0.379 N 
HETATM   29  H7  UNK     1      31.576  -3.474  34.921  1.00  0.00     0.158 HD
HETATM   30  H8  UNK     1      32.809  -4.280  35.878  1.00  0.00     0.158 HD
ENDBRANCH   9  28
TORSDOF 5
ENDMDL
MODEL 4
REMARK VINA RESULT:      -7.1      2.944      4.565
REMARK  5 active torsions:
REMARK  status: ('A' for Active; 'I' for Inactive)
REMARK    1  A    between atoms: C12_19  and  O3_4 
REMARK    2  A    between atoms: C20_27  and  O3_4 
REMARK    3  A    between atoms: C7_14  and  N1_7 
REMARK    4  A    between atoms: C1_8  and  C5_12 
REMARK    5  A    between atoms: C12_19  and  C3_10 
ROOT
HETATM    1  O1  UNK     1      30.191  -8.853  33.741  1.00  0.00    -0.292 OA
HETATM    2  O2  UNK     1      30.059  -6.021  30.663  1.00  0.00    -0.274 OA
HETATM    3  O4  UNK     1      30.387  -4.351  32.180  1.00  0.00    -0.259 OA
HETATM    4  C1  UNK     1      30.643  -6.107  34.449  1.00  0.00     0.104 C 
HETATM    5  C2  UNK     1      30.362  -6.571  33.031  1.00  0.00     0.066 A 
HETATM    6  C3  UNK     1      30.421  -7.220  35.460  1.00  0.00     0.081 C 
HETATM    7  C4  UNK     1      30.170  -7.872  32.765  1.00  0.00     0.104 A 
HETATM    8  C6  UNK     1      29.931  -8.336  31.401  1.00  0.00     0.033 A 
HETATM    9  C7  UNK     1      30.221  -8.503  35.093  1.00  0.00     0.155 C 
HETATM   10  C8  UNK     1      30.274  -5.552  31.955  1.00  0.00     0.298 A 
HETATM   11  C9  UNK     1      29.887  -7.390  30.382  1.00  0.00     0.092 A 
HETATM   12  C13 UNK     1      29.748  -9.681  31.060  1.00  0.00     0.017 A 
HETATM   13  C14 UNK     1      29.671  -7.743  29.049  1.00  0.00     0.038 A 
HETATM   14  C17 UNK     1      29.529 -10.053  29.730  1.00  0.00     0.001 A 
HETATM   15  C19 UNK     1      29.491  -9.084  28.725  1.00  0.00     0.003 A 
ENDROOT
BRANCH   4  16
HETATM   16  C5  UNK     1      32.045  -5.580  34.557  1.00  0.00    -0.043 A 
HETATM   17  C10 UNK     1      33.101  -6.318  34.035  1.00  0.00     0.027 A 
HETATM   18  C15 UNK     1      34.403  -5.828  34.135  1.00  0.00     0.011 A 
HETATM   19 Br1  UNK     1      35.846  -6.823  33.429  1.00  0.00    -0.051 Br
HETATM   20  C18 UNK     1      34.640  -4.601  34.756  1.00  0.00     0.019 A 
HETATM   21  C16 UNK     1      33.575  -3.867  35.278  1.00  0.00     0.002 A 
HETATM   22  C11 UNK     1      32.274  -4.357  35.178  1.00  0.00     0.008 A 
ENDBRANCH   4  16
BRANCH   6  23
HETATM   23  C12 UNK     1      30.404  -6.822  36.879  1.00  0.00     0.294 C 
HETATM   24  O5  UNK     1      29.630  -6.002  37.332  1.00  0.00    -0.259 OA
BRANCH  23  25
HETATM   25  O3  UNK     1      31.367  -7.518  37.528  1.00  0.00    -0.318 OA
BRANCH  25  26
HETATM   26  C20 UNK     1      32.393  -6.718  38.125  1.00  0.00     0.174 C 
HETATM   27  C21 UNK     1      33.739  -7.169  37.598  1.00  0.00     0.034 C 
ENDBRANCH  25  26
ENDBRANCH  23  25
ENDBRANCH   6  23
BRANCH   9  28
HETATM   28  N1  UNK     1      30.028  -9.565  35.930  1.00  0.00    -0.379 N 
HETATM   29  H7  UNK     1      30.249  -9.461  36.913  1.00  0.00     0.158 HD
HETATM   30  H8  UNK     1      29.671 -10.443  35.576  1.00  0.00     0.158 HD
ENDBRANCH   9  28
TORSDOF 5
ENDMDL
MODEL 5
REMARK VINA RESULT:      -7.1      3.096      5.496
REMARK  5 active torsions:
REMARK  status: ('A' for Active; 'I' for Inactive)
REMARK    1  A    between atoms: C12_19  and  O3_4 
REMARK    2  A    between atoms: C20_27  and  O3_4 
REMARK    3  A    between atoms: C7_14  and  N1_7 
REMARK    4  A    between atoms: C1_8  and  C5_12 
REMARK    5  A    between atoms: C12_19  and  C3_10 
ROOT
HETATM    1  O1  UNK     1      30.909  -7.209  38.146  1.00  0.00    -0.292 OA
HETATM    2  O2  UNK     1      27.412  -8.127  36.036  1.00  0.00    -0.274 OA
HETATM    3  O4  UNK     1      27.989  -6.627  34.419  1.00  0.00    -0.259 OA
HETATM    4  C1  UNK     1      30.513  -5.916  35.612  1.00  0.00     0.104 C 
HETATM    5  C2  UNK     1      29.527  -6.902  36.212  1.00  0.00     0.066 A 
HETATM    6  C3  UNK     1      31.593  -5.525  36.607  1.00  0.00     0.081 C 
HETATM    7  C4  UNK     1      29.776  -7.481  37.397  1.00  0.00     0.104 A 
HETATM    8  C6  UNK     1      28.851  -8.455  37.970  1.00  0.00     0.033 A 
HETATM    9  C7  UNK     1      31.758  -6.160  37.786  1.00  0.00     0.155 C 
HETATM   10  C8  UNK     1      28.269  -7.186  35.475  1.00  0.00     0.298 A 
HETATM   11  C9  UNK     1      27.691  -8.755  37.265  1.00  0.00     0.092 A 
HETATM   12  C13 UNK     1      29.071  -9.107  39.189  1.00  0.00     0.017 A 
HETATM   13  C14 UNK     1      26.754  -9.678  37.734  1.00  0.00     0.038 A 
HETATM   14  C17 UNK     1      28.142 -10.034  39.675  1.00  0.00     0.001 A 
HETATM   15  C19 UNK     1      26.986 -10.319  38.947  1.00  0.00     0.003 A 
ENDROOT
BRANCH   4  16
HETATM   16  C5  UNK     1      31.134  -6.489  34.372  1.00  0.00    -0.043 A 
HETATM   17  C10 UNK     1      31.890  -7.654  34.454  1.00  0.00     0.027 A 
HETATM   18  C15 UNK     1      32.465  -8.186  33.301  1.00  0.00     0.011 A 
HETATM   19 Br1  UNK     1      33.495  -9.768  33.401  1.00  0.00    -0.051 Br
HETATM   20  C18 UNK     1      32.281  -7.552  32.072  1.00  0.00     0.019 A 
HETATM   21  C16 UNK     1      31.522  -6.384  31.997  1.00  0.00     0.002 A 
HETATM   22  C11 UNK     1      30.947  -5.851  33.150  1.00  0.00     0.008 A 
ENDBRANCH   4  16
BRANCH   6  23
HETATM   23  C12 UNK     1      32.446  -4.382  36.232  1.00  0.00     0.294 C 
HETATM   24  O5  UNK     1      32.039  -3.238  36.170  1.00  0.00    -0.259 OA
BRANCH  23  25
HETATM   25  O3  UNK     1      33.695  -4.845  35.990  1.00  0.00    -0.318 OA
BRANCH  25  26
HETATM   26  C20 UNK     1      34.268  -4.420  34.749  1.00  0.00     0.174 C 
HETATM   27  C21 UNK     1      34.974  -5.594  34.106  1.00  0.00     0.034 C 
ENDBRANCH  25  26
ENDBRANCH  23  25
ENDBRANCH   6  23
BRANCH   9  28
HETATM   28  N1  UNK     1      32.706  -5.886  38.729  1.00  0.00    -0.379 N 
HETATM   29  H7  UNK     1      33.181  -4.992  38.701  1.00  0.00     0.158 HD
HETATM   30  H8  UNK     1      32.932  -6.563  39.446  1.00  0.00     0.158 HD
ENDBRANCH   9  28
TORSDOF 5
ENDMDL
MODEL 6
REMARK VINA RESULT:      -7.1      2.946      5.767
REMARK  5 active torsions:
REMARK  status: ('A' for Active; 'I' for Inactive)
REMARK    1  A    between atoms: C12_19  and  O3_4 
REMARK    2  A    between atoms: C20_27  and  O3_4 
REMARK    3  A    between atoms: C7_14  and  N1_7 
REMARK    4  A    between atoms: C1_8  and  C5_12 
REMARK    5  A    between atoms: C12_19  and  C3_10 
ROOT
HETATM    1  O1  UNK     1      27.988  -7.035  35.474  1.00  0.00    -0.292 OA
HETATM    2  O2  UNK     1      30.084  -9.677  37.952  1.00  0.00    -0.274 OA
HETATM    3  O4  UNK     1      31.884  -9.565  36.556  1.00  0.00    -0.259 OA
HETATM    4  C1  UNK     1      30.703  -7.643  34.765  1.00  0.00     0.104 C 
HETATM    5  C2  UNK     1      30.004  -8.228  35.979  1.00  0.00     0.066 A 
HETATM    6  C3  UNK     1      29.733  -6.903  33.858  1.00  0.00     0.081 C 
HETATM    7  C4  UNK     1      28.735  -7.894  36.261  1.00  0.00     0.104 A 
HETATM    8  C6  UNK     1      28.062  -8.424  37.444  1.00  0.00     0.033 A 
HETATM    9  C7  UNK     1      28.465  -6.625  34.227  1.00  0.00     0.155 C 
HETATM   10  C8  UNK     1      30.744  -9.198  36.826  1.00  0.00     0.298 A 
HETATM   11  C9  UNK     1      28.763  -9.302  38.263  1.00  0.00     0.092 A 
HETATM   12  C13 UNK     1      26.749  -8.093  37.801  1.00  0.00     0.017 A 
HETATM   13  C14 UNK     1      28.201  -9.852  39.417  1.00  0.00     0.038 A 
HETATM   14  C17 UNK     1      26.170  -8.636  38.953  1.00  0.00     0.001 A 
HETATM   15  C19 UNK     1      26.895  -9.514  39.760  1.00  0.00     0.003 A 
ENDROOT
BRANCH   4  16
HETATM   16  C5  UNK     1      31.814  -6.729  35.192  1.00  0.00    -0.043 A 
HETATM   17  C10 UNK     1      33.130  -7.049  34.878  1.00  0.00     0.027 A 
HETATM   18  C15 UNK     1      34.161  -6.198  35.274  1.00  0.00     0.011 A 
HETATM   19 Br1  UNK     1      35.954  -6.624  34.854  1.00  0.00    -0.051 Br
HETATM   20  C18 UNK     1      33.870  -5.030  35.980  1.00  0.00     0.019 A 
HETATM   21  C16 UNK     1      32.547  -4.716  36.292  1.00  0.00     0.002 A 
HETATM   22  C11 UNK     1      31.516  -5.567  35.896  1.00  0.00     0.008 A 
ENDBRANCH   4  16
BRANCH   6  23
HETATM   23  C12 UNK     1      30.239  -6.525  32.527  1.00  0.00     0.294 C 
HETATM   24  O5  UNK     1      30.594  -7.334  31.693  1.00  0.00    -0.259 OA
BRANCH  23  25
HETATM   25  O3  UNK     1      30.225  -5.173  32.434  1.00  0.00    -0.318 OA
BRANCH  25  26
HETATM   26  C20 UNK     1      29.875  -4.659  31.145  1.00  0.00     0.174 C 
HETATM   27  C21 UNK     1      30.056  -3.156  31.149  1.00  0.00     0.034 C 
ENDBRANCH  25  26
ENDBRANCH  23  25
ENDBRANCH   6  23
BRANCH   9  28
HETATM   28  N1  UNK     1      27.534  -5.955  33.487  1.00  0.00    -0.379 N 
HETATM   29  H7  UNK     1      26.949  -6.478  32.846  1.00  0.00     0.158 HD
HETATM   30  H8  UNK     1      27.427  -4.953  33.574  1.00  0.00     0.158 HD
ENDBRANCH   9  28
TORSDOF 5
ENDMDL
MODEL 7
REMARK VINA RESULT:      -7.0      2.569      3.988
REMARK  5 active torsions:
REMARK  status: ('A' for Active; 'I' for Inactive)
REMARK    1  A    between atoms: C12_19  and  O3_4 
REMARK    2  A    between atoms: C20_27  and  O3_4 
REMARK    3  A    between atoms: C7_14  and  N1_7 
REMARK    4  A    between atoms: C1_8  and  C5_12 
REMARK    5  A    between atoms: C12_19  and  C3_10 
ROOT
HETATM    1  O1  UNK     1      30.807 -10.481  33.492  1.00  0.00    -0.292 OA
HETATM    2  O2  UNK     1      28.123  -7.864  31.630  1.00  0.00    -0.274 OA
HETATM    3  O4  UNK     1      27.815  -6.769  33.606  1.00  0.00    -0.259 OA
HETATM    4  C1  UNK     1      29.714  -8.354  35.081  1.00  0.00     0.104 C 
HETATM    5  C2  UNK     1      29.367  -8.569  33.619  1.00  0.00     0.066 A 
HETATM    6  C3  UNK     1      30.505  -9.520  35.650  1.00  0.00     0.081 C 
HETATM    7  C4  UNK     1      29.922  -9.578  32.928  1.00  0.00     0.104 A 
HETATM    8  C6  UNK     1      29.622  -9.776  31.513  1.00  0.00     0.033 A 
HETATM    9  C7  UNK     1      31.014 -10.500  34.873  1.00  0.00     0.155 C 
HETATM   10  C8  UNK     1      28.380  -7.661  32.982  1.00  0.00     0.298 A 
HETATM   11  C9  UNK     1      28.729  -8.904  30.900  1.00  0.00     0.092 A 
HETATM   12  C13 UNK     1      30.189 -10.795  30.737  1.00  0.00     0.017 A 
HETATM   13  C14 UNK     1      28.389  -9.016  29.551  1.00  0.00     0.038 A 
HETATM   14  C17 UNK     1      29.858 -10.922  29.383  1.00  0.00     0.001 A 
HETATM   15  C19 UNK     1      28.960 -10.032  28.791  1.00  0.00     0.003 A 
ENDROOT
BRANCH   4  16
HETATM   16  C5  UNK     1      30.480  -7.075  35.253  1.00  0.00    -0.043 A 
HETATM   17  C10 UNK     1      30.122  -6.187  36.262  1.00  0.00     0.027 A 
HETATM   18  C15 UNK     1      30.835  -5.000  36.422  1.00  0.00     0.011 A 
HETATM   19 Br1  UNK     1      30.357  -3.786  37.789  1.00  0.00    -0.051 Br
HETATM   20  C18 UNK     1      31.904  -4.708  35.574  1.00  0.00     0.019 A 
HETATM   21  C16 UNK     1      32.256  -5.603  34.564  1.00  0.00     0.002 A 
HETATM   22  C11 UNK     1      31.543  -6.790  34.404  1.00  0.00     0.008 A 
ENDBRANCH   4  16
BRANCH   6  23
HETATM   23  C12 UNK     1      30.668  -9.549  37.114  1.00  0.00     0.294 C 
HETATM   24  O5  UNK     1      29.745  -9.726  37.885  1.00  0.00    -0.259 OA
BRANCH  23  25
HETATM   25  O3  UNK     1      31.977  -9.353  37.401  1.00  0.00    -0.318 OA
BRANCH  25  26
HETATM   26  C20 UNK     1      32.248  -8.242  38.261  1.00  0.00     0.174 C 
HETATM   27  C21 UNK     1      33.396  -7.441  37.683  1.00  0.00     0.034 C 
ENDBRANCH  25  26
ENDBRANCH  23  25
ENDBRANCH   6  23
BRANCH   9  28
HETATM   28  N1  UNK     1      31.746 -11.572  35.294  1.00  0.00    -0.379 N 
HETATM   29  H7  UNK     1      31.388 -12.505  35.130  1.00  0.00     0.158 HD
HETATM   30  H8  UNK     1      32.632 -11.440  35.764  1.00  0.00     0.158 HD
ENDBRANCH   9  28
TORSDOF 5
ENDMDL
MODEL 8
REMARK VINA RESULT:      -7.0      2.842      6.044
REMARK  5 active torsions:
REMARK  status: ('A' for Active; 'I' for Inactive)
REMARK    1  A    between atoms: C12_19  and  O3_4 
REMARK    2  A    between atoms: C20_27  and  O3_4 
REMARK    3  A    between atoms: C7_14  and  N1_7 
REMARK    4  A    between atoms: C1_8  and  C5_12 
REMARK    5  A    between atoms: C12_19  and  C3_10 
ROOT
HETATM    1  O1  UNK     1      28.066  -6.868  35.154  1.00  0.00    -0.292 OA
HETATM    2  O2  UNK     1      30.393  -9.580  37.331  1.00  0.00    -0.274 OA
HETATM    3  O4  UNK     1      31.952  -9.585  35.666  1.00  0.00    -0.259 OA
HETATM    4  C1  UNK     1      30.600  -7.630  34.040  1.00  0.00     0.104 C 
HETATM    5  C2  UNK     1      30.074  -8.159  35.362  1.00  0.00     0.066 A 
HETATM    6  C3  UNK     1      29.537  -6.853  33.281  1.00  0.00     0.081 C 
HETATM    7  C4  UNK     1      28.884  -7.754  35.833  1.00  0.00     0.104 A 
HETATM    8  C6  UNK     1      28.381  -8.229  37.119  1.00  0.00     0.033 A 
HETATM    9  C7  UNK     1      28.359  -6.502  33.838  1.00  0.00     0.155 C 
HETATM   10  C8  UNK     1      30.889  -9.154  36.103  1.00  0.00     0.298 A 
HETATM   11  C9  UNK     1      29.159  -9.131  37.838  1.00  0.00     0.092 A 
HETATM   12  C13 UNK     1      27.160  -7.824  37.671  1.00  0.00     0.017 A 
HETATM   13  C14 UNK     1      28.760  -9.633  39.077  1.00  0.00     0.038 A 
HETATM   14  C17 UNK     1      26.745  -8.318  38.912  1.00  0.00     0.001 A 
HETATM   15  C19 UNK     1      27.544  -9.221  39.614  1.00  0.00     0.003 A 
ENDROOT
BRANCH   4  16
HETATM   16  C5  UNK     1      31.809  -6.769  34.265  1.00  0.00    -0.043 A 
HETATM   17  C10 UNK     1      33.007  -7.085  33.635  1.00  0.00     0.027 A 
HETATM   18  C15 UNK     1      34.130  -6.284  33.844  1.00  0.00     0.011 A 
HETATM   19 Br1  UNK     1      35.764  -6.705  32.992  1.00  0.00    -0.051 Br
HETATM   20  C18 UNK     1      34.046  -5.171  34.680  1.00  0.00     0.019 A 
HETATM   21  C16 UNK     1      32.841  -4.861  35.310  1.00  0.00     0.002 A 
HETATM   22  C11 UNK     1      31.719  -5.662  35.101  1.00  0.00     0.008 A 
ENDBRANCH   4  16
BRANCH   6  23
HETATM   23  C12 UNK     1      29.843  -6.521  31.878  1.00  0.00     0.294 C 
HETATM   24  O5  UNK     1      30.066  -5.390  31.493  1.00  0.00    -0.259 OA
BRANCH  23  25
HETATM   25  O3  UNK     1      29.828  -7.667  31.156  1.00  0.00    -0.318 OA
BRANCH  25  26
HETATM   26  C20 UNK     1      28.903  -7.682  30.064  1.00  0.00     0.174 C 
HETATM   27  C21 UNK     1      27.644  -8.402  30.495  1.00  0.00     0.034 C 
ENDBRANCH  25  26
ENDBRANCH  23  25
ENDBRANCH   6  23
BRANCH   9  28
HETATM   28  N1  UNK     1      27.356  -5.795  33.239  1.00  0.00    -0.379 N 
HETATM   29  H7  UNK     1      26.437  -5.790  33.664  1.00  0.00     0.158 HD
HETATM   30  H8  UNK     1      27.526  -5.284  32.383  1.00  0.00     0.158 HD
ENDBRANCH   9  28
TORSDOF 5
ENDMDL
MODEL 9
REMARK VINA RESULT:      -6.9      3.154      5.162
REMARK  5 active torsions:
REMARK  status: ('A' for Active; 'I' for Inactive)
REMARK    1  A    between atoms: C12_19  and  O3_4 
REMARK    2  A    between atoms: C20_27  and  O3_4 
REMARK    3  A    between atoms: C7_14  and  N1_7 
REMARK    4  A    between atoms: C1_8  and  C5_12 
REMARK    5  A    between atoms: C12_19  and  C3_10 
ROOT
HETATM    1  O1  UNK     1      34.382  -5.918  34.363  1.00  0.00    -0.292 OA
HETATM    2  O2  UNK     1      33.212  -9.935  34.258  1.00  0.00    -0.274 OA
HETATM    3  O4  UNK     1      31.332  -9.423  35.443  1.00  0.00    -0.259 OA
HETATM    4  C1  UNK     1      31.851  -6.592  35.542  1.00  0.00     0.104 C 
HETATM    5  C2  UNK     1      32.770  -7.611  34.893  1.00  0.00     0.066 A 
HETATM    6  C3  UNK     1      32.532  -5.242  35.702  1.00  0.00     0.081 C 
HETATM    7  C4  UNK     1      33.936  -7.229  34.350  1.00  0.00     0.104 A 
HETATM    8  C6  UNK     1      34.814  -8.194  33.693  1.00  0.00     0.033 A 
HETATM    9  C7  UNK     1      33.718  -4.955  35.125  1.00  0.00     0.155 C 
HETATM   10  C8  UNK     1      32.364  -9.039  34.901  1.00  0.00     0.298 A 
HETATM   11  C9  UNK     1      34.420  -9.528  33.662  1.00  0.00     0.092 A 
HETATM   12  C13 UNK     1      36.029  -7.850  33.089  1.00  0.00     0.017 A 
HETATM   13  C14 UNK     1      35.193 -10.517  33.051  1.00  0.00     0.038 A 
HETATM   14  C17 UNK     1      36.817  -8.829  32.473  1.00  0.00     0.001 A 
HETATM   15  C19 UNK     1      36.399 -10.160  32.454  1.00  0.00     0.003 A 
ENDROOT
BRANCH   4  16
HETATM   16  C5  UNK     1      30.589  -6.444  34.745  1.00  0.00    -0.043 A 
HETATM   17  C10 UNK     1      30.650  -5.980  33.436  1.00  0.00     0.027 A 
HETATM   18  C15 UNK     1      29.476  -5.845  32.695  1.00  0.00     0.011 A 
HETATM   19 Br1  UNK     1      29.548  -5.214  30.915  1.00  0.00    -0.051 Br
HETATM   20  C18 UNK     1      28.248  -6.176  33.267  1.00  0.00     0.019 A 
HETATM   21  C16 UNK     1      28.194  -6.641  34.581  1.00  0.00     0.002 A 
HETATM   22  C11 UNK     1      29.368  -6.776  35.322  1.00  0.00     0.008 A 
ENDBRANCH   4  16
BRANCH   6  23
HETATM   23  C12 UNK     1      31.841  -4.256  36.552  1.00  0.00     0.294 C 
HETATM   24  O5  UNK     1      31.753  -3.077  36.271  1.00  0.00    -0.259 OA
BRANCH  23  25
HETATM   25  O3  UNK     1      31.354  -4.899  37.640  1.00  0.00    -0.318 OA
BRANCH  25  26
HETATM   26  C20 UNK     1      30.136  -4.361  38.167  1.00  0.00     0.174 C 
HETATM   27  C21 UNK     1      29.342  -5.477  38.811  1.00  0.00     0.034 C 
ENDBRANCH  25  26
ENDBRANCH  23  25
ENDBRANCH   6  23
BRANCH   9  28
HETATM   28  N1  UNK     1      34.391  -3.770  35.203  1.00  0.00    -0.379 N 
HETATM   29  H7  UNK     1      34.517  -3.336  36.109  1.00  0.00     0.158 HD
HETATM   30  H8  UNK     1      34.760  -3.330  34.370  1.00  0.00     0.158 HD
ENDBRANCH   9  28
TORSDOF 5
ENDMDL
MODEL 10
REMARK VINA RESULT:      -6.8      2.873      6.295
REMARK  5 active torsions:
REMARK  status: ('A' for Active; 'I' for Inactive)
REMARK    1  A    between atoms: C12_19  and  O3_4 
REMARK    2  A    between atoms: C20_27  and  O3_4 
REMARK    3  A    between atoms: C7_14  and  N1_7 
REMARK    4  A    between atoms: C1_8  and  C5_12 
REMARK    5  A    between atoms: C12_19  and  C3_10 
ROOT
HETATM    1  O1  UNK     1      31.023  -8.882  36.303  1.00  0.00    -0.292 OA
HETATM    2  O2  UNK     1      31.294  -4.717  35.996  1.00  0.00    -0.274 OA
HETATM    3  O4  UNK     1      32.663  -4.936  34.186  1.00  0.00    -0.259 OA
HETATM    4  C1  UNK     1      32.534  -7.812  34.109  1.00  0.00     0.104 C 
HETATM    5  C2  UNK     1      31.840  -6.949  35.146  1.00  0.00     0.066 A 
HETATM    6  C3  UNK     1      32.532  -9.279  34.504  1.00  0.00     0.081 C 
HETATM    7  C4  UNK     1      31.139  -7.512  36.143  1.00  0.00     0.104 A 
HETATM    8  C6  UNK     1      30.440  -6.693  37.130  1.00  0.00     0.033 A 
HETATM    9  C7  UNK     1      31.802  -9.751  35.536  1.00  0.00     0.155 C 
HETATM   10  C8  UNK     1      31.980  -5.474  35.052  1.00  0.00     0.298 A 
HETATM   11  C9  UNK     1      30.534  -5.309  37.023  1.00  0.00     0.092 A 
HETATM   12  C13 UNK     1      29.675  -7.224  38.175  1.00  0.00     0.017 A 
HETATM   13  C14 UNK     1      29.894  -4.450  37.917  1.00  0.00     0.038 A 
HETATM   14  C17 UNK     1      29.028  -6.377  39.081  1.00  0.00     0.001 A 
HETATM   15  C19 UNK     1      29.137  -4.992  38.951  1.00  0.00     0.003 A 
ENDROOT
BRANCH   4  16
HETATM   16  C5  UNK     1      31.887  -7.636  32.766  1.00  0.00    -0.043 A 
HETATM   17  C10 UNK     1      30.506  -7.751  32.646  1.00  0.00     0.027 A 
HETATM   18  C15 UNK     1      29.905  -7.586  31.399  1.00  0.00     0.011 A 
HETATM   19 Br1  UNK     1      28.030  -7.741  31.224  1.00  0.00    -0.051 Br
HETATM   20  C18 UNK     1      30.688  -7.305  30.279  1.00  0.00     0.019 A 
HETATM   21  C16 UNK     1      32.072  -7.192  30.406  1.00  0.00     0.002 A 
HETATM   22  C11 UNK     1      32.673  -7.357  31.654  1.00  0.00     0.008 A 
ENDBRANCH   4  16
BRANCH   6  23
HETATM   23  C12 UNK     1      33.400 -10.172  33.715  1.00  0.00     0.294 C 
HETATM   24  O5  UNK     1      34.602 -10.017  33.616  1.00  0.00    -0.259 OA
BRANCH  23  25
HETATM   25  O3  UNK     1      32.628 -11.138  33.162  1.00  0.00    -0.318 OA
BRANCH  25  26
HETATM   26  C20 UNK     1      32.595 -11.141  31.731  1.00  0.00     0.174 C 
HETATM   27  C21 UNK     1      31.152 -11.116  31.273  1.00  0.00     0.034 C 
ENDBRANCH  25  26
ENDBRANCH  23  25
ENDBRANCH   6  23
BRANCH   9  28
HETATM   28  N1  UNK     1      31.729 -11.050  35.951  1.00  0.00    -0.379 N 
HETATM   29  H7  UNK     1      30.877 -11.377  36.392  1.00  0.00     0.158 HD
HETATM   30  H8  UNK     1      32.511 -11.678  35.822  1.00  0.00     0.158 HD
ENDBRANCH   9  28
TORSDOF 5
ENDMDL
