MODEL 1
REMARK VINA RESULT:      -7.9      0.000      0.000
REMARK  2 active torsions:
REMARK  status: ('A' for Active; 'I' for Inactive)
REMARK    1  A    between atoms: C11_14  and  O2_2 
REMARK    2  A    between atoms: C3_6  and  C4_7 
ROOT
HETATM    1  O1  UNK     1      18.964   6.484  31.667  1.00  0.00    -0.309 OA
HETATM    2  O3  UNK     1      17.867   3.352  34.030  1.00  0.00    -0.287 OA
HETATM    3  C1  UNK     1      18.412   4.127  31.865  1.00  0.00     0.048 A 
HETATM    4  C2  UNK     1      18.787   5.240  31.115  1.00  0.00     0.090 A 
HETATM    5  C3  UNK     1      18.751   6.639  33.028  1.00  0.00     0.093 A 
HETATM    6  C5  UNK     1      18.247   2.883  31.250  1.00  0.00     0.025 A 
HETATM    7  C6  UNK     1      18.194   4.285  33.310  1.00  0.00     0.187 A 
HETATM    8  C7  UNK     1      18.463   2.762  29.876  1.00  0.00    -0.061 A 
HETATM    9  C8  UNK     1      18.394   5.643  33.855  1.00  0.00     0.094 A 
HETATM   10  C9  UNK     1      19.002   5.116  29.742  1.00  0.00     0.039 A 
HETATM   11  C10 UNK     1      18.839   3.876  29.124  1.00  0.00     0.009 A 
HETATM   12  C13 UNK     1      18.292   1.438  29.210  1.00  0.00     0.048 C 
ENDROOT
BRANCH   5  13
HETATM   13  C4  UNK     1      18.973   8.014  33.517  1.00  0.00     0.031 A 
HETATM   14  C11 UNK     1      17.989   8.999  33.392  1.00  0.00     0.081 A 
HETATM   15  C14 UNK     1      18.222  10.290  33.862  1.00  0.00     0.038 A 
HETATM   16  C16 UNK     1      19.443  10.605  34.459  1.00  0.00     0.003 A 
HETATM   17  C15 UNK     1      20.430   9.628  34.587  1.00  0.00     0.001 A 
HETATM   18  C12 UNK     1      20.196   8.335  34.117  1.00  0.00     0.017 A 
BRANCH  14  19
HETATM   19  O2  UNK     1      16.786   8.718  32.813  1.00  0.00    -0.355 OA
HETATM   20  C17 UNK     1      15.672   9.507  33.223  1.00  0.00     0.210 C 
ENDBRANCH  14  19
ENDBRANCH   5  13
TORSDOF 2
ENDMDL
MODEL 2
REMARK VINA RESULT:      -7.7      9.263     11.633
REMARK  2 active torsions:
REMARK  status: ('A' for Active; 'I' for Inactive)
REMARK    1  A    between atoms: C11_14  and  O2_2 
REMARK    2  A    between atoms: C3_6  and  C4_7 
ROOT
HETATM    1  O1  UNK     1      18.720  -4.464  36.451  1.00  0.00    -0.309 OA
HETATM    2  O3  UNK     1      22.365  -5.293  38.073  1.00  0.00    -0.287 OA
HETATM    3  C1  UNK     1      20.374  -6.120  37.103  1.00  0.00     0.048 A 
HETATM    4  C2  UNK     1      19.141  -5.766  36.558  1.00  0.00     0.090 A 
HETATM    5  C3  UNK     1      19.556  -3.460  36.914  1.00  0.00     0.093 A 
HETATM    6  C5  UNK     1      20.751  -7.462  37.186  1.00  0.00     0.025 A 
HETATM    7  C6  UNK     1      21.268  -5.056  37.587  1.00  0.00     0.187 A 
HETATM    8  C7  UNK     1      19.884  -8.450  36.718  1.00  0.00    -0.061 A 
HETATM    9  C8  UNK     1      20.768  -3.673  37.452  1.00  0.00     0.094 A 
HETATM   10  C9  UNK     1      18.276  -6.755  36.090  1.00  0.00     0.039 A 
HETATM   11  C10 UNK     1      18.649  -8.097  36.171  1.00  0.00     0.009 A 
HETATM   12  C13 UNK     1      20.278  -9.886  36.800  1.00  0.00     0.048 C 
ENDROOT
BRANCH   5  13
HETATM   13  C4  UNK     1      19.009  -2.099  36.746  1.00  0.00     0.031 A 
HETATM   14  C11 UNK     1      19.230  -1.365  35.578  1.00  0.00     0.081 A 
HETATM   15  C14 UNK     1      18.702  -0.081  35.443  1.00  0.00     0.038 A 
HETATM   16  C16 UNK     1      17.950   0.476  36.477  1.00  0.00     0.003 A 
HETATM   17  C15 UNK     1      17.725  -0.252  37.646  1.00  0.00     0.001 A 
HETATM   18  C12 UNK     1      18.253  -1.536  37.780  1.00  0.00     0.017 A 
BRANCH  14  19
HETATM   19  O2  UNK     1      19.962  -1.884  34.551  1.00  0.00    -0.355 OA
HETATM   20  C17 UNK     1      19.461  -1.682  33.232  1.00  0.00     0.210 C 
ENDBRANCH  14  19
ENDBRANCH   5  13
TORSDOF 2
ENDMDL
MODEL 3
REMARK VINA RESULT:      -7.7     23.716     25.700
REMARK  2 active torsions:
REMARK  status: ('A' for Active; 'I' for Inactive)
REMARK    1  A    between atoms: C11_14  and  O2_2 
REMARK    2  A    between atoms: C3_6  and  C4_7 
ROOT
HETATM    1  O1  UNK     1       7.740   4.527   9.068  1.00  0.00    -0.309 OA
HETATM    2  O3  UNK     1       6.536   7.490  11.593  1.00  0.00    -0.287 OA
HETATM    3  C1  UNK     1       6.305   5.244  10.893  1.00  0.00     0.048 A 
HETATM    4  C2  UNK     1       6.764   4.277  10.001  1.00  0.00     0.090 A 
HETATM    5  C3  UNK     1       8.284   5.801   9.008  1.00  0.00     0.093 A 
HETATM    6  C5  UNK     1       5.310   4.932  11.822  1.00  0.00     0.025 A 
HETATM    7  C6  UNK     1       6.888   6.593  10.839  1.00  0.00     0.187 A 
HETATM    8  C7  UNK     1       4.777   3.643  11.852  1.00  0.00    -0.061 A 
HETATM    9  C8  UNK     1       7.931   6.812   9.817  1.00  0.00     0.094 A 
HETATM   10  C9  UNK     1       6.230   2.988  10.033  1.00  0.00     0.039 A 
HETATM   11  C10 UNK     1       5.236   2.673  10.960  1.00  0.00     0.009 A 
HETATM   12  C13 UNK     1       3.716   3.300  12.843  1.00  0.00     0.048 C 
ENDROOT
BRANCH   5  13
HETATM   13  C4  UNK     1       9.327   5.959   7.975  1.00  0.00     0.031 A 
HETATM   14  C11 UNK     1      10.684   5.848   8.288  1.00  0.00     0.081 A 
HETATM   15  C14 UNK     1      11.650   6.001   7.294  1.00  0.00     0.038 A 
HETATM   16  C16 UNK     1      11.264   6.267   5.980  1.00  0.00     0.003 A 
HETATM   17  C15 UNK     1       9.910   6.380   5.661  1.00  0.00     0.001 A 
HETATM   18  C12 UNK     1       8.944   6.226   6.655  1.00  0.00     0.017 A 
BRANCH  14  19
HETATM   19  O2  UNK     1      11.091   5.588   9.564  1.00  0.00    -0.355 OA
HETATM   20  C17 UNK     1      12.495   5.492   9.788  1.00  0.00     0.210 C 
ENDBRANCH  14  19
ENDBRANCH   5  13
TORSDOF 2
ENDMDL
MODEL 4
REMARK VINA RESULT:      -7.7      4.678      8.392
REMARK  2 active torsions:
REMARK  status: ('A' for Active; 'I' for Inactive)
REMARK    1  A    between atoms: C11_14  and  O2_2 
REMARK    2  A    between atoms: C3_6  and  C4_7 
ROOT
HETATM    1  O1  UNK     1      18.815   0.013  33.164  1.00  0.00    -0.309 OA
HETATM    2  O3  UNK     1      18.103   3.936  34.003  1.00  0.00    -0.287 OA
HETATM    3  C1  UNK     1      18.241   1.715  34.799  1.00  0.00     0.048 A 
HETATM    4  C2  UNK     1      18.497   0.392  34.444  1.00  0.00     0.090 A 
HETATM    5  C3  UNK     1      18.874   0.990  32.181  1.00  0.00     0.093 A 
HETATM    6  C5  UNK     1      17.923   2.043  36.119  1.00  0.00     0.025 A 
HETATM    7  C6  UNK     1      18.312   2.755  33.762  1.00  0.00     0.187 A 
HETATM    8  C7  UNK     1      17.865   1.035  37.083  1.00  0.00    -0.061 A 
HETATM    9  C8  UNK     1      18.654   2.296  32.401  1.00  0.00     0.094 A 
HETATM   10  C9  UNK     1      18.439  -0.614  35.409  1.00  0.00     0.039 A 
HETATM   11  C10 UNK     1      18.122  -0.290  36.729  1.00  0.00     0.009 A 
HETATM   12  C13 UNK     1      17.529   1.376  38.496  1.00  0.00     0.048 C 
ENDROOT
BRANCH   5  13
HETATM   13  C4  UNK     1      19.228   0.475  30.844  1.00  0.00     0.031 A 
HETATM   14  C11 UNK     1      20.265  -0.446  30.670  1.00  0.00     0.081 A 
HETATM   15  C14 UNK     1      20.580  -0.918  29.396  1.00  0.00     0.038 A 
HETATM   16  C16 UNK     1      19.860  -0.471  28.289  1.00  0.00     0.003 A 
HETATM   17  C15 UNK     1      18.824   0.448  28.455  1.00  0.00     0.001 A 
HETATM   18  C12 UNK     1      18.508   0.920  29.729  1.00  0.00     0.017 A 
BRANCH  14  19
HETATM   19  O2  UNK     1      20.986  -0.900  31.735  1.00  0.00    -0.355 OA
HETATM   20  C17 UNK     1      20.897  -2.292  32.029  1.00  0.00     0.210 C 
ENDBRANCH  14  19
ENDBRANCH   5  13
TORSDOF 2
ENDMDL
MODEL 5
REMARK VINA RESULT:      -7.6      2.737      7.610
REMARK  2 active torsions:
REMARK  status: ('A' for Active; 'I' for Inactive)
REMARK    1  A    between atoms: C11_14  and  O2_2 
REMARK    2  A    between atoms: C3_6  and  C4_7 
ROOT
HETATM    1  O1  UNK     1      19.197   2.705  30.458  1.00  0.00    -0.309 OA
HETATM    2  O3  UNK     1      17.665   2.895  34.229  1.00  0.00    -0.287 OA
HETATM    3  C1  UNK     1      18.249   4.045  32.249  1.00  0.00     0.048 A 
HETATM    4  C2  UNK     1      18.781   3.909  30.967  1.00  0.00     0.090 A 
HETATM    5  C3  UNK     1      19.089   1.577  31.258  1.00  0.00     0.093 A 
HETATM    6  C5  UNK     1      17.841   5.297  32.715  1.00  0.00     0.025 A 
HETATM    7  C6  UNK     1      18.125   2.850  33.096  1.00  0.00     0.187 A 
HETATM    8  C7  UNK     1      17.970   6.414  31.887  1.00  0.00    -0.061 A 
HETATM    9  C8  UNK     1      18.588   1.579  32.503  1.00  0.00     0.094 A 
HETATM   10  C9  UNK     1      18.908   5.027  30.142  1.00  0.00     0.039 A 
HETATM   11  C10 UNK     1      18.501   6.279  30.604  1.00  0.00     0.009 A 
HETATM   12  C13 UNK     1      17.535   7.755  32.376  1.00  0.00     0.048 C 
ENDROOT
BRANCH   5  13
HETATM   13  C4  UNK     1      19.560   0.336  30.611  1.00  0.00     0.031 A 
HETATM   14  C11 UNK     1      19.751  -0.839  31.344  1.00  0.00     0.081 A 
HETATM   15  C14 UNK     1      20.196  -1.998  30.710  1.00  0.00     0.038 A 
HETATM   16  C16 UNK     1      20.452  -1.990  29.339  1.00  0.00     0.003 A 
HETATM   17  C15 UNK     1      20.263  -0.820  28.602  1.00  0.00     0.001 A 
HETATM   18  C12 UNK     1      19.818   0.340  29.236  1.00  0.00     0.017 A 
BRANCH  14  19
HETATM   19  O2  UNK     1      19.508  -0.876  32.685  1.00  0.00    -0.355 OA
HETATM   20  C17 UNK     1      19.944  -2.036  33.389  1.00  0.00     0.210 C 
ENDBRANCH  14  19
ENDBRANCH   5  13
TORSDOF 2
ENDMDL
MODEL 6
REMARK VINA RESULT:      -7.6      5.335      8.397
REMARK  2 active torsions:
REMARK  status: ('A' for Active; 'I' for Inactive)
REMARK    1  A    between atoms: C11_14  and  O2_2 
REMARK    2  A    between atoms: C3_6  and  C4_7 
ROOT
HETATM    1  O1  UNK     1      18.813   0.605  33.210  1.00  0.00    -0.309 OA
HETATM    2  O3  UNK     1      19.378  -2.595  35.668  1.00  0.00    -0.287 OA
HETATM    3  C1  UNK     1      18.704  -0.340  35.445  1.00  0.00     0.048 A 
HETATM    4  C2  UNK     1      18.533   0.714  34.549  1.00  0.00     0.090 A 
HETATM    5  C3  UNK     1      19.295  -0.604  32.732  1.00  0.00     0.093 A 
HETATM    6  C5  UNK     1      18.402  -0.173  36.798  1.00  0.00     0.025 A 
HETATM    7  C6  UNK     1      19.207  -1.627  34.940  1.00  0.00     0.187 A 
HETATM    8  C7  UNK     1      17.925   1.059  37.249  1.00  0.00    -0.061 A 
HETATM    9  C8  UNK     1      19.496  -1.691  33.493  1.00  0.00     0.094 A 
HETATM   10  C9  UNK     1      18.055   1.944  35.002  1.00  0.00     0.039 A 
HETATM   11  C10 UNK     1      17.752   2.114  36.353  1.00  0.00     0.009 A 
HETATM   12  C13 UNK     1      17.597   1.247  38.692  1.00  0.00     0.048 C 
ENDROOT
BRANCH   5  13
HETATM   13  C4  UNK     1      19.558  -0.612  31.279  1.00  0.00     0.031 A 
HETATM   14  C11 UNK     1      19.195   0.466  30.468  1.00  0.00     0.081 A 
HETATM   15  C14 UNK     1      19.454   0.435  29.098  1.00  0.00     0.038 A 
HETATM   16  C16 UNK     1      20.078  -0.677  28.532  1.00  0.00     0.003 A 
HETATM   17  C15 UNK     1      20.443  -1.757  29.336  1.00  0.00     0.001 A 
HETATM   18  C12 UNK     1      20.184  -1.725  30.706  1.00  0.00     0.017 A 
BRANCH  14  19
HETATM   19  O2  UNK     1      18.583   1.566  30.995  1.00  0.00    -0.355 OA
HETATM   20  C17 UNK     1      18.688   2.780  30.256  1.00  0.00     0.210 C 
ENDBRANCH  14  19
ENDBRANCH   5  13
TORSDOF 2
ENDMDL
MODEL 7
REMARK VINA RESULT:      -7.6     13.798     17.332
REMARK  2 active torsions:
REMARK  status: ('A' for Active; 'I' for Inactive)
REMARK    1  A    between atoms: C11_14  and  O2_2 
REMARK    2  A    between atoms: C3_6  and  C4_7 
ROOT
HETATM    1  O1  UNK     1      20.419  -1.860  17.603  1.00  0.00    -0.309 OA
HETATM    2  O3  UNK     1      17.375  -2.821  15.071  1.00  0.00    -0.287 OA
HETATM    3  C1  UNK     1      19.535  -3.331  15.883  1.00  0.00     0.048 A 
HETATM    4  C2  UNK     1      20.537  -2.948  16.774  1.00  0.00     0.090 A 
HETATM    5  C3  UNK     1      19.256  -1.108  17.544  1.00  0.00     0.093 A 
HETATM    6  C5  UNK     1      19.709  -4.448  15.063  1.00  0.00     0.025 A 
HETATM    7  C6  UNK     1      18.296  -2.541  15.825  1.00  0.00     0.187 A 
HETATM    8  C7  UNK     1      20.894  -5.181  15.141  1.00  0.00    -0.061 A 
HETATM    9  C8  UNK     1      18.220  -1.380  16.735  1.00  0.00     0.094 A 
HETATM   10  C9  UNK     1      21.720  -3.682  16.850  1.00  0.00     0.039 A 
HETATM   11  C10 UNK     1      21.897  -4.799  16.033  1.00  0.00     0.009 A 
HETATM   12  C13 UNK     1      21.088  -6.377  14.271  1.00  0.00     0.048 C 
ENDROOT
BRANCH   5  13
HETATM   13  C4  UNK     1      19.233   0.034  18.480  1.00  0.00     0.031 A 
HETATM   14  C11 UNK     1      19.034   1.341  18.028  1.00  0.00     0.081 A 
HETATM   15  C14 UNK     1      19.016   2.403  18.932  1.00  0.00     0.038 A 
HETATM   16  C16 UNK     1      19.198   2.163  20.294  1.00  0.00     0.003 A 
HETATM   17  C15 UNK     1      19.397   0.860  20.752  1.00  0.00     0.001 A 
HETATM   18  C12 UNK     1      19.414  -0.202  19.847  1.00  0.00     0.017 A 
BRANCH  14  19
HETATM   19  O2  UNK     1      18.854   1.605  16.702  1.00  0.00    -0.355 OA
HETATM   20  C17 UNK     1      19.487   2.772  16.183  1.00  0.00     0.210 C 
ENDBRANCH  14  19
ENDBRANCH   5  13
TORSDOF 2
ENDMDL
MODEL 8
REMARK VINA RESULT:      -7.6     22.685     24.964
REMARK  2 active torsions:
REMARK  status: ('A' for Active; 'I' for Inactive)
REMARK    1  A    between atoms: C11_14  and  O2_2 
REMARK    2  A    between atoms: C3_6  and  C4_7 
ROOT
HETATM    1  O1  UNK     1      12.849   8.382   8.165  1.00  0.00    -0.309 OA
HETATM    2  O3  UNK     1      14.878   5.797  10.573  1.00  0.00    -0.287 OA
HETATM    3  C1  UNK     1      14.822   7.901   9.498  1.00  0.00     0.048 A 
HETATM    4  C2  UNK     1      14.075   8.737   8.670  1.00  0.00     0.090 A 
HETATM    5  C3  UNK     1      12.338   7.134   8.487  1.00  0.00     0.093 A 
HETATM    6  C5  UNK     1      16.064   8.315   9.984  1.00  0.00     0.025 A 
HETATM    7  C6  UNK     1      14.279   6.580   9.849  1.00  0.00     0.187 A 
HETATM    8  C7  UNK     1      16.554   9.574   9.635  1.00  0.00    -0.061 A 
HETATM    9  C8  UNK     1      12.959   6.245   9.278  1.00  0.00     0.094 A 
HETATM   10  C9  UNK     1      14.566   9.995   8.323  1.00  0.00     0.039 A 
HETATM   11  C10 UNK     1      15.807  10.413   8.807  1.00  0.00     0.009 A 
HETATM   12  C13 UNK     1      17.879  10.027  10.151  1.00  0.00     0.048 C 
ENDROOT
BRANCH   5  13
HETATM   13  C4  UNK     1      11.014   6.857   7.895  1.00  0.00     0.031 A 
HETATM   14  C11 UNK     1       9.834   7.217   8.553  1.00  0.00     0.081 A 
HETATM   15  C14 UNK     1       8.595   6.945   7.974  1.00  0.00     0.038 A 
HETATM   16  C16 UNK     1       8.529   6.310   6.733  1.00  0.00     0.003 A 
HETATM   17  C15 UNK     1       9.703   5.948   6.072  1.00  0.00     0.001 A 
HETATM   18  C12 UNK     1      10.943   6.221   6.651  1.00  0.00     0.017 A 
BRANCH  14  19
HETATM   19  O2  UNK     1       9.869   7.838   9.767  1.00  0.00    -0.355 OA
HETATM   20  C17 UNK     1       9.364   9.170   9.826  1.00  0.00     0.210 C 
ENDBRANCH  14  19
ENDBRANCH   5  13
TORSDOF 2
ENDMDL
MODEL 9
REMARK VINA RESULT:      -7.6      1.802      6.514
REMARK  2 active torsions:
REMARK  status: ('A' for Active; 'I' for Inactive)
REMARK    1  A    between atoms: C11_14  and  O2_2 
REMARK    2  A    between atoms: C3_6  and  C4_7 
ROOT
HETATM    1  O1  UNK     1      16.639   5.838  32.339  1.00  0.00    -0.309 OA
HETATM    2  O3  UNK     1      19.223   7.614  34.941  1.00  0.00    -0.287 OA
HETATM    3  C1  UNK     1      17.063   7.576  33.983  1.00  0.00     0.048 A 
HETATM    4  C2  UNK     1      16.230   6.921  33.077  1.00  0.00     0.090 A 
HETATM    5  C3  UNK     1      17.938   5.383  32.498  1.00  0.00     0.093 A 
HETATM    6  C5  UNK     1      16.594   8.674  34.707  1.00  0.00     0.025 A 
HETATM    7  C6  UNK     1      18.439   7.090  34.161  1.00  0.00     0.187 A 
HETATM    8  C7  UNK     1      15.282   9.112  34.519  1.00  0.00    -0.061 A 
HETATM    9  C8  UNK     1      18.830   5.924  33.343  1.00  0.00     0.094 A 
HETATM   10  C9  UNK     1      14.920   7.361  32.890  1.00  0.00     0.039 A 
HETATM   11  C10 UNK     1      14.447   8.457  33.613  1.00  0.00     0.009 A 
HETATM   12  C13 UNK     1      14.771  10.283  35.290  1.00  0.00     0.048 C 
ENDROOT
BRANCH   5  13
HETATM   13  C4  UNK     1      18.270   4.212  31.663  1.00  0.00     0.031 A 
HETATM   14  C11 UNK     1      18.220   2.913  32.177  1.00  0.00     0.081 A 
HETATM   15  C14 UNK     1      18.538   1.823  31.368  1.00  0.00     0.038 A 
HETATM   16  C16 UNK     1      18.908   2.026  30.038  1.00  0.00     0.003 A 
HETATM   17  C15 UNK     1      18.960   3.320  29.519  1.00  0.00     0.001 A 
HETATM   18  C12 UNK     1      18.642   4.410  30.328  1.00  0.00     0.017 A 
BRANCH  14  19
HETATM   19  O2  UNK     1      17.861   2.686  33.473  1.00  0.00    -0.355 OA
HETATM   20  C17 UNK     1      18.213   1.421  34.029  1.00  0.00     0.210 C 
ENDBRANCH  14  19
ENDBRANCH   5  13
TORSDOF 2
ENDMDL
MODEL 10
REMARK VINA RESULT:      -7.6      1.938      6.336
REMARK  2 active torsions:
REMARK  status: ('A' for Active; 'I' for Inactive)
REMARK    1  A    between atoms: C11_14  and  O2_2 
REMARK    2  A    between atoms: C3_6  and  C4_7 
ROOT
HETATM    1  O1  UNK     1      16.636   5.759  32.514  1.00  0.00    -0.309 OA
HETATM    2  O3  UNK     1      19.157   7.649  35.097  1.00  0.00    -0.287 OA
HETATM    3  C1  UNK     1      17.031   7.586  34.066  1.00  0.00     0.048 A 
HETATM    4  C2  UNK     1      16.220   6.890  33.171  1.00  0.00     0.090 A 
HETATM    5  C3  UNK     1      17.922   5.295  32.746  1.00  0.00     0.093 A 
HETATM    6  C5  UNK     1      16.555   8.731  34.707  1.00  0.00     0.025 A 
HETATM    7  C6  UNK     1      18.393   7.091  34.322  1.00  0.00     0.187 A 
HETATM    8  C7  UNK     1      15.258   9.176  34.446  1.00  0.00    -0.061 A 
HETATM    9  C8  UNK     1      18.793   5.874  33.589  1.00  0.00     0.094 A 
HETATM   10  C9  UNK     1      14.924   7.337  32.912  1.00  0.00     0.039 A 
HETATM   11  C10 UNK     1      14.445   8.481  33.551  1.00  0.00     0.009 A 
HETATM   12  C13 UNK     1      14.739  10.398  35.128  1.00  0.00     0.048 C 
ENDROOT
BRANCH   5  13
HETATM   13  C4  UNK     1      18.264   4.072  31.993  1.00  0.00     0.031 A 
HETATM   14  C11 UNK     1      18.673   4.130  30.658  1.00  0.00     0.081 A 
HETATM   15  C14 UNK     1      18.991   2.961  29.969  1.00  0.00     0.038 A 
HETATM   16  C16 UNK     1      18.899   1.726  30.610  1.00  0.00     0.003 A 
HETATM   17  C15 UNK     1      18.491   1.661  31.943  1.00  0.00     0.001 A 
HETATM   18  C12 UNK     1      18.174   2.831  32.633  1.00  0.00     0.017 A 
BRANCH  14  19
HETATM   19  O2  UNK     1      18.772   5.324  30.006  1.00  0.00    -0.355 OA
HETATM   20  C17 UNK     1      20.054   5.946  29.986  1.00  0.00     0.210 C 
ENDBRANCH  14  19
ENDBRANCH   5  13
TORSDOF 2
ENDMDL
