MODEL 1
REMARK VINA RESULT:      -8.7      0.000      0.000
REMARK  5 active torsions:
REMARK  status: ('A' for Active; 'I' for Inactive)
REMARK    1  A    between atoms: C1_6  and  N1_4 
REMARK       I    between atoms: C6_11  and  N1_4 
REMARK    2  A    between atoms: C4_9  and  N2_5 
REMARK    3  A    between atoms: C3_8  and  C5_10 
REMARK    4  A    between atoms: C3_8  and  C6_11 
REMARK    5  A    between atoms: C11_16  and  C8_13 
ROOT
HETATM    1  C3  UNK     1      19.358  -2.863  36.406  1.00  0.00     0.043 C 
HETATM    2  C8  UNK     1      18.295  -2.419  37.126  1.00  0.00     0.029 C 
ENDROOT
BRANCH   1   3
HETATM    3  C5  UNK     1      19.963  -4.189  36.639  1.00  0.00    -0.021 A 
HETATM    4  C13 UNK     1      20.921  -4.331  37.627  1.00  0.00     0.012 A 
HETATM    5  C17 UNK     1      21.492  -5.584  37.849  1.00  0.00     0.001 A 
HETATM    6  C19 UNK     1      21.095  -6.677  37.077  1.00  0.00     0.000 A 
HETATM    7  C18 UNK     1      20.128  -6.515  36.085  1.00  0.00     0.001 A 
HETATM    8  C14 UNK     1      19.557  -5.262  35.865  1.00  0.00     0.012 A 
ENDBRANCH   1   3
BRANCH   1   9
HETATM    9  C6  UNK     1      19.871  -1.938  35.325  1.00  0.00     0.257 C 
HETATM   10  O1  UNK     1      20.626  -1.012  35.608  1.00  0.00    -0.267 OA
HETATM   11  N1  UNK     1      19.405  -2.272  34.059  1.00  0.00    -0.322 N 
HETATM   12  H1  UNK     1      18.792  -3.075  34.039  1.00  0.00     0.169 HD
BRANCH  11  13
HETATM   13  C1  UNK     1      19.690  -1.617  32.836  1.00  0.00     0.043 A 
HETATM   14  C2  UNK     1      19.053  -0.430  32.514  1.00  0.00    -0.002 A 
HETATM   15  C4  UNK     1      19.349   0.199  31.305  1.00  0.00     0.111 A 
HETATM   16  C9  UNK     1      18.056   0.178  33.454  1.00  0.00     0.053 C 
HETATM   17  C10 UNK     1      20.278  -0.369  30.434  1.00  0.00     0.037 A 
HETATM   18  C12 UNK     1      20.911  -1.565  30.771  1.00  0.00     0.005 A 
HETATM   19  C7  UNK     1      20.615  -2.194  31.981  1.00  0.00     0.030 A 
BRANCH  15  20
HETATM   20  N2  UNK     1      18.718   1.419  30.937  1.00  0.00    -0.115 N 
HETATM   21  O2  UNK     1      19.021   2.467  31.554  1.00  0.00    -0.532 OA
HETATM   22  O3  UNK     1      17.878   1.411  30.007  1.00  0.00    -0.532 OA
ENDBRANCH  15  20
ENDBRANCH  11  13
ENDBRANCH   1   9
BRANCH   2  23
HETATM   23  C11 UNK     1      17.624  -1.136  36.979  1.00  0.00    -0.035 A 
HETATM   24  C15 UNK     1      16.578  -0.997  36.065  1.00  0.00     0.011 A 
HETATM   25  C20 UNK     1      15.934   0.232  35.924  1.00  0.00     0.001 A 
HETATM   26  C22 UNK     1      16.336   1.322  36.697  1.00  0.00     0.000 A 
HETATM   27  C21 UNK     1      17.380   1.183  37.610  1.00  0.00     0.001 A 
HETATM   28  C16 UNK     1      18.025  -0.046  37.751  1.00  0.00     0.011 A 
ENDBRANCH   2  23
TORSDOF 5
ENDMDL
MODEL 2
REMARK VINA RESULT:      -8.2      3.845      7.709
REMARK  5 active torsions:
REMARK  status: ('A' for Active; 'I' for Inactive)
REMARK    1  A    between atoms: C1_6  and  N1_4 
REMARK       I    between atoms: C6_11  and  N1_4 
REMARK    2  A    between atoms: C4_9  and  N2_5 
REMARK    3  A    between atoms: C3_8  and  C5_10 
REMARK    4  A    between atoms: C3_8  and  C6_11 
REMARK    5  A    between atoms: C11_16  and  C8_13 
ROOT
HETATM    1  C3  UNK     1      18.361   3.511  31.823  1.00  0.00     0.043 C 
HETATM    2  C8  UNK     1      18.148   4.818  31.520  1.00  0.00     0.029 C 
ENDROOT
BRANCH   1   3
HETATM    3  C5  UNK     1      18.532   2.483  30.777  1.00  0.00    -0.021 A 
HETATM    4  C13 UNK     1      17.845   2.612  29.583  1.00  0.00     0.012 A 
HETATM    5  C17 UNK     1      18.007   1.641  28.595  1.00  0.00     0.001 A 
HETATM    6  C19 UNK     1      18.855   0.555  28.817  1.00  0.00     0.000 A 
HETATM    7  C18 UNK     1      19.539   0.441  30.027  1.00  0.00     0.001 A 
HETATM    8  C14 UNK     1      19.376   1.412  31.015  1.00  0.00     0.012 A 
ENDBRANCH   1   3
BRANCH   1   9
HETATM    9  C6  UNK     1      18.448   3.168  33.293  1.00  0.00     0.257 C 
HETATM   10  O1  UNK     1      18.997   3.937  34.077  1.00  0.00    -0.267 OA
HETATM   11  N1  UNK     1      17.852   1.952  33.603  1.00  0.00    -0.322 N 
HETATM   12  H1  UNK     1      17.450   1.471  32.811  1.00  0.00     0.169 HD
BRANCH  11  13
HETATM   13  C1  UNK     1      17.757   1.339  34.877  1.00  0.00     0.043 A 
HETATM   14  C2  UNK     1      18.137   0.018  35.046  1.00  0.00    -0.002 A 
HETATM   15  C4  UNK     1      18.037  -0.566  36.309  1.00  0.00     0.111 A 
HETATM   16  C9  UNK     1      18.653  -0.779  33.887  1.00  0.00     0.053 C 
HETATM   17  C10 UNK     1      17.558   0.180  37.385  1.00  0.00     0.037 A 
HETATM   18  C12 UNK     1      17.179   1.509  37.199  1.00  0.00     0.005 A 
HETATM   19  C7  UNK     1      17.279   2.093  35.936  1.00  0.00     0.030 A 
BRANCH  15  20
HETATM   20  N2  UNK     1      18.418  -1.919  36.525  1.00  0.00    -0.115 N 
HETATM   21  O2  UNK     1      17.531  -2.804  36.527  1.00  0.00    -0.532 OA
HETATM   22  O3  UNK     1      19.629  -2.186  36.704  1.00  0.00    -0.532 OA
ENDBRANCH  15  20
ENDBRANCH  11  13
ENDBRANCH   1   9
BRANCH   2  23
HETATM   23  C11 UNK     1      17.968   5.909  32.466  1.00  0.00    -0.035 A 
HETATM   24  C15 UNK     1      16.703   6.172  32.994  1.00  0.00     0.011 A 
HETATM   25  C20 UNK     1      16.529   7.217  33.901  1.00  0.00     0.001 A 
HETATM   26  C22 UNK     1      17.620   8.000  34.280  1.00  0.00     0.000 A 
HETATM   27  C21 UNK     1      18.884   7.737  33.753  1.00  0.00     0.001 A 
HETATM   28  C16 UNK     1      19.058   6.692  32.845  1.00  0.00     0.011 A 
ENDBRANCH   2  23
TORSDOF 5
ENDMDL
MODEL 3
REMARK VINA RESULT:      -8.2     10.839     12.794
REMARK  5 active torsions:
REMARK  status: ('A' for Active; 'I' for Inactive)
REMARK    1  A    between atoms: C1_6  and  N1_4 
REMARK       I    between atoms: C6_11  and  N1_4 
REMARK    2  A    between atoms: C4_9  and  N2_5 
REMARK    3  A    between atoms: C3_8  and  C5_10 
REMARK    4  A    between atoms: C3_8  and  C6_11 
REMARK    5  A    between atoms: C11_16  and  C8_13 
ROOT
HETATM    1  C3  UNK     1      30.415  -7.096  37.025  1.00  0.00     0.043 C 
HETATM    2  C8  UNK     1      31.468  -6.338  37.430  1.00  0.00     0.029 C 
ENDROOT
BRANCH   1   3
HETATM    3  C5  UNK     1      29.461  -7.688  37.982  1.00  0.00    -0.021 A 
HETATM    4  C13 UNK     1      28.679  -6.852  38.761  1.00  0.00     0.012 A 
HETATM    5  C17 UNK     1      27.777  -7.411  39.666  1.00  0.00     0.001 A 
HETATM    6  C19 UNK     1      27.670  -8.798  39.778  1.00  0.00     0.000 A 
HETATM    7  C18 UNK     1      28.466  -9.624  38.984  1.00  0.00     0.001 A 
HETATM    8  C14 UNK     1      29.368  -9.065  38.080  1.00  0.00     0.012 A 
ENDBRANCH   1   3
BRANCH   1   9
HETATM    9  C6  UNK     1      30.251  -7.272  35.531  1.00  0.00     0.257 C 
HETATM   10  O1  UNK     1      30.868  -8.154  34.940  1.00  0.00    -0.267 OA
HETATM   11  N1  UNK     1      29.359  -6.365  34.973  1.00  0.00    -0.322 N 
HETATM   12  H1  UNK     1      28.952  -5.719  35.634  1.00  0.00     0.169 HD
BRANCH  11  13
HETATM   13  C1  UNK     1      28.980  -6.256  33.612  1.00  0.00     0.043 A 
HETATM   14  C2  UNK     1      29.824  -5.647  32.698  1.00  0.00    -0.002 A 
HETATM   15  C4  UNK     1      29.431  -5.551  31.363  1.00  0.00     0.111 A 
HETATM   16  C9  UNK     1      31.147  -5.096  33.135  1.00  0.00     0.053 C 
HETATM   17  C10 UNK     1      28.200  -6.067  30.960  1.00  0.00     0.037 A 
HETATM   18  C12 UNK     1      27.360  -6.677  31.892  1.00  0.00     0.005 A 
HETATM   19  C7  UNK     1      27.753  -6.773  33.228  1.00  0.00     0.030 A 
BRANCH  15  20
HETATM   20  N2  UNK     1      30.269  -4.934  30.394  1.00  0.00    -0.115 N 
HETATM   21  O2  UNK     1      31.062  -5.648  29.737  1.00  0.00    -0.532 OA
HETATM   22  O3  UNK     1      30.187  -3.695  30.223  1.00  0.00    -0.532 OA
ENDBRANCH  15  20
ENDBRANCH  11  13
ENDBRANCH   1   9
BRANCH   2  23
HETATM   23  C11 UNK     1      32.464  -5.710  36.576  1.00  0.00    -0.035 A 
HETATM   24  C15 UNK     1      32.413  -4.335  36.341  1.00  0.00     0.011 A 
HETATM   25  C20 UNK     1      33.367  -3.731  35.523  1.00  0.00     0.001 A 
HETATM   26  C22 UNK     1      34.372  -4.502  34.939  1.00  0.00     0.000 A 
HETATM   27  C21 UNK     1      34.424  -5.876  35.173  1.00  0.00     0.001 A 
HETATM   28  C16 UNK     1      33.468  -6.480  35.992  1.00  0.00     0.011 A 
ENDBRANCH   2  23
TORSDOF 5
ENDMDL
MODEL 4
REMARK VINA RESULT:      -8.1     10.852     13.546
REMARK  5 active torsions:
REMARK  status: ('A' for Active; 'I' for Inactive)
REMARK    1  A    between atoms: C1_6  and  N1_4 
REMARK       I    between atoms: C6_11  and  N1_4 
REMARK    2  A    between atoms: C4_9  and  N2_5 
REMARK    3  A    between atoms: C3_8  and  C5_10 
REMARK    4  A    between atoms: C3_8  and  C6_11 
REMARK    5  A    between atoms: C11_16  and  C8_13 
ROOT
HETATM    1  C3  UNK     1      30.104  -6.793  33.357  1.00  0.00     0.043 C 
HETATM    2  C8  UNK     1      31.212  -6.089  33.006  1.00  0.00     0.029 C 
ENDROOT
BRANCH   1   3
HETATM    3  C5  UNK     1      29.078  -7.182  32.369  1.00  0.00    -0.021 A 
HETATM    4  C13 UNK     1      28.100  -6.269  32.017  1.00  0.00     0.012 A 
HETATM    5  C17 UNK     1      27.131  -6.636  31.083  1.00  0.00     0.001 A 
HETATM    6  C19 UNK     1      27.156  -7.910  30.516  1.00  0.00     0.000 A 
HETATM    7  C18 UNK     1      28.150  -8.817  30.883  1.00  0.00     0.001 A 
HETATM    8  C14 UNK     1      29.118  -8.450  31.817  1.00  0.00     0.012 A 
ENDBRANCH   1   3
BRANCH   1   9
HETATM    9  C6  UNK     1      29.994  -7.190  34.812  1.00  0.00     0.257 C 
HETATM   10  O1  UNK     1      30.689  -8.098  35.261  1.00  0.00    -0.267 OA
HETATM   11  N1  UNK     1      29.068  -6.428  35.514  1.00  0.00    -0.322 N 
HETATM   12  H1  UNK     1      28.601  -5.724  34.959  1.00  0.00     0.169 HD
BRANCH  11  13
HETATM   13  C1  UNK     1      28.722  -6.538  36.883  1.00  0.00     0.043 A 
HETATM   14  C2  UNK     1      27.865  -7.538  37.309  1.00  0.00    -0.002 A 
HETATM   15  C4  UNK     1      27.538  -7.629  38.662  1.00  0.00     0.111 A 
HETATM   16  C9  UNK     1      27.291  -8.517  36.329  1.00  0.00     0.053 C 
HETATM   17  C10 UNK     1      28.075  -6.718  39.571  1.00  0.00     0.037 A 
HETATM   18  C12 UNK     1      28.937  -5.715  39.127  1.00  0.00     0.005 A 
HETATM   19  C7  UNK     1      29.264  -5.625  37.774  1.00  0.00     0.030 A 
BRANCH  15  20
HETATM   20  N2  UNK     1      26.661  -8.642  39.140  1.00  0.00    -0.115 N 
HETATM   21  O2  UNK     1      25.429  -8.418  39.155  1.00  0.00    -0.532 OA
HETATM   22  O3  UNK     1      27.148  -9.729  39.530  1.00  0.00    -0.532 OA
ENDBRANCH  15  20
ENDBRANCH  11  13
ENDBRANCH   1   9
BRANCH   2  23
HETATM   23  C11 UNK     1      32.281  -5.657  33.894  1.00  0.00    -0.035 A 
HETATM   24  C15 UNK     1      33.474  -6.380  33.953  1.00  0.00     0.011 A 
HETATM   25  C20 UNK     1      34.499  -5.966  34.803  1.00  0.00     0.001 A 
HETATM   26  C22 UNK     1      34.332  -4.829  35.594  1.00  0.00     0.000 A 
HETATM   27  C21 UNK     1      33.141  -4.106  35.535  1.00  0.00     0.001 A 
HETATM   28  C16 UNK     1      32.115  -4.521  34.685  1.00  0.00     0.011 A 
ENDBRANCH   2  23
TORSDOF 5
ENDMDL
MODEL 5
REMARK VINA RESULT:      -8.0      2.744      6.627
REMARK  5 active torsions:
REMARK  status: ('A' for Active; 'I' for Inactive)
REMARK    1  A    between atoms: C1_6  and  N1_4 
REMARK       I    between atoms: C6_11  and  N1_4 
REMARK    2  A    between atoms: C4_9  and  N2_5 
REMARK    3  A    between atoms: C3_8  and  C5_10 
REMARK    4  A    between atoms: C3_8  and  C6_11 
REMARK    5  A    between atoms: C11_16  and  C8_13 
ROOT
HETATM    1  C3  UNK     1      19.716  -1.694  33.773  1.00  0.00     0.043 C 
HETATM    2  C8  UNK     1      18.797  -0.770  34.161  1.00  0.00     0.029 C 
ENDROOT
BRANCH   1   3
HETATM    3  C5  UNK     1      20.068  -1.900  32.355  1.00  0.00    -0.021 A 
HETATM    4  C13 UNK     1      19.704  -0.944  31.422  1.00  0.00     0.012 A 
HETATM    5  C17 UNK     1      20.037  -1.138  30.082  1.00  0.00     0.001 A 
HETATM    6  C19 UNK     1      20.729  -2.286  29.695  1.00  0.00     0.000 A 
HETATM    7  C18 UNK     1      21.087  -3.240  30.648  1.00  0.00     0.001 A 
HETATM    8  C14 UNK     1      20.754  -3.045  31.988  1.00  0.00     0.012 A 
ENDBRANCH   1   3
BRANCH   1   9
HETATM    9  C6  UNK     1      20.387  -2.478  34.878  1.00  0.00     0.257 C 
HETATM   10  O1  UNK     1      21.369  -2.018  35.456  1.00  0.00    -0.267 OA
HETATM   11  N1  UNK     1      19.771  -3.697  35.130  1.00  0.00    -0.322 N 
HETATM   12  H1  UNK     1      18.970  -3.889  34.544  1.00  0.00     0.169 HD
BRANCH  11  13
HETATM   13  C1  UNK     1      20.143  -4.668  36.093  1.00  0.00     0.043 A 
HETATM   14  C2  UNK     1      20.304  -5.992  35.722  1.00  0.00    -0.002 A 
HETATM   15  C4  UNK     1      20.671  -6.932  36.686  1.00  0.00     0.111 A 
HETATM   16  C9  UNK     1      20.088  -6.417  34.301  1.00  0.00     0.053 C 
HETATM   17  C10 UNK     1      20.873  -6.533  38.007  1.00  0.00     0.037 A 
HETATM   18  C12 UNK     1      20.707  -5.195  38.365  1.00  0.00     0.005 A 
HETATM   19  C7  UNK     1      20.340  -4.256  37.401  1.00  0.00     0.030 A 
BRANCH  15  20
HETATM   20  N2  UNK     1      20.847  -8.302  36.347  1.00  0.00    -0.115 N 
HETATM   21  O2  UNK     1      19.868  -9.078  36.437  1.00  0.00    -0.532 OA
HETATM   22  O3  UNK     1      21.976  -8.691  35.965  1.00  0.00    -0.532 OA
ENDBRANCH  15  20
ENDBRANCH  11  13
ENDBRANCH   1   9
BRANCH   2  23
HETATM   23  C11 UNK     1      18.378  -0.485  35.525  1.00  0.00    -0.035 A 
HETATM   24  C15 UNK     1      18.477   0.813  36.028  1.00  0.00     0.011 A 
HETATM   25  C20 UNK     1      18.075   1.087  37.335  1.00  0.00     0.001 A 
HETATM   26  C22 UNK     1      17.573   0.064  38.139  1.00  0.00     0.000 A 
HETATM   27  C21 UNK     1      17.473  -1.233  37.637  1.00  0.00     0.001 A 
HETATM   28  C16 UNK     1      17.876  -1.508  36.329  1.00  0.00     0.011 A 
ENDBRANCH   2  23
TORSDOF 5
ENDMDL
MODEL 6
REMARK VINA RESULT:      -8.0     11.864     14.436
REMARK  5 active torsions:
REMARK  status: ('A' for Active; 'I' for Inactive)
REMARK    1  A    between atoms: C1_6  and  N1_4 
REMARK       I    between atoms: C6_11  and  N1_4 
REMARK    2  A    between atoms: C4_9  and  N2_5 
REMARK    3  A    between atoms: C3_8  and  C5_10 
REMARK    4  A    between atoms: C3_8  and  C6_11 
REMARK    5  A    between atoms: C11_16  and  C8_13 
ROOT
HETATM    1  C3  UNK     1      29.313  -7.229  33.496  1.00  0.00     0.043 C 
HETATM    2  C8  UNK     1      28.912  -7.512  34.763  1.00  0.00     0.029 C 
ENDROOT
BRANCH   1   3
HETATM    3  C5  UNK     1      28.417  -7.397  32.335  1.00  0.00    -0.021 A 
HETATM    4  C13 UNK     1      27.510  -6.397  32.031  1.00  0.00     0.012 A 
HETATM    5  C17 UNK     1      26.664  -6.555  30.934  1.00  0.00     0.001 A 
HETATM    6  C19 UNK     1      26.739  -7.711  30.157  1.00  0.00     0.000 A 
HETATM    7  C18 UNK     1      27.660  -8.709  30.478  1.00  0.00     0.001 A 
HETATM    8  C14 UNK     1      28.505  -8.550  31.575  1.00  0.00     0.012 A 
ENDBRANCH   1   3
BRANCH   1   9
HETATM    9  C6  UNK     1      30.720  -6.696  33.341  1.00  0.00     0.257 C 
HETATM   10  O1  UNK     1      30.960  -5.510  33.549  1.00  0.00    -0.267 OA
HETATM   11  N1  UNK     1      31.632  -7.675  32.966  1.00  0.00    -0.322 N 
HETATM   12  H1  UNK     1      31.232  -8.595  32.848  1.00  0.00     0.169 HD
BRANCH  11  13
HETATM   13  C1  UNK     1      33.021  -7.515  32.737  1.00  0.00     0.043 A 
HETATM   14  C2  UNK     1      33.513  -7.449  31.444  1.00  0.00    -0.002 A 
HETATM   15  C4  UNK     1      34.884  -7.291  31.241  1.00  0.00     0.111 A 
HETATM   16  C9  UNK     1      32.584  -7.545  30.271  1.00  0.00     0.053 C 
HETATM   17  C10 UNK     1      35.744  -7.200  32.334  1.00  0.00     0.037 A 
HETATM   18  C12 UNK     1      35.234  -7.268  33.631  1.00  0.00     0.005 A 
HETATM   19  C7  UNK     1      33.863  -7.426  33.834  1.00  0.00     0.030 A 
BRANCH  15  20
HETATM   20  N2  UNK     1      35.428  -7.218  29.929  1.00  0.00    -0.115 N 
HETATM   21  O2  UNK     1      35.798  -8.276  29.368  1.00  0.00    -0.532 OA
HETATM   22  O3  UNK     1      35.521  -6.099  29.373  1.00  0.00    -0.532 OA
ENDBRANCH  15  20
ENDBRANCH  11  13
ENDBRANCH   1   9
BRANCH   2  23
HETATM   23  C11 UNK     1      29.708  -7.383  35.974  1.00  0.00    -0.035 A 
HETATM   24  C15 UNK     1      29.611  -6.228  36.752  1.00  0.00     0.011 A 
HETATM   25  C20 UNK     1      30.374  -6.104  37.913  1.00  0.00     0.001 A 
HETATM   26  C22 UNK     1      31.234  -7.133  38.296  1.00  0.00     0.000 A 
HETATM   27  C21 UNK     1      31.331  -8.287  37.518  1.00  0.00     0.001 A 
HETATM   28  C16 UNK     1      30.568  -8.411  36.357  1.00  0.00     0.011 A 
ENDBRANCH   2  23
TORSDOF 5
ENDMDL
MODEL 7
REMARK VINA RESULT:      -7.9     11.637     14.105
REMARK  5 active torsions:
REMARK  status: ('A' for Active; 'I' for Inactive)
REMARK    1  A    between atoms: C1_6  and  N1_4 
REMARK       I    between atoms: C6_11  and  N1_4 
REMARK    2  A    between atoms: C4_9  and  N2_5 
REMARK    3  A    between atoms: C3_8  and  C5_10 
REMARK    4  A    between atoms: C3_8  and  C6_11 
REMARK    5  A    between atoms: C11_16  and  C8_13 
ROOT
HETATM    1  C3  UNK     1      29.555  -6.372  34.434  1.00  0.00     0.043 C 
HETATM    2  C8  UNK     1      28.383  -6.933  34.037  1.00  0.00     0.029 C 
ENDROOT
BRANCH   1   3
HETATM    3  C5  UNK     1      29.829  -6.047  35.847  1.00  0.00    -0.021 A 
HETATM    4  C13 UNK     1      28.935  -6.458  36.820  1.00  0.00     0.012 A 
HETATM    5  C17 UNK     1      29.194  -6.152  38.156  1.00  0.00     0.001 A 
HETATM    6  C19 UNK     1      30.344  -5.439  38.498  1.00  0.00     0.000 A 
HETATM    7  C18 UNK     1      31.234  -5.033  37.503  1.00  0.00     0.001 A 
HETATM    8  C14 UNK     1      30.974  -5.340  36.168  1.00  0.00     0.012 A 
ENDBRANCH   1   3
BRANCH   1   9
HETATM    9  C6  UNK     1      30.584  -6.130  33.351  1.00  0.00     0.257 C 
HETATM   10  O1  UNK     1      30.667  -5.031  32.810  1.00  0.00    -0.267 OA
HETATM   11  N1  UNK     1      31.368  -7.247  33.088  1.00  0.00    -0.322 N 
HETATM   12  H1  UNK     1      31.141  -8.057  33.649  1.00  0.00     0.169 HD
BRANCH  11  13
HETATM   13  C1  UNK     1      32.415  -7.360  32.141  1.00  0.00     0.043 A 
HETATM   14  C2  UNK     1      33.731  -7.170  32.529  1.00  0.00    -0.002 A 
HETATM   15  C4  UNK     1      34.747  -7.287  31.581  1.00  0.00     0.111 A 
HETATM   16  C9  UNK     1      34.064  -6.844  33.954  1.00  0.00     0.053 C 
HETATM   17  C10 UNK     1      34.433  -7.592  30.257  1.00  0.00     0.037 A 
HETATM   18  C12 UNK     1      33.103  -7.780  29.881  1.00  0.00     0.005 A 
HETATM   19  C7  UNK     1      32.086  -7.664  30.830  1.00  0.00     0.030 A 
BRANCH  15  20
HETATM   20  N2  UNK     1      36.111  -7.101  31.938  1.00  0.00    -0.115 N 
HETATM   21  O2  UNK     1      36.607  -5.954  31.854  1.00  0.00    -0.532 OA
HETATM   22  O3  UNK     1      36.775  -8.090  32.329  1.00  0.00    -0.532 OA
ENDBRANCH  15  20
ENDBRANCH  11  13
ENDBRANCH   1   9
BRANCH   2  23
HETATM   23  C11 UNK     1      28.010  -7.293  32.677  1.00  0.00    -0.035 A 
HETATM   24  C15 UNK     1      27.276  -6.399  31.895  1.00  0.00     0.011 A 
HETATM   25  C20 UNK     1      26.920  -6.743  30.592  1.00  0.00     0.001 A 
HETATM   26  C22 UNK     1      27.296  -7.981  30.070  1.00  0.00     0.000 A 
HETATM   27  C21 UNK     1      28.029  -8.874  30.850  1.00  0.00     0.001 A 
HETATM   28  C16 UNK     1      28.386  -8.529  32.155  1.00  0.00     0.011 A 
ENDBRANCH   2  23
TORSDOF 5
ENDMDL
MODEL 8
REMARK VINA RESULT:      -7.9     11.293     13.778
REMARK  5 active torsions:
REMARK  status: ('A' for Active; 'I' for Inactive)
REMARK    1  A    between atoms: C1_6  and  N1_4 
REMARK       I    between atoms: C6_11  and  N1_4 
REMARK    2  A    between atoms: C4_9  and  N2_5 
REMARK    3  A    between atoms: C3_8  and  C5_10 
REMARK    4  A    between atoms: C3_8  and  C6_11 
REMARK    5  A    between atoms: C11_16  and  C8_13 
ROOT
HETATM    1  C3  UNK     1      30.800  -7.473  37.281  1.00  0.00     0.043 C 
HETATM    2  C8  UNK     1      32.103  -7.679  37.605  1.00  0.00     0.029 C 
ENDROOT
BRANCH   1   3
HETATM    3  C5  UNK     1      29.695  -7.956  38.132  1.00  0.00    -0.021 A 
HETATM    4  C13 UNK     1      29.529  -9.317  38.315  1.00  0.00     0.012 A 
HETATM    5  C17 UNK     1      28.486  -9.775  39.120  1.00  0.00     0.001 A 
HETATM    6  C19 UNK     1      27.625  -8.862  39.730  1.00  0.00     0.000 A 
HETATM    7  C18 UNK     1      27.808  -7.493  39.535  1.00  0.00     0.001 A 
HETATM    8  C14 UNK     1      28.851  -7.037  38.730  1.00  0.00     0.012 A 
ENDBRANCH   1   3
BRANCH   1   9
HETATM    9  C6  UNK     1      30.539  -6.687  36.015  1.00  0.00     0.257 C 
HETATM   10  O1  UNK     1      30.801  -5.489  35.964  1.00  0.00    -0.267 OA
HETATM   11  N1  UNK     1      30.009  -7.465  34.993  1.00  0.00    -0.322 N 
HETATM   12  H1  UNK     1      29.870  -8.436  35.237  1.00  0.00     0.169 HD
BRANCH  11  13
HETATM   13  C1  UNK     1      29.651  -7.046  33.688  1.00  0.00     0.043 A 
HETATM   14  C2  UNK     1      30.428  -7.408  32.601  1.00  0.00    -0.002 A 
HETATM   15  C4  UNK     1      30.058  -6.985  31.324  1.00  0.00     0.111 A 
HETATM   16  C9  UNK     1      31.656  -8.247  32.789  1.00  0.00     0.053 C 
HETATM   17  C10 UNK     1      28.914  -6.205  31.153  1.00  0.00     0.037 A 
HETATM   18  C12 UNK     1      28.141  -5.848  32.258  1.00  0.00     0.005 A 
HETATM   19  C7  UNK     1      28.512  -6.272  33.535  1.00  0.00     0.030 A 
BRANCH  15  20
HETATM   20  N2  UNK     1      30.829  -7.335  30.181  1.00  0.00    -0.115 N 
HETATM   21  O2  UNK     1      30.572  -8.407  29.584  1.00  0.00    -0.532 OA
HETATM   22  O3  UNK     1      31.740  -6.562  29.805  1.00  0.00    -0.532 OA
ENDBRANCH  15  20
ENDBRANCH  11  13
ENDBRANCH   1   9
BRANCH   2  23
HETATM   23  C11 UNK     1      33.265  -7.247  36.842  1.00  0.00    -0.035 A 
HETATM   24  C15 UNK     1      33.632  -7.933  35.683  1.00  0.00     0.011 A 
HETATM   25  C20 UNK     1      34.745  -7.519  34.951  1.00  0.00     0.001 A 
HETATM   26  C22 UNK     1      35.491  -6.421  35.378  1.00  0.00     0.000 A 
HETATM   27  C21 UNK     1      35.124  -5.736  36.536  1.00  0.00     0.001 A 
HETATM   28  C16 UNK     1      34.011  -6.150  37.268  1.00  0.00     0.011 A 
ENDBRANCH   2  23
TORSDOF 5
ENDMDL
MODEL 9
REMARK VINA RESULT:      -7.9     11.329     13.109
REMARK  5 active torsions:
REMARK  status: ('A' for Active; 'I' for Inactive)
REMARK    1  A    between atoms: C1_6  and  N1_4 
REMARK       I    between atoms: C6_11  and  N1_4 
REMARK    2  A    between atoms: C4_9  and  N2_5 
REMARK    3  A    between atoms: C3_8  and  C5_10 
REMARK    4  A    between atoms: C3_8  and  C6_11 
REMARK    5  A    between atoms: C11_16  and  C8_13 
ROOT
HETATM    1  C3  UNK     1      30.701  -7.013  37.059  1.00  0.00     0.043 C 
HETATM    2  C8  UNK     1      31.669  -6.205  37.566  1.00  0.00     0.029 C 
ENDROOT
BRANCH   1   3
HETATM    3  C5  UNK     1      29.647  -7.602  37.909  1.00  0.00    -0.021 A 
HETATM    4  C13 UNK     1      29.467  -8.974  37.909  1.00  0.00     0.012 A 
HETATM    5  C17 UNK     1      28.472  -9.530  38.713  1.00  0.00     0.001 A 
HETATM    6  C19 UNK     1      27.673  -8.705  39.504  1.00  0.00     0.000 A 
HETATM    7  C18 UNK     1      27.868  -7.324  39.492  1.00  0.00     0.001 A 
HETATM    8  C14 UNK     1      28.863  -6.768  38.688  1.00  0.00     0.012 A 
ENDBRANCH   1   3
BRANCH   1   9
HETATM    9  C6  UNK     1      30.738  -7.250  35.566  1.00  0.00     0.257 C 
HETATM   10  O1  UNK     1      31.458  -8.126  35.095  1.00  0.00    -0.267 OA
HETATM   11  N1  UNK     1      29.894  -6.401  34.861  1.00  0.00    -0.322 N 
HETATM   12  H1  UNK     1      29.380  -5.749  35.438  1.00  0.00     0.169 HD
BRANCH  11  13
HETATM   13  C1  UNK     1      29.690  -6.357  33.459  1.00  0.00     0.043 A 
HETATM   14  C2  UNK     1      28.967  -7.354  32.827  1.00  0.00    -0.002 A 
HETATM   15  C4  UNK     1      28.778  -7.292  31.447  1.00  0.00     0.111 A 
HETATM   16  C9  UNK     1      28.388  -8.491  33.615  1.00  0.00     0.053 C 
HETATM   17  C10 UNK     1      29.316  -6.232  30.717  1.00  0.00     0.037 A 
HETATM   18  C12 UNK     1      30.043  -5.236  31.368  1.00  0.00     0.005 A 
HETATM   19  C7  UNK     1      30.232  -5.298  32.749  1.00  0.00     0.030 A 
BRANCH  15  20
HETATM   20  N2  UNK     1      28.040  -8.295  30.760  1.00  0.00    -0.115 N 
HETATM   21  O2  UNK     1      26.828  -8.093  30.514  1.00  0.00    -0.532 OA
HETATM   22  O3  UNK     1      28.624  -9.351  30.420  1.00  0.00    -0.532 OA
ENDBRANCH  15  20
ENDBRANCH  11  13
ENDBRANCH   1   9
BRANCH   2  23
HETATM   23  C11 UNK     1      32.748  -5.575  36.823  1.00  0.00    -0.035 A 
HETATM   24  C15 UNK     1      32.523  -4.372  36.150  1.00  0.00     0.011 A 
HETATM   25  C20 UNK     1      33.557  -3.767  35.438  1.00  0.00     0.001 A 
HETATM   26  C22 UNK     1      34.818  -4.363  35.397  1.00  0.00     0.000 A 
HETATM   27  C21 UNK     1      35.044  -5.564  36.068  1.00  0.00     0.001 A 
HETATM   28  C16 UNK     1      34.008  -6.170  36.781  1.00  0.00     0.011 A 
ENDBRANCH   2  23
TORSDOF 5
ENDMDL
MODEL 10
REMARK VINA RESULT:      -7.8     11.398     13.626
REMARK  5 active torsions:
REMARK  status: ('A' for Active; 'I' for Inactive)
REMARK    1  A    between atoms: C1_6  and  N1_4 
REMARK       I    between atoms: C6_11  and  N1_4 
REMARK    2  A    between atoms: C4_9  and  N2_5 
REMARK    3  A    between atoms: C3_8  and  C5_10 
REMARK    4  A    between atoms: C3_8  and  C6_11 
REMARK    5  A    between atoms: C11_16  and  C8_13 
ROOT
HETATM    1  C3  UNK     1      28.669  -7.765  36.227  1.00  0.00     0.043 C 
HETATM    2  C8  UNK     1      28.187  -7.998  34.978  1.00  0.00     0.029 C 
ENDROOT
BRANCH   1   3
HETATM    3  C5  UNK     1      28.094  -8.414  37.422  1.00  0.00    -0.021 A 
HETATM    4  C13 UNK     1      28.260  -7.819  38.660  1.00  0.00     0.012 A 
HETATM    5  C17 UNK     1      27.717  -8.431  39.789  1.00  0.00     0.001 A 
HETATM    6  C19 UNK     1      27.015  -9.630  39.662  1.00  0.00     0.000 A 
HETATM    7  C18 UNK     1      26.858 -10.216  38.406  1.00  0.00     0.001 A 
HETATM    8  C14 UNK     1      27.401  -9.603  37.277  1.00  0.00     0.012 A 
ENDBRANCH   1   3
BRANCH   1   9
HETATM    9  C6  UNK     1      29.853  -6.829  36.326  1.00  0.00     0.257 C 
HETATM   10  O1  UNK     1      29.679  -5.616  36.397  1.00  0.00    -0.267 OA
HETATM   11  N1  UNK     1      31.072  -7.496  36.334  1.00  0.00    -0.322 N 
HETATM   12  H1  UNK     1      30.998  -8.501  36.271  1.00  0.00     0.169 HD
BRANCH  11  13
HETATM   13  C1  UNK     1      32.366  -6.924  36.417  1.00  0.00     0.043 A 
HETATM   14  C2  UNK     1      32.908  -6.264  35.327  1.00  0.00    -0.002 A 
HETATM   15  C4  UNK     1      34.183  -5.708  35.430  1.00  0.00     0.111 A 
HETATM   16  C9  UNK     1      32.136  -6.145  34.048  1.00  0.00     0.053 C 
HETATM   17  C10 UNK     1      34.898  -5.819  36.622  1.00  0.00     0.037 A 
HETATM   18  C12 UNK     1      34.338  -6.487  37.711  1.00  0.00     0.005 A 
HETATM   19  C7  UNK     1      33.063  -7.043  37.608  1.00  0.00     0.030 A 
BRANCH  15  20
HETATM   20  N2  UNK     1      34.776  -5.022  34.334  1.00  0.00    -0.115 N 
HETATM   21  O2  UNK     1      34.689  -3.773  34.284  1.00  0.00    -0.532 OA
HETATM   22  O3  UNK     1      35.369  -5.687  33.452  1.00  0.00    -0.532 OA
ENDBRANCH  15  20
ENDBRANCH  11  13
ENDBRANCH   1   9
BRANCH   2  23
HETATM   23  C11 UNK     1      28.676  -7.416  33.737  1.00  0.00    -0.035 A 
HETATM   24  C15 UNK     1      28.319  -6.112  33.390  1.00  0.00     0.011 A 
HETATM   25  C20 UNK     1      28.789  -5.554  32.202  1.00  0.00     0.001 A 
HETATM   26  C22 UNK     1      29.614  -6.299  31.359  1.00  0.00     0.000 A 
HETATM   27  C21 UNK     1      29.971  -7.601  31.706  1.00  0.00     0.001 A 
HETATM   28  C16 UNK     1      29.502  -8.160  32.895  1.00  0.00     0.011 A 
ENDBRANCH   2  23
TORSDOF 5
ENDMDL
