MODEL 1
REMARK VINA RESULT:      -8.8      0.000      0.000
REMARK  7 active torsions:
REMARK  status: ('A' for Active; 'I' for Inactive)
REMARK    1  A    between atoms: C16_24  and  O3_4 
REMARK    2  A    between atoms: C23_31  and  O3_4 
REMARK    3  A    between atoms: C5_13  and  N1_6 
REMARK    4  A    between atoms: C6_14  and  N2_7 
REMARK    5  A    between atoms: C14_22  and  N3_8 
REMARK       I    between atoms: C8_16  and  N3_8 
REMARK    6  A    between atoms: C5_13  and  C7_15 
REMARK    7  A    between atoms: C6_14  and  C8_16 
ROOT
HETATM    1  N1  UNK     1      23.763  -9.351  37.195  1.00  0.00     0.096 N 
HETATM    2  N2  UNK     1      26.223  -8.357  38.343  1.00  0.00     0.100 N 
HETATM    3  C1  UNK     1      23.810  -8.064  37.899  1.00  0.00     0.303 C 
HETATM    4  C2  UNK     1      25.065  -9.651  36.586  1.00  0.00     0.303 C 
HETATM    5  C3  UNK     1      24.922  -8.059  38.954  1.00  0.00     0.303 C 
HETATM    6  C4  UNK     1      26.177  -9.645  37.640  1.00  0.00     0.303 C 
ENDROOT
BRANCH   1   7
HETATM    7  C5  UNK     1      22.705  -9.354  36.187  1.00  0.00     0.312 C 
BRANCH   7   8
HETATM    8  C7  UNK     1      21.350  -9.453  36.795  1.00  0.00    -0.011 A 
HETATM    9  C10 UNK     1      20.943 -10.577  37.402  1.00  0.00     0.092 A 
HETATM   10  C13 UNK     1      19.613 -10.722  38.018  1.00  0.00     0.288 A 
HETATM   11  O1  UNK     1      18.770  -9.623  37.945  1.00  0.00    -0.275 OA
HETATM   12  O4  UNK     1      19.276 -11.765  38.565  1.00  0.00    -0.260 OA
HETATM   13  C11 UNK     1      19.169  -8.429  37.313  1.00  0.00     0.090 A 
HETATM   14  C9  UNK     1      20.433  -8.306  36.734  1.00  0.00     0.009 A 
HETATM   15  C15 UNK     1      18.238  -7.389  37.298  1.00  0.00     0.041 A 
HETATM   16  C12 UNK     1      20.752  -7.086  36.124  1.00  0.00     0.051 A 
HETATM   17  C16 UNK     1      19.829  -6.034  36.102  1.00  0.00     0.069 A 
HETATM   18  C18 UNK     1      18.574  -6.186  36.688  1.00  0.00     0.039 A 
BRANCH  17  19
HETATM   19  O3  UNK     1      20.159  -4.857  35.503  1.00  0.00    -0.351 OA
BRANCH  19  20
HETATM   20  C23 UNK     1      20.096  -3.680  36.307  1.00  0.00     0.171 C 
HETATM   21  C25 UNK     1      20.118  -2.464  35.403  1.00  0.00     0.034 C 
ENDBRANCH  19  20
ENDBRANCH  17  19
ENDBRANCH   7   8
ENDBRANCH   1   7
BRANCH   2  22
HETATM   22  C6  UNK     1      27.283  -8.353  39.350  1.00  0.00     0.375 C 
BRANCH  22  23
HETATM   23  C8  UNK     1      28.260  -7.222  39.054  1.00  0.00     0.252 C 
HETATM   24  O2  UNK     1      27.990  -6.069  39.399  1.00  0.00    -0.271 OA
HETATM   25  N3  UNK     1      29.427  -7.597  38.345  1.00  0.00    -0.321 N 
HETATM   26  C17 UNK     1      29.695  -8.991  37.960  1.00  0.00     0.159 C 
BRANCH  25  27
HETATM   27  C14 UNK     1      30.368  -6.602  37.870  1.00  0.00     0.036 A 
HETATM   28  C19 UNK     1      30.208  -6.042  36.602  1.00  0.00     0.033 A 
HETATM   29  C21 UNK     1      31.113  -5.084  36.145  1.00  0.00     0.044 A 
HETATM   30  C24 UNK     1      32.178  -4.687  36.955  1.00  0.00     0.116 A 
HETATM   31  C22 UNK     1      32.337  -5.248  38.222  1.00  0.00     0.044 A 
HETATM   32  F1  UNK     1      33.048  -3.769  36.516  1.00  0.00    -0.206 F 
HETATM   33  C20 UNK     1      31.431  -6.206  38.680  1.00  0.00     0.033 A 
ENDBRANCH  25  27
ENDBRANCH  22  23
ENDBRANCH   2  22
TORSDOF 7
ENDMDL
MODEL 2
REMARK VINA RESULT:      -8.7     11.040     16.156
REMARK  7 active torsions:
REMARK  status: ('A' for Active; 'I' for Inactive)
REMARK    1  A    between atoms: C16_24  and  O3_4 
REMARK    2  A    between atoms: C23_31  and  O3_4 
REMARK    3  A    between atoms: C5_13  and  N1_6 
REMARK    4  A    between atoms: C6_14  and  N2_7 
REMARK    5  A    between atoms: C14_22  and  N3_8 
REMARK       I    between atoms: C8_16  and  N3_8 
REMARK    6  A    between atoms: C5_13  and  C7_15 
REMARK    7  A    between atoms: C6_14  and  C8_16 
ROOT
HETATM    1  N1  UNK     1      18.648   2.931  31.021  1.00  0.00     0.096 N 
HETATM    2  N2  UNK     1      18.498   5.717  31.779  1.00  0.00     0.100 N 
HETATM    3  C1  UNK     1      17.806   3.373  32.140  1.00  0.00     0.303 C 
HETATM    4  C2  UNK     1      18.779   4.000  30.024  1.00  0.00     0.303 C 
HETATM    5  C3  UNK     1      18.370   4.647  32.777  1.00  0.00     0.303 C 
HETATM    6  C4  UNK     1      19.341   5.276  30.661  1.00  0.00     0.303 C 
ENDROOT
BRANCH   1   7
HETATM    7  C5  UNK     1      18.108   1.717  30.412  1.00  0.00     0.312 C 
BRANCH   7   8
HETATM    8  C7  UNK     1      19.108   0.615  30.374  1.00  0.00    -0.011 A 
HETATM    9  C10 UNK     1      19.861   0.399  29.286  1.00  0.00     0.092 A 
HETATM   10  C13 UNK     1      20.863  -0.678  29.202  1.00  0.00     0.288 A 
HETATM   11  O1  UNK     1      21.003  -1.486  30.320  1.00  0.00    -0.275 OA
HETATM   12  O4  UNK     1      21.533  -0.844  28.190  1.00  0.00    -0.260 OA
HETATM   13  C11 UNK     1      20.226  -1.285  31.477  1.00  0.00     0.090 A 
HETATM   14  C9  UNK     1      19.280  -0.260  31.543  1.00  0.00     0.009 A 
HETATM   15  C15 UNK     1      20.451  -2.160  32.541  1.00  0.00     0.041 A 
HETATM   16  C12 UNK     1      18.547  -0.127  32.729  1.00  0.00     0.051 A 
HETATM   17  C16 UNK     1      18.762  -0.997  33.804  1.00  0.00     0.069 A 
HETATM   18  C18 UNK     1      19.713  -2.012  33.710  1.00  0.00     0.039 A 
BRANCH  17  19
HETATM   19  O3  UNK     1      18.038  -0.851  34.948  1.00  0.00    -0.351 OA
BRANCH  19  20
HETATM   20  C23 UNK     1      17.384   0.401  35.147  1.00  0.00     0.171 C 
HETATM   21  C25 UNK     1      15.892   0.166  35.262  1.00  0.00     0.034 C 
ENDBRANCH  19  20
ENDBRANCH  17  19
ENDBRANCH   7   8
ENDBRANCH   1   7
BRANCH   2  22
HETATM   22  C6  UNK     1      19.036   6.932  32.387  1.00  0.00     0.375 C 
BRANCH  22  23
HETATM   23  C8  UNK     1      17.901   7.912  32.654  1.00  0.00     0.252 C 
HETATM   24  O2  UNK     1      17.132   8.225  31.741  1.00  0.00    -0.271 OA
HETATM   25  N3  UNK     1      17.842   8.432  33.969  1.00  0.00    -0.321 N 
HETATM   26  C17 UNK     1      18.789   8.020  35.016  1.00  0.00     0.159 C 
BRANCH  25  27
HETATM   27  C14 UNK     1      16.906   9.482  34.319  1.00  0.00     0.036 A 
HETATM   28  C19 UNK     1      17.272  10.820  34.173  1.00  0.00     0.033 A 
HETATM   29  C21 UNK     1      16.371  11.830  34.509  1.00  0.00     0.044 A 
HETATM   30  C24 UNK     1      15.103  11.501  34.994  1.00  0.00     0.116 A 
HETATM   31  C22 UNK     1      14.738  10.163  35.140  1.00  0.00     0.044 A 
HETATM   32  F1  UNK     1      14.239  12.470  35.318  1.00  0.00    -0.206 F 
HETATM   33  C20 UNK     1      15.640   9.153  34.802  1.00  0.00     0.033 A 
ENDBRANCH  25  27
ENDBRANCH  22  23
ENDBRANCH   2  22
TORSDOF 7
ENDMDL
MODEL 3
REMARK VINA RESULT:      -8.6      2.567      3.905
REMARK  7 active torsions:
REMARK  status: ('A' for Active; 'I' for Inactive)
REMARK    1  A    between atoms: C16_24  and  O3_4 
REMARK    2  A    between atoms: C23_31  and  O3_4 
REMARK    3  A    between atoms: C5_13  and  N1_6 
REMARK    4  A    between atoms: C6_14  and  N2_7 
REMARK    5  A    between atoms: C14_22  and  N3_8 
REMARK       I    between atoms: C8_16  and  N3_8 
REMARK    6  A    between atoms: C5_13  and  C7_15 
REMARK    7  A    between atoms: C6_14  and  C8_16 
ROOT
HETATM    1  N1  UNK     1      26.817  -9.161  37.688  1.00  0.00     0.096 N 
HETATM    2  N2  UNK     1      29.619  -8.677  38.213  1.00  0.00     0.100 N 
HETATM    3  C1  UNK     1      27.395  -9.394  39.017  1.00  0.00     0.303 C 
HETATM    4  C2  UNK     1      27.551  -8.100  36.988  1.00  0.00     0.303 C 
HETATM    5  C3  UNK     1      28.885  -9.739  38.911  1.00  0.00     0.303 C 
HETATM    6  C4  UNK     1      29.041  -8.444  36.882  1.00  0.00     0.303 C 
ENDROOT
BRANCH   1   7
HETATM    7  C5  UNK     1      25.397  -8.829  37.790  1.00  0.00     0.312 C 
BRANCH   7   8
HETATM    8  C7  UNK     1      24.550  -9.721  36.951  1.00  0.00    -0.011 A 
HETATM    9  C10 UNK     1      25.037 -10.862  36.442  1.00  0.00     0.092 A 
HETATM   10  C13 UNK     1      24.238 -11.775  35.607  1.00  0.00     0.288 A 
HETATM   11  O1  UNK     1      22.926 -11.403  35.357  1.00  0.00    -0.275 OA
HETATM   12  O4  UNK     1      24.717 -12.810  35.159  1.00  0.00    -0.260 OA
HETATM   13  C11 UNK     1      22.386 -10.210  35.877  1.00  0.00     0.090 A 
HETATM   14  C9  UNK     1      23.155  -9.354  36.667  1.00  0.00     0.009 A 
HETATM   15  C15 UNK     1      21.055  -9.936  35.560  1.00  0.00     0.041 A 
HETATM   16  C12 UNK     1      22.546  -8.187  37.144  1.00  0.00     0.051 A 
HETATM   17  C16 UNK     1      21.212  -7.899  36.835  1.00  0.00     0.069 A 
HETATM   18  C18 UNK     1      20.467  -8.772  36.043  1.00  0.00     0.039 A 
BRANCH  17  19
HETATM   19  O3  UNK     1      20.638  -6.758  37.308  1.00  0.00    -0.351 OA
BRANCH  19  20
HETATM   20  C23 UNK     1      20.804  -6.476  38.697  1.00  0.00     0.171 C 
HETATM   21  C25 UNK     1      20.031  -7.499  39.504  1.00  0.00     0.034 C 
ENDBRANCH  19  20
ENDBRANCH  17  19
ENDBRANCH   7   8
ENDBRANCH   1   7
BRANCH   2  22
HETATM   22  C6  UNK     1      31.039  -9.006  38.111  1.00  0.00     0.375 C 
BRANCH  22  23
HETATM   23  C8  UNK     1      31.820  -7.765  37.701  1.00  0.00     0.252 C 
HETATM   24  O2  UNK     1      31.838  -6.777  38.440  1.00  0.00    -0.271 OA
HETATM   25  N3  UNK     1      32.456  -7.835  36.439  1.00  0.00    -0.321 N 
HETATM   26  C17 UNK     1      32.400  -9.042  35.600  1.00  0.00     0.159 C 
BRANCH  25  27
HETATM   27  C14 UNK     1      33.107  -6.676  35.861  1.00  0.00     0.036 A 
HETATM   28  C19 UNK     1      34.491  -6.530  35.965  1.00  0.00     0.033 A 
HETATM   29  C21 UNK     1      35.118  -5.416  35.409  1.00  0.00     0.044 A 
HETATM   30  C24 UNK     1      34.362  -4.446  34.749  1.00  0.00     0.116 A 
HETATM   31  C22 UNK     1      32.979  -4.593  34.645  1.00  0.00     0.044 A 
HETATM   32  F1  UNK     1      34.963  -3.376  34.216  1.00  0.00    -0.206 F 
HETATM   33  C20 UNK     1      32.351  -5.708  35.201  1.00  0.00     0.033 A 
ENDBRANCH  25  27
ENDBRANCH  22  23
ENDBRANCH   2  22
TORSDOF 7
ENDMDL
MODEL 4
REMARK VINA RESULT:      -8.4     14.172     19.491
REMARK  7 active torsions:
REMARK  status: ('A' for Active; 'I' for Inactive)
REMARK    1  A    between atoms: C16_24  and  O3_4 
REMARK    2  A    between atoms: C23_31  and  O3_4 
REMARK    3  A    between atoms: C5_13  and  N1_6 
REMARK    4  A    between atoms: C6_14  and  N2_7 
REMARK    5  A    between atoms: C14_22  and  N3_8 
REMARK       I    between atoms: C8_16  and  N3_8 
REMARK    6  A    between atoms: C5_13  and  C7_15 
REMARK    7  A    between atoms: C6_14  and  C8_16 
ROOT
HETATM    1  N1  UNK     1      15.946   8.464  33.060  1.00  0.00     0.096 N 
HETATM    2  N2  UNK     1      17.326   5.938  32.794  1.00  0.00     0.100 N 
HETATM    3  C1  UNK     1      16.246   7.894  31.741  1.00  0.00     0.303 C 
HETATM    4  C2  UNK     1      15.782   7.397  34.055  1.00  0.00     0.303 C 
HETATM    5  C3  UNK     1      17.493   7.006  31.800  1.00  0.00     0.303 C 
HETATM    6  C4  UNK     1      17.028   6.508  34.114  1.00  0.00     0.303 C 
ENDROOT
BRANCH   1   7
HETATM    7  C5  UNK     1      14.755   9.309  33.003  1.00  0.00     0.312 C 
BRANCH   7   8
HETATM    8  C7  UNK     1      15.009  10.676  33.536  1.00  0.00    -0.011 A 
HETATM    9  C10 UNK     1      16.225  11.033  33.975  1.00  0.00     0.092 A 
HETATM   10  C13 UNK     1      16.524  12.373  34.510  1.00  0.00     0.288 A 
HETATM   11  O1  UNK     1      15.474  13.278  34.545  1.00  0.00    -0.275 OA
HETATM   12  O4  UNK     1      17.648  12.664  34.902  1.00  0.00    -0.260 OA
HETATM   13  C11 UNK     1      14.186  12.931  34.091  1.00  0.00     0.090 A 
HETATM   14  C9  UNK     1      13.917  11.658  33.587  1.00  0.00     0.009 A 
HETATM   15  C15 UNK     1      13.207  13.922  34.176  1.00  0.00     0.041 A 
HETATM   16  C12 UNK     1      12.611  11.392  33.158  1.00  0.00     0.051 A 
HETATM   17  C16 UNK     1      11.618  12.375  33.235  1.00  0.00     0.069 A 
HETATM   18  C18 UNK     1      11.916  13.639  33.744  1.00  0.00     0.039 A 
BRANCH  17  19
HETATM   19  O3  UNK     1      10.354  12.096  32.813  1.00  0.00    -0.351 OA
BRANCH  19  20
HETATM   20  C23 UNK     1       9.341  13.054  33.118  1.00  0.00     0.171 C 
HETATM   21  C25 UNK     1       8.131  12.786  32.249  1.00  0.00     0.034 C 
ENDBRANCH  19  20
ENDBRANCH  17  19
ENDBRANCH   7   8
ENDBRANCH   1   7
BRANCH   2  22
HETATM   22  C6  UNK     1      18.517   5.091  32.851  1.00  0.00     0.375 C 
BRANCH  22  23
HETATM   23  C8  UNK     1      18.272   3.818  32.051  1.00  0.00     0.252 C 
HETATM   24  O2  UNK     1      17.649   2.882  32.560  1.00  0.00    -0.271 OA
HETATM   25  N3  UNK     1      18.835   3.796  30.753  1.00  0.00    -0.321 N 
HETATM   26  C17 UNK     1      19.569   4.945  30.200  1.00  0.00     0.159 C 
BRANCH  25  27
HETATM   27  C14 UNK     1      18.805   2.596  29.941  1.00  0.00     0.036 A 
HETATM   28  C19 UNK     1      17.898   2.490  28.886  1.00  0.00     0.033 A 
HETATM   29  C21 UNK     1      17.871   1.335  28.105  1.00  0.00     0.044 A 
HETATM   30  C24 UNK     1      18.749   0.286  28.379  1.00  0.00     0.116 A 
HETATM   31  C22 UNK     1      19.655   0.392  29.434  1.00  0.00     0.044 A 
HETATM   32  F1  UNK     1      18.721  -0.823  27.630  1.00  0.00    -0.206 F 
HETATM   33  C20 UNK     1      19.683   1.548  30.215  1.00  0.00     0.033 A 
ENDBRANCH  25  27
ENDBRANCH  22  23
ENDBRANCH   2  22
TORSDOF 7
ENDMDL
MODEL 5
REMARK VINA RESULT:      -8.3      6.169     10.761
REMARK  7 active torsions:
REMARK  status: ('A' for Active; 'I' for Inactive)
REMARK    1  A    between atoms: C16_24  and  O3_4 
REMARK    2  A    between atoms: C23_31  and  O3_4 
REMARK    3  A    between atoms: C5_13  and  N1_6 
REMARK    4  A    between atoms: C6_14  and  N2_7 
REMARK    5  A    between atoms: C14_22  and  N3_8 
REMARK       I    between atoms: C8_16  and  N3_8 
REMARK    6  A    between atoms: C5_13  and  C7_15 
REMARK    7  A    between atoms: C6_14  and  C8_16 
ROOT
HETATM    1  N1  UNK     1      18.888  -0.830  35.152  1.00  0.00     0.096 N 
HETATM    2  N2  UNK     1      19.580  -3.273  36.536  1.00  0.00     0.100 N 
HETATM    3  C1  UNK     1      19.491  -1.965  34.442  1.00  0.00     0.303 C 
HETATM    4  C2  UNK     1      18.108  -1.301  36.303  1.00  0.00     0.303 C 
HETATM    5  C3  UNK     1      20.361  -2.800  35.386  1.00  0.00     0.303 C 
HETATM    6  C4  UNK     1      18.978  -2.138  37.248  1.00  0.00     0.303 C 
ENDROOT
BRANCH   1   7
HETATM    7  C5  UNK     1      18.055  -0.036  34.251  1.00  0.00     0.312 C 
BRANCH   7   8
HETATM    8  C7  UNK     1      18.609   0.012  32.870  1.00  0.00    -0.011 A 
HETATM    9  C10 UNK     1      19.119  -1.085  32.289  1.00  0.00     0.092 A 
HETATM   10  C13 UNK     1      19.677  -1.085  30.926  1.00  0.00     0.288 A 
HETATM   11  O1  UNK     1      19.659   0.121  30.244  1.00  0.00    -0.275 OA
HETATM   12  O4  UNK     1      20.135  -2.108  30.428  1.00  0.00    -0.260 OA
HETATM   13  C11 UNK     1      19.131   1.290  30.828  1.00  0.00     0.090 A 
HETATM   14  C9  UNK     1      18.605   1.276  32.121  1.00  0.00     0.009 A 
HETATM   15  C15 UNK     1      19.166   2.448  30.050  1.00  0.00     0.041 A 
HETATM   16  C12 UNK     1      18.100   2.480  32.630  1.00  0.00     0.051 A 
HETATM   17  C16 UNK     1      18.128   3.649  31.861  1.00  0.00     0.069 A 
HETATM   18  C18 UNK     1      18.660   3.633  30.573  1.00  0.00     0.039 A 
BRANCH  17  19
HETATM   19  O3  UNK     1      17.633   4.809  32.375  1.00  0.00    -0.351 OA
BRANCH  19  20
HETATM   20  C23 UNK     1      18.246   5.306  33.563  1.00  0.00     0.171 C 
HETATM   21  C25 UNK     1      19.410   6.197  33.182  1.00  0.00     0.034 C 
ENDBRANCH  19  20
ENDBRANCH  17  19
ENDBRANCH   7   8
ENDBRANCH   1   7
BRANCH   2  22
HETATM   22  C6  UNK     1      20.411  -4.069  37.437  1.00  0.00     0.375 C 
BRANCH  22  23
HETATM   23  C8  UNK     1      20.013  -5.535  37.332  1.00  0.00     0.252 C 
HETATM   24  O2  UNK     1      18.935  -5.845  36.817  1.00  0.00    -0.271 OA
HETATM   25  N3  UNK     1      20.931  -6.457  37.889  1.00  0.00    -0.321 N 
HETATM   26  C17 UNK     1      22.203  -6.027  38.491  1.00  0.00     0.159 C 
BRANCH  25  27
HETATM   27  C14 UNK     1      20.612  -7.867  37.989  1.00  0.00     0.036 A 
HETATM   28  C19 UNK     1      20.920  -8.728  36.936  1.00  0.00     0.033 A 
HETATM   29  C21 UNK     1      20.613 -10.085  37.033  1.00  0.00     0.044 A 
HETATM   30  C24 UNK     1      19.998 -10.581  38.183  1.00  0.00     0.116 A 
HETATM   31  C22 UNK     1      19.690  -9.720  39.235  1.00  0.00     0.044 A 
HETATM   32  F1  UNK     1      19.703 -11.883  38.275  1.00  0.00    -0.206 F 
HETATM   33  C20 UNK     1      19.998  -8.362  39.139  1.00  0.00     0.033 A 
ENDBRANCH  25  27
ENDBRANCH  22  23
ENDBRANCH   2  22
TORSDOF 7
ENDMDL
MODEL 6
REMARK VINA RESULT:      -8.3      5.812     10.877
REMARK  7 active torsions:
REMARK  status: ('A' for Active; 'I' for Inactive)
REMARK    1  A    between atoms: C16_24  and  O3_4 
REMARK    2  A    between atoms: C23_31  and  O3_4 
REMARK    3  A    between atoms: C5_13  and  N1_6 
REMARK    4  A    between atoms: C6_14  and  N2_7 
REMARK    5  A    between atoms: C14_22  and  N3_8 
REMARK       I    between atoms: C8_16  and  N3_8 
REMARK    6  A    between atoms: C5_13  and  C7_15 
REMARK    7  A    between atoms: C6_14  and  C8_16 
ROOT
HETATM    1  N1  UNK     1      19.206  -3.221  36.540  1.00  0.00     0.096 N 
HETATM    2  N2  UNK     1      18.269  -0.486  36.578  1.00  0.00     0.100 N 
HETATM    3  C1  UNK     1      19.506  -2.297  35.439  1.00  0.00     0.303 C 
HETATM    4  C2  UNK     1      19.053  -2.485  37.801  1.00  0.00     0.303 C 
HETATM    5  C3  UNK     1      18.420  -1.222  35.317  1.00  0.00     0.303 C 
HETATM    6  C4  UNK     1      17.968  -1.410  37.678  1.00  0.00     0.303 C 
ENDROOT
BRANCH   1   7
HETATM    7  C5  UNK     1      20.243  -4.243  36.658  1.00  0.00     0.312 C 
BRANCH   7   8
HETATM    8  C7  UNK     1      19.678  -5.620  36.658  1.00  0.00    -0.011 A 
HETATM    9  C10 UNK     1      18.593  -5.924  35.930  1.00  0.00     0.092 A 
HETATM   10  C13 UNK     1      17.999  -7.272  35.899  1.00  0.00     0.288 A 
HETATM   11  O1  UNK     1      18.616  -8.244  36.670  1.00  0.00    -0.275 OA
HETATM   12  O4  UNK     1      17.006  -7.512  35.221  1.00  0.00    -0.260 OA
HETATM   13  C11 UNK     1      19.757  -7.954  37.445  1.00  0.00     0.090 A 
HETATM   14  C9  UNK     1      20.310  -6.673  37.466  1.00  0.00     0.009 A 
HETATM   15  C15 UNK     1      20.294  -9.010  38.184  1.00  0.00     0.041 A 
HETATM   16  C12 UNK     1      21.443  -6.467  38.263  1.00  0.00     0.051 A 
HETATM   17  C16 UNK     1      21.993  -7.515  39.009  1.00  0.00     0.069 A 
HETATM   18  C18 UNK     1      21.420  -8.785  38.969  1.00  0.00     0.039 A 
BRANCH  17  19
HETATM   19  O3  UNK     1      23.095  -7.294  39.778  1.00  0.00    -0.351 OA
BRANCH  19  20
HETATM   20  C23 UNK     1      24.285  -6.885  39.105  1.00  0.00     0.171 C 
HETATM   21  C25 UNK     1      25.102  -8.112  38.759  1.00  0.00     0.034 C 
ENDBRANCH  19  20
ENDBRANCH  17  19
ENDBRANCH   7   8
ENDBRANCH   1   7
BRANCH   2  22
HETATM   22  C6  UNK     1      17.233   0.538  36.461  1.00  0.00     0.375 C 
BRANCH  22  23
HETATM   23  C8  UNK     1      17.163   1.028  35.020  1.00  0.00     0.252 C 
HETATM   24  O2  UNK     1      16.299   0.584  34.261  1.00  0.00    -0.271 OA
HETATM   25  N3  UNK     1      18.160   1.961  34.645  1.00  0.00    -0.321 N 
HETATM   26  C17 UNK     1      19.167   2.455  35.597  1.00  0.00     0.159 C 
BRANCH  25  27
HETATM   27  C14 UNK     1      18.301   2.396  33.270  1.00  0.00     0.036 A 
HETATM   28  C19 UNK     1      18.631   1.473  32.277  1.00  0.00     0.033 A 
HETATM   29  C21 UNK     1      18.766   1.892  30.954  1.00  0.00     0.044 A 
HETATM   30  C24 UNK     1      18.573   3.234  30.623  1.00  0.00     0.116 A 
HETATM   31  C22 UNK     1      18.243   4.156  31.617  1.00  0.00     0.044 A 
HETATM   32  F1  UNK     1      18.704   3.636  29.354  1.00  0.00    -0.206 F 
HETATM   33  C20 UNK     1      18.107   3.737  32.940  1.00  0.00     0.033 A 
ENDBRANCH  25  27
ENDBRANCH  22  23
ENDBRANCH   2  22
TORSDOF 7
ENDMDL
MODEL 7
REMARK VINA RESULT:      -8.3      3.617     10.621
REMARK  7 active torsions:
REMARK  status: ('A' for Active; 'I' for Inactive)
REMARK    1  A    between atoms: C16_24  and  O3_4 
REMARK    2  A    between atoms: C23_31  and  O3_4 
REMARK    3  A    between atoms: C5_13  and  N1_6 
REMARK    4  A    between atoms: C6_14  and  N2_7 
REMARK    5  A    between atoms: C14_22  and  N3_8 
REMARK       I    between atoms: C8_16  and  N3_8 
REMARK    6  A    between atoms: C5_13  and  C7_15 
REMARK    7  A    between atoms: C6_14  and  C8_16 
ROOT
HETATM    1  N1  UNK     1      29.315  -9.094  37.825  1.00  0.00     0.096 N 
HETATM    2  N2  UNK     1      26.494  -9.252  37.214  1.00  0.00     0.100 N 
HETATM    3  C1  UNK     1      28.755  -8.439  36.637  1.00  0.00     0.303 C 
HETATM    4  C2  UNK     1      28.308  -9.175  38.890  1.00  0.00     0.303 C 
HETATM    5  C3  UNK     1      27.501  -9.174  36.149  1.00  0.00     0.303 C 
HETATM    6  C4  UNK     1      27.054  -9.908  38.402  1.00  0.00     0.303 C 
ENDROOT
BRANCH   1   7
HETATM    7  C5  UNK     1      30.508  -8.391  38.292  1.00  0.00     0.312 C 
BRANCH   7   8
HETATM    8  C7  UNK     1      30.389  -6.915  38.134  1.00  0.00    -0.011 A 
HETATM    9  C10 UNK     1      29.410  -6.230  38.742  1.00  0.00     0.092 A 
HETATM   10  C13 UNK     1      29.252  -4.771  38.615  1.00  0.00     0.288 A 
HETATM   11  O1  UNK     1      30.177  -4.111  37.820  1.00  0.00    -0.275 OA
HETATM   12  O4  UNK     1      28.345  -4.178  39.187  1.00  0.00    -0.260 OA
HETATM   13  C11 UNK     1      31.216  -4.804  37.168  1.00  0.00     0.090 A 
HETATM   14  C9  UNK     1      31.353  -6.187  37.297  1.00  0.00     0.009 A 
HETATM   15  C15 UNK     1      32.087  -4.037  36.393  1.00  0.00     0.041 A 
HETATM   16  C12 UNK     1      32.411  -6.801  36.615  1.00  0.00     0.051 A 
HETATM   17  C16 UNK     1      33.294  -6.045  35.835  1.00  0.00     0.069 A 
HETATM   18  C18 UNK     1      33.132  -4.665  35.724  1.00  0.00     0.039 A 
BRANCH  17  19
HETATM   19  O3  UNK     1      34.316  -6.662  35.179  1.00  0.00    -0.351 OA
BRANCH  19  20
HETATM   20  C23 UNK     1      35.642  -6.259  35.519  1.00  0.00     0.171 C 
HETATM   21  C25 UNK     1      36.629  -7.118  34.756  1.00  0.00     0.034 C 
ENDBRANCH  19  20
ENDBRANCH  17  19
ENDBRANCH   7   8
ENDBRANCH   1   7
BRANCH   2  22
HETATM   22  C6  UNK     1      25.299  -9.954  36.748  1.00  0.00     0.375 C 
BRANCH  22  23
HETATM   23  C8  UNK     1      24.067  -9.108  37.045  1.00  0.00     0.252 C 
HETATM   24  O2  UNK     1      24.171  -8.089  37.733  1.00  0.00    -0.271 OA
HETATM   25  N3  UNK     1      22.849  -9.601  36.517  1.00  0.00    -0.321 N 
HETATM   26  C17 UNK     1      22.788 -10.824  35.702  1.00  0.00     0.159 C 
BRANCH  25  27
HETATM   27  C14 UNK     1      21.583  -8.978  36.846  1.00  0.00     0.036 A 
HETATM   28  C19 UNK     1      21.015  -8.049  35.973  1.00  0.00     0.033 A 
HETATM   29  C21 UNK     1      19.796  -7.451  36.288  1.00  0.00     0.044 A 
HETATM   30  C24 UNK     1      19.144  -7.780  37.477  1.00  0.00     0.116 A 
HETATM   31  C22 UNK     1      19.711  -8.709  38.350  1.00  0.00     0.044 A 
HETATM   32  F1  UNK     1      17.974  -7.205  37.781  1.00  0.00    -0.206 F 
HETATM   33  C20 UNK     1      20.931  -9.308  38.033  1.00  0.00     0.033 A 
ENDBRANCH  25  27
ENDBRANCH  22  23
ENDBRANCH   2  22
TORSDOF 7
ENDMDL
MODEL 8
REMARK VINA RESULT:      -8.2     10.016     15.062
REMARK  7 active torsions:
REMARK  status: ('A' for Active; 'I' for Inactive)
REMARK    1  A    between atoms: C16_24  and  O3_4 
REMARK    2  A    between atoms: C23_31  and  O3_4 
REMARK    3  A    between atoms: C5_13  and  N1_6 
REMARK    4  A    between atoms: C6_14  and  N2_7 
REMARK    5  A    between atoms: C14_22  and  N3_8 
REMARK       I    between atoms: C8_16  and  N3_8 
REMARK    6  A    between atoms: C5_13  and  C7_15 
REMARK    7  A    between atoms: C6_14  and  C8_16 
ROOT
HETATM    1  N1  UNK     1      18.327   1.610  33.539  1.00  0.00     0.096 N 
HETATM    2  N2  UNK     1      18.283   4.453  33.015  1.00  0.00     0.100 N 
HETATM    3  C1  UNK     1      18.017   2.576  34.600  1.00  0.00     0.303 C 
HETATM    4  C2  UNK     1      17.923   2.137  32.230  1.00  0.00     0.303 C 
HETATM    5  C3  UNK     1      18.689   3.925  34.324  1.00  0.00     0.303 C 
HETATM    6  C4  UNK     1      18.595   3.487  31.954  1.00  0.00     0.303 C 
ENDROOT
BRANCH   1   7
HETATM    7  C5  UNK     1      17.683   0.325  33.802  1.00  0.00     0.312 C 
BRANCH   7   8
HETATM    8  C7  UNK     1      18.670  -0.745  34.119  1.00  0.00    -0.011 A 
HETATM    9  C10 UNK     1      18.899  -1.124  35.385  1.00  0.00     0.092 A 
HETATM   10  C13 UNK     1      19.864  -2.176  35.746  1.00  0.00     0.288 A 
HETATM   11  O1  UNK     1      20.550  -2.777  34.702  1.00  0.00    -0.275 OA
HETATM   12  O4  UNK     1      20.047  -2.496  36.915  1.00  0.00    -0.260 OA
HETATM   13  C11 UNK     1      20.332  -2.399  33.362  1.00  0.00     0.090 A 
HETATM   14  C9  UNK     1      19.413  -1.401  33.034  1.00  0.00     0.009 A 
HETATM   15  C15 UNK     1      21.079  -3.072  32.394  1.00  0.00     0.041 A 
HETATM   16  C12 UNK     1      19.256  -1.083  31.679  1.00  0.00     0.051 A 
HETATM   17  C16 UNK     1      19.997  -1.749  30.697  1.00  0.00     0.069 A 
HETATM   18  C18 UNK     1      20.908  -2.742  31.054  1.00  0.00     0.039 A 
BRANCH  17  19
HETATM   19  O3  UNK     1      19.830  -1.425  29.385  1.00  0.00    -0.351 OA
BRANCH  19  20
HETATM   20  C23 UNK     1      20.186  -0.099  28.994  1.00  0.00     0.171 C 
HETATM   21  C25 UNK     1      18.933   0.649  28.588  1.00  0.00     0.034 C 
ENDBRANCH  19  20
ENDBRANCH  17  19
ENDBRANCH   7   8
ENDBRANCH   1   7
BRANCH   2  22
HETATM   22  C6  UNK     1      18.925   5.739  32.752  1.00  0.00     0.375 C 
BRANCH  22  23
HETATM   23  C8  UNK     1      17.914   6.861  32.948  1.00  0.00     0.252 C 
HETATM   24  O2  UNK     1      16.960   6.971  32.173  1.00  0.00    -0.271 OA
HETATM   25  N3  UNK     1      18.182   7.741  34.023  1.00  0.00    -0.321 N 
HETATM   26  C17 UNK     1      19.337   7.558  34.915  1.00  0.00     0.159 C 
BRANCH  25  27
HETATM   27  C14 UNK     1      17.386   8.934  34.232  1.00  0.00     0.036 A 
HETATM   28  C19 UNK     1      17.917  10.189  33.931  1.00  0.00     0.033 A 
HETATM   29  C21 UNK     1      17.151  11.336  34.132  1.00  0.00     0.044 A 
HETATM   30  C24 UNK     1      15.853  11.230  34.636  1.00  0.00     0.116 A 
HETATM   31  C22 UNK     1      15.323   9.976  34.937  1.00  0.00     0.044 A 
HETATM   32  F1  UNK     1      15.118  12.331  34.830  1.00  0.00    -0.206 F 
HETATM   33  C20 UNK     1      16.090   8.827  34.735  1.00  0.00     0.033 A 
ENDBRANCH  25  27
ENDBRANCH  22  23
ENDBRANCH   2  22
TORSDOF 7
ENDMDL
MODEL 9
REMARK VINA RESULT:      -8.1      2.870      5.006
REMARK  7 active torsions:
REMARK  status: ('A' for Active; 'I' for Inactive)
REMARK    1  A    between atoms: C16_24  and  O3_4 
REMARK    2  A    between atoms: C23_31  and  O3_4 
REMARK    3  A    between atoms: C5_13  and  N1_6 
REMARK    4  A    between atoms: C6_14  and  N2_7 
REMARK    5  A    between atoms: C14_22  and  N3_8 
REMARK       I    between atoms: C8_16  and  N3_8 
REMARK    6  A    between atoms: C5_13  and  C7_15 
REMARK    7  A    between atoms: C6_14  and  C8_16 
ROOT
HETATM    1  N1  UNK     1      25.399  -8.049  38.550  1.00  0.00     0.096 N 
HETATM    2  N2  UNK     1      28.283  -7.849  38.499  1.00  0.00     0.100 N 
HETATM    3  C1  UNK     1      26.249  -9.155  39.007  1.00  0.00     0.303 C 
HETATM    4  C2  UNK     1      26.078  -6.763  38.754  1.00  0.00     0.303 C 
HETATM    5  C3  UNK     1      27.604  -9.134  38.293  1.00  0.00     0.303 C 
HETATM    6  C4  UNK     1      27.434  -6.741  38.041  1.00  0.00     0.303 C 
ENDROOT
BRANCH   1   7
HETATM    7  C5  UNK     1      24.108  -8.068  39.234  1.00  0.00     0.312 C 
BRANCH   7   8
HETATM    8  C7  UNK     1      23.002  -7.587  38.360  1.00  0.00    -0.011 A 
HETATM    9  C10 UNK     1      22.381  -6.424  38.605  1.00  0.00     0.092 A 
HETATM   10  C13 UNK     1      21.283  -5.909  37.769  1.00  0.00     0.288 A 
HETATM   11  O1  UNK     1      20.901  -6.690  36.690  1.00  0.00    -0.275 OA
HETATM   12  O4  UNK     1      20.739  -4.840  38.024  1.00  0.00    -0.260 OA
HETATM   13  C11 UNK     1      21.535  -7.917  36.408  1.00  0.00     0.090 A 
HETATM   14  C9  UNK     1      22.574  -8.394  37.208  1.00  0.00     0.009 A 
HETATM   15  C15 UNK     1      21.067  -8.620  35.297  1.00  0.00     0.041 A 
HETATM   16  C12 UNK     1      23.150  -9.623  36.862  1.00  0.00     0.051 A 
HETATM   17  C16 UNK     1      22.693 -10.339  35.750  1.00  0.00     0.069 A 
HETATM   18  C18 UNK     1      21.653  -9.838  34.969  1.00  0.00     0.039 A 
BRANCH  17  19
HETATM   19  O3  UNK     1      23.266 -11.532  35.431  1.00  0.00    -0.351 OA
BRANCH  19  20
HETATM   20  C23 UNK     1      24.499 -11.853  36.074  1.00  0.00     0.171 C 
HETATM   21  C25 UNK     1      24.696 -13.354  36.040  1.00  0.00     0.034 C 
ENDBRANCH  19  20
ENDBRANCH  17  19
ENDBRANCH   7   8
ENDBRANCH   1   7
BRANCH   2  22
HETATM   22  C6  UNK     1      29.576  -7.828  37.817  1.00  0.00     0.375 C 
BRANCH  22  23
HETATM   23  C8  UNK     1      29.354  -7.742  36.313  1.00  0.00     0.252 C 
HETATM   24  O2  UNK     1      28.895  -8.710  35.702  1.00  0.00    -0.271 OA
HETATM   25  N3  UNK     1      29.744  -6.523  35.709  1.00  0.00    -0.321 N 
HETATM   26  C17 UNK     1      30.286  -5.401  36.491  1.00  0.00     0.159 C 
BRANCH  25  27
HETATM   27  C14 UNK     1      29.725  -6.358  34.269  1.00  0.00     0.036 A 
HETATM   28  C19 UNK     1      28.516  -6.144  33.607  1.00  0.00     0.033 A 
HETATM   29  C21 UNK     1      28.499  -5.985  32.222  1.00  0.00     0.044 A 
HETATM   30  C24 UNK     1      29.691  -6.042  31.498  1.00  0.00     0.116 A 
HETATM   31  C22 UNK     1      30.899  -6.256  32.160  1.00  0.00     0.044 A 
HETATM   32  F1  UNK     1      29.674  -5.891  30.168  1.00  0.00    -0.206 F 
HETATM   33  C20 UNK     1      30.917  -6.414  33.547  1.00  0.00     0.033 A 
ENDBRANCH  25  27
ENDBRANCH  22  23
ENDBRANCH   2  22
TORSDOF 7
ENDMDL
MODEL 10
REMARK VINA RESULT:      -8.0      6.662     11.586
REMARK  7 active torsions:
REMARK  status: ('A' for Active; 'I' for Inactive)
REMARK    1  A    between atoms: C16_24  and  O3_4 
REMARK    2  A    between atoms: C23_31  and  O3_4 
REMARK    3  A    between atoms: C5_13  and  N1_6 
REMARK    4  A    between atoms: C6_14  and  N2_7 
REMARK    5  A    between atoms: C14_22  and  N3_8 
REMARK       I    between atoms: C8_16  and  N3_8 
REMARK    6  A    between atoms: C5_13  and  C7_15 
REMARK    7  A    between atoms: C6_14  and  C8_16 
ROOT
HETATM    1  N1  UNK     1      19.372  -2.566  35.947  1.00  0.00     0.096 N 
HETATM    2  N2  UNK     1      18.678  -0.065  34.673  1.00  0.00     0.100 N 
HETATM    3  C1  UNK     1      20.080  -2.099  34.749  1.00  0.00     0.303 C 
HETATM    4  C2  UNK     1      18.873  -1.426  36.726  1.00  0.00     0.303 C 
HETATM    5  C3  UNK     1      19.174  -1.206  33.894  1.00  0.00     0.303 C 
HETATM    6  C4  UNK     1      17.968  -0.533  35.870  1.00  0.00     0.303 C 
ENDROOT
BRANCH   1   7
HETATM    7  C5  UNK     1      20.237  -3.414  36.764  1.00  0.00     0.312 C 
BRANCH   7   8
HETATM    8  C7  UNK     1      19.659  -4.771  36.973  1.00  0.00    -0.011 A 
HETATM    9  C10 UNK     1      18.400  -5.051  36.607  1.00  0.00     0.092 A 
HETATM   10  C13 UNK     1      17.786  -6.378  36.793  1.00  0.00     0.288 A 
HETATM   11  O1  UNK     1      18.577  -7.354  37.377  1.00  0.00    -0.275 OA
HETATM   12  O4  UNK     1      16.631  -6.597  36.446  1.00  0.00    -0.260 OA
HETATM   13  C11 UNK     1      19.904  -7.089  37.772  1.00  0.00     0.090 A 
HETATM   14  C9  UNK     1      20.473  -5.828  37.590  1.00  0.00     0.009 A 
HETATM   15  C15 UNK     1      20.606  -8.147  38.351  1.00  0.00     0.041 A 
HETATM   16  C12 UNK     1      21.796  -5.645  38.011  1.00  0.00     0.051 A 
HETATM   17  C16 UNK     1      22.513  -6.697  38.593  1.00  0.00     0.069 A 
HETATM   18  C18 UNK     1      21.919  -7.946  38.762  1.00  0.00     0.039 A 
BRANCH  17  19
HETATM   19  O3  UNK     1      23.799  -6.498  38.996  1.00  0.00    -0.351 OA
BRANCH  19  20
HETATM   20  C23 UNK     1      24.681  -7.618  38.928  1.00  0.00     0.171 C 
HETATM   21  C25 UNK     1      26.092  -7.120  38.691  1.00  0.00     0.034 C 
ENDBRANCH  19  20
ENDBRANCH  17  19
ENDBRANCH   7   8
ENDBRANCH   1   7
BRANCH   2  22
HETATM   22  C6  UNK     1      17.814   0.785  33.856  1.00  0.00     0.375 C 
BRANCH  22  23
HETATM   23  C8  UNK     1      18.109   2.248  34.160  1.00  0.00     0.252 C 
HETATM   24  O2  UNK     1      18.183   2.632  35.330  1.00  0.00    -0.271 OA
HETATM   25  N3  UNK     1      18.244   3.089  33.029  1.00  0.00    -0.321 N 
HETATM   26  C17 UNK     1      18.146   2.573  31.654  1.00  0.00     0.159 C 
BRANCH  25  27
HETATM   27  C14 UNK     1      18.379   4.525  33.173  1.00  0.00     0.036 A 
HETATM   28  C19 UNK     1      17.462   5.377  32.556  1.00  0.00     0.033 A 
HETATM   29  C21 UNK     1      17.592   6.758  32.696  1.00  0.00     0.044 A 
HETATM   30  C24 UNK     1      18.639   7.288  33.451  1.00  0.00     0.116 A 
HETATM   31  C22 UNK     1      19.556   6.436  34.066  1.00  0.00     0.044 A 
HETATM   32  F1  UNK     1      18.765   8.614  33.583  1.00  0.00    -0.206 F 
HETATM   33  C20 UNK     1      19.425   5.054  33.928  1.00  0.00     0.033 A 
ENDBRANCH  25  27
ENDBRANCH  22  23
ENDBRANCH   2  22
TORSDOF 7
ENDMDL
