MODEL 1
REMARK VINA RESULT:      -8.1      0.000      0.000
REMARK  5 active torsions:
REMARK  status: ('A' for Active; 'I' for Inactive)
REMARK    1  A    between atoms: C16_20  and  O2_2 
REMARK    2  A    between atoms: C8_12  and  O2_2 
REMARK    3  A    between atoms: C15_19  and  O4_4 
REMARK    4  A    between atoms: C2_6  and  C5_9 
REMARK    5  A    between atoms: C16_20  and  C17_21 
ROOT
HETATM    1  O1  UNK     1      17.913   4.164  33.544  1.00  0.00    -0.321 OA
HETATM    2  O3  UNK     1      18.732   6.941  30.669  1.00  0.00    -0.286 OA
HETATM    3  C1  UNK     1      18.520   4.669  31.248  1.00  0.00     0.049 A 
HETATM    4  C2  UNK     1      18.086   6.505  32.919  1.00  0.00     0.048 A 
HETATM    5  C3  UNK     1      18.241   3.765  32.274  1.00  0.00     0.091 A 
HETATM    6  C4  UNK     1      18.465   6.115  31.533  1.00  0.00     0.197 A 
HETATM    7  C6  UNK     1      18.850   4.205  29.972  1.00  0.00     0.021 A 
HETATM    8  C7  UNK     1      18.291   2.393  32.028  1.00  0.00     0.075 A 
HETATM    9  C8  UNK     1      18.620   1.928  30.755  1.00  0.00     0.071 A 
HETATM   10  C9  UNK     1      17.845   5.514  33.790  1.00  0.00     0.159 A 
HETATM   11  C10 UNK     1      18.898   2.832  29.730  1.00  0.00     0.038 A 
ENDROOT
BRANCH   4  12
HETATM   12  C5  UNK     1      17.957   7.913  33.325  1.00  0.00    -0.020 A 
HETATM   13  C11 UNK     1      16.719   8.555  33.243  1.00  0.00     0.015 A 
HETATM   14  C13 UNK     1      16.598   9.892  33.628  1.00  0.00     0.037 A 
HETATM   15  C15 UNK     1      17.713  10.587  34.095  1.00  0.00     0.068 A 
HETATM   16  C14 UNK     1      18.949   9.948  34.178  1.00  0.00     0.037 A 
HETATM   17  C12 UNK     1      19.071   8.612  33.792  1.00  0.00     0.015 A 
BRANCH  15  18
HETATM   18  O4  UNK     1      17.593  11.890  34.471  1.00  0.00    -0.356 OA
HETATM   19  C20 UNK     1      16.289  12.344  34.830  1.00  0.00     0.210 C 
ENDBRANCH  15  18
ENDBRANCH   4  12
BRANCH   9  20
HETATM   20  O2  UNK     1      18.667   0.589  30.512  1.00  0.00    -0.347 OA
BRANCH  20  21
HETATM   21  C16 UNK     1      19.641  -0.168  31.232  1.00  0.00     0.208 C 
BRANCH  21  22
HETATM   22  C17 UNK     1      20.292  -1.157  30.308  1.00  0.00    -0.069 C 
HETATM   23  C18 UNK     1      20.655  -0.666  28.937  1.00  0.00     0.044 C 
HETATM   24  C19 UNK     1      20.558  -2.413  30.698  1.00  0.00     0.016 C 
ENDBRANCH  21  22
ENDBRANCH  20  21
ENDBRANCH   9  20
TORSDOF 5
ENDMDL
MODEL 2
REMARK VINA RESULT:      -7.6      0.907      2.161
REMARK  5 active torsions:
REMARK  status: ('A' for Active; 'I' for Inactive)
REMARK    1  A    between atoms: C16_20  and  O2_2 
REMARK    2  A    between atoms: C8_12  and  O2_2 
REMARK    3  A    between atoms: C15_19  and  O4_4 
REMARK    4  A    between atoms: C2_6  and  C5_9 
REMARK    5  A    between atoms: C16_20  and  C17_21 
ROOT
HETATM    1  O1  UNK     1      18.610   5.512  30.265  1.00  0.00    -0.321 OA
HETATM    2  O3  UNK     1      17.446   5.396  34.174  1.00  0.00    -0.286 OA
HETATM    3  C1  UNK     1      18.184   4.217  32.273  1.00  0.00     0.049 A 
HETATM    4  C2  UNK     1      17.897   6.721  32.247  1.00  0.00     0.048 A 
HETATM    5  C3  UNK     1      18.564   4.317  30.935  1.00  0.00     0.091 A 
HETATM    6  C4  UNK     1      17.814   5.442  33.006  1.00  0.00     0.197 A 
HETATM    7  C6  UNK     1      18.153   2.972  32.906  1.00  0.00     0.021 A 
HETATM    8  C7  UNK     1      18.914   3.171  30.221  1.00  0.00     0.075 A 
HETATM    9  C8  UNK     1      18.884   1.926  30.850  1.00  0.00     0.071 A 
HETATM   10  C9  UNK     1      18.283   6.648  30.964  1.00  0.00     0.159 A 
HETATM   11  C10 UNK     1      18.505   1.827  32.189  1.00  0.00     0.038 A 
ENDROOT
BRANCH   4  12
HETATM   12  C5  UNK     1      17.593   8.019  32.870  1.00  0.00    -0.020 A 
HETATM   13  C11 UNK     1      18.601   8.743  33.509  1.00  0.00     0.015 A 
HETATM   14  C13 UNK     1      18.311   9.975  34.099  1.00  0.00     0.037 A 
HETATM   15  C15 UNK     1      17.013  10.482  34.053  1.00  0.00     0.068 A 
HETATM   16  C14 UNK     1      16.005   9.760  33.415  1.00  0.00     0.037 A 
HETATM   17  C12 UNK     1      16.294   8.529  32.825  1.00  0.00     0.015 A 
BRANCH  15  18
HETATM   18  O4  UNK     1      16.732  11.683  34.628  1.00  0.00    -0.356 OA
HETATM   19  C20 UNK     1      17.695  12.722  34.464  1.00  0.00     0.210 C 
ENDBRANCH  15  18
ENDBRANCH   4  12
BRANCH   9  20
HETATM   20  O2  UNK     1      19.228   0.806  30.157  1.00  0.00    -0.347 OA
BRANCH  20  21
HETATM   21  C16 UNK     1      20.433   0.146  30.545  1.00  0.00     0.208 C 
BRANCH  21  22
HETATM   22  C17 UNK     1      20.142  -1.296  30.847  1.00  0.00    -0.069 C 
HETATM   23  C18 UNK     1      19.531  -1.598  32.185  1.00  0.00     0.044 C 
HETATM   24  C19 UNK     1      20.395  -2.266  29.956  1.00  0.00     0.016 C 
ENDBRANCH  21  22
ENDBRANCH  20  21
ENDBRANCH   9  20
TORSDOF 5
ENDMDL
MODEL 3
REMARK VINA RESULT:      -7.6      1.491      9.150
REMARK  5 active torsions:
REMARK  status: ('A' for Active; 'I' for Inactive)
REMARK    1  A    between atoms: C16_20  and  O2_2 
REMARK    2  A    between atoms: C8_12  and  O2_2 
REMARK    3  A    between atoms: C15_19  and  O4_4 
REMARK    4  A    between atoms: C2_6  and  C5_9 
REMARK    5  A    between atoms: C16_20  and  C17_21 
ROOT
HETATM    1  O1  UNK     1      18.646   6.066  30.198  1.00  0.00    -0.321 OA
HETATM    2  O3  UNK     1      17.918   3.070  32.871  1.00  0.00    -0.286 OA
HETATM    3  C1  UNK     1      17.821   5.369  32.372  1.00  0.00     0.049 A 
HETATM    4  C2  UNK     1      18.693   3.691  30.707  1.00  0.00     0.048 A 
HETATM    5  C3  UNK     1      18.101   6.352  31.423  1.00  0.00     0.091 A 
HETATM    6  C4  UNK     1      18.121   3.960  32.055  1.00  0.00     0.197 A 
HETATM    7  C6  UNK     1      17.266   5.719  33.606  1.00  0.00     0.021 A 
HETATM    8  C7  UNK     1      17.829   7.691  31.704  1.00  0.00     0.075 A 
HETATM    9  C8  UNK     1      17.276   8.043  32.935  1.00  0.00     0.071 A 
HETATM   10  C9  UNK     1      18.902   4.747  29.907  1.00  0.00     0.159 A 
HETATM   11  C10 UNK     1      16.994   7.059  33.883  1.00  0.00     0.038 A 
ENDROOT
BRANCH   4  12
HETATM   12  C5  UNK     1      19.002   2.327  30.249  1.00  0.00    -0.020 A 
HETATM   13  C11 UNK     1      18.575   1.896  28.992  1.00  0.00     0.015 A 
HETATM   14  C13 UNK     1      18.869   0.601  28.559  1.00  0.00     0.037 A 
HETATM   15  C15 UNK     1      19.590  -0.263  29.383  1.00  0.00     0.068 A 
HETATM   16  C14 UNK     1      20.018   0.166  30.638  1.00  0.00     0.037 A 
HETATM   17  C12 UNK     1      19.724   1.459  31.072  1.00  0.00     0.015 A 
BRANCH  15  18
HETATM   18  O4  UNK     1      19.877  -1.524  28.959  1.00  0.00    -0.356 OA
HETATM   19  C20 UNK     1      20.539  -2.385  29.884  1.00  0.00     0.210 C 
ENDBRANCH  15  18
ENDBRANCH   4  12
BRANCH   9  20
HETATM   20  O2  UNK     1      17.007   9.349  33.210  1.00  0.00    -0.347 OA
BRANCH  20  21
HETATM   21  C16 UNK     1      16.498   9.647  34.511  1.00  0.00     0.208 C 
BRANCH  21  22
HETATM   22  C17 UNK     1      15.159  10.316  34.385  1.00  0.00    -0.069 C 
HETATM   23  C18 UNK     1      14.491  10.249  33.043  1.00  0.00     0.044 C 
HETATM   24  C19 UNK     1      14.577  10.925  35.430  1.00  0.00     0.016 C 
ENDBRANCH  21  22
ENDBRANCH  20  21
ENDBRANCH   9  20
TORSDOF 5
ENDMDL
MODEL 4
REMARK VINA RESULT:      -7.5      2.107      9.311
REMARK  5 active torsions:
REMARK  status: ('A' for Active; 'I' for Inactive)
REMARK    1  A    between atoms: C16_20  and  O2_2 
REMARK    2  A    between atoms: C8_12  and  O2_2 
REMARK    3  A    between atoms: C15_19  and  O4_4 
REMARK    4  A    between atoms: C2_6  and  C5_9 
REMARK    5  A    between atoms: C16_20  and  C17_21 
ROOT
HETATM    1  O1  UNK     1      19.157   8.528  33.710  1.00  0.00    -0.321 OA
HETATM    2  O3  UNK     1      15.862   6.977  31.870  1.00  0.00    -0.286 OA
HETATM    3  C1  UNK     1      16.823   8.752  33.081  1.00  0.00     0.049 A 
HETATM    4  C2  UNK     1      18.166   6.726  32.417  1.00  0.00     0.048 A 
HETATM    5  C3  UNK     1      17.978   9.227  33.702  1.00  0.00     0.091 A 
HETATM    6  C4  UNK     1      16.861   7.443  32.402  1.00  0.00     0.197 A 
HETATM    7  C6  UNK     1      15.649   9.508  33.106  1.00  0.00     0.021 A 
HETATM    8  C7  UNK     1      17.964  10.461  34.353  1.00  0.00     0.075 A 
HETATM    9  C8  UNK     1      16.792  11.218  34.380  1.00  0.00     0.071 A 
HETATM   10  C9  UNK     1      19.185   7.319  33.057  1.00  0.00     0.159 A 
HETATM   11  C10 UNK     1      15.638  10.743  33.757  1.00  0.00     0.038 A 
ENDROOT
BRANCH   4  12
HETATM   12  C5  UNK     1      18.350   5.430  31.744  1.00  0.00    -0.020 A 
HETATM   13  C11 UNK     1      18.832   5.382  30.435  1.00  0.00     0.015 A 
HETATM   14  C13 UNK     1      19.007   4.152  29.798  1.00  0.00     0.037 A 
HETATM   15  C15 UNK     1      18.699   2.969  30.469  1.00  0.00     0.068 A 
HETATM   16  C14 UNK     1      18.218   3.015  31.777  1.00  0.00     0.037 A 
HETATM   17  C12 UNK     1      18.043   4.244  32.414  1.00  0.00     0.015 A 
BRANCH  15  18
HETATM   18  O4  UNK     1      18.871   1.770  29.848  1.00  0.00    -0.356 OA
HETATM   19  C20 UNK     1      18.069   1.516  28.696  1.00  0.00     0.210 C 
ENDBRANCH  15  18
ENDBRANCH   4  12
BRANCH   9  20
HETATM   20  O2  UNK     1      16.776  12.423  35.012  1.00  0.00    -0.347 OA
BRANCH  20  21
HETATM   21  C16 UNK     1      17.897  13.282  34.800  1.00  0.00     0.208 C 
BRANCH  21  22
HETATM   22  C17 UNK     1      17.706  14.051  33.524  1.00  0.00    -0.069 C 
HETATM   23  C18 UNK     1      18.843  14.030  32.545  1.00  0.00     0.044 C 
HETATM   24  C19 UNK     1      16.565  14.706  33.262  1.00  0.00     0.016 C 
ENDBRANCH  21  22
ENDBRANCH  20  21
ENDBRANCH   9  20
TORSDOF 5
ENDMDL
MODEL 5
REMARK VINA RESULT:      -7.5      5.976     11.480
REMARK  5 active torsions:
REMARK  status: ('A' for Active; 'I' for Inactive)
REMARK    1  A    between atoms: C16_20  and  O2_2 
REMARK    2  A    between atoms: C8_12  and  O2_2 
REMARK    3  A    between atoms: C15_19  and  O4_4 
REMARK    4  A    between atoms: C2_6  and  C5_9 
REMARK    5  A    between atoms: C16_20  and  C17_21 
ROOT
HETATM    1  O1  UNK     1      19.724  -1.914  33.957  1.00  0.00    -0.321 OA
HETATM    2  O3  UNK     1      18.644  -2.024  37.891  1.00  0.00    -0.286 OA
HETATM    3  C1  UNK     1      18.581  -0.881  35.833  1.00  0.00     0.049 A 
HETATM    4  C2  UNK     1      19.738  -3.107  36.073  1.00  0.00     0.048 A 
HETATM    5  C3  UNK     1      18.988  -0.892  34.499  1.00  0.00     0.091 A 
HETATM    6  C4  UNK     1      18.956  -2.009  36.706  1.00  0.00     0.197 A 
HETATM    7  C6  UNK     1      17.833   0.188  36.332  1.00  0.00     0.021 A 
HETATM    8  C7  UNK     1      18.648   0.166  33.656  1.00  0.00     0.075 A 
HETATM    9  C8  UNK     1      17.901   1.235  34.152  1.00  0.00     0.071 A 
HETATM   10  C9  UNK     1      20.049  -2.969  34.776  1.00  0.00     0.159 A 
HETATM   11  C10 UNK     1      17.494   1.245  35.486  1.00  0.00     0.038 A 
ENDROOT
BRANCH   4  12
HETATM   12  C5  UNK     1      20.142  -4.308  36.822  1.00  0.00    -0.020 A 
HETATM   13  C11 UNK     1      21.335  -4.312  37.548  1.00  0.00     0.015 A 
HETATM   14  C13 UNK     1      21.718  -5.451  38.258  1.00  0.00     0.037 A 
HETATM   15  C15 UNK     1      20.909  -6.588  38.242  1.00  0.00     0.068 A 
HETATM   16  C14 UNK     1      19.717  -6.585  37.518  1.00  0.00     0.037 A 
HETATM   17  C12 UNK     1      19.334  -5.446  36.808  1.00  0.00     0.015 A 
BRANCH  15  18
HETATM   18  O4  UNK     1      21.283  -7.698  38.935  1.00  0.00    -0.356 OA
HETATM   19  C20 UNK     1      22.446  -7.590  39.755  1.00  0.00     0.210 C 
ENDBRANCH  15  18
ENDBRANCH   4  12
BRANCH   9  20
HETATM   20  O2  UNK     1      17.567   2.268  33.331  1.00  0.00    -0.347 OA
BRANCH  20  21
HETATM   21  C16 UNK     1      18.244   3.508  33.538  1.00  0.00     0.208 C 
BRANCH  21  22
HETATM   22  C17 UNK     1      18.164   4.339  32.290  1.00  0.00    -0.069 C 
HETATM   23  C18 UNK     1      18.541   3.666  31.002  1.00  0.00     0.044 C 
HETATM   24  C19 UNK     1      17.752   5.616  32.321  1.00  0.00     0.016 C 
ENDBRANCH  21  22
ENDBRANCH  20  21
ENDBRANCH   9  20
TORSDOF 5
ENDMDL
MODEL 6
REMARK VINA RESULT:      -7.4      7.955     11.747
REMARK  5 active torsions:
REMARK  status: ('A' for Active; 'I' for Inactive)
REMARK    1  A    between atoms: C16_20  and  O2_2 
REMARK    2  A    between atoms: C8_12  and  O2_2 
REMARK    3  A    between atoms: C15_19  and  O4_4 
REMARK    4  A    between atoms: C2_6  and  C5_9 
REMARK    5  A    between atoms: C16_20  and  C17_21 
ROOT
HETATM    1  O1  UNK     1      21.661  -5.212  37.422  1.00  0.00    -0.321 OA
HETATM    2  O3  UNK     1      17.674  -4.983  36.588  1.00  0.00    -0.286 OA
HETATM    3  C1  UNK     1      19.528  -6.331  37.125  1.00  0.00     0.049 A 
HETATM    4  C2  UNK     1      19.730  -3.828  36.917  1.00  0.00     0.048 A 
HETATM    5  C3  UNK     1      20.897  -6.349  37.394  1.00  0.00     0.091 A 
HETATM    6  C4  UNK     1      18.867  -5.040  36.857  1.00  0.00     0.197 A 
HETATM    7  C6  UNK     1      18.798  -7.522  37.108  1.00  0.00     0.021 A 
HETATM    8  C7  UNK     1      21.542  -7.559  37.646  1.00  0.00     0.075 A 
HETATM    9  C8  UNK     1      20.816  -8.750  37.629  1.00  0.00     0.071 A 
HETATM   10  C9  UNK     1      21.030  -4.013  37.191  1.00  0.00     0.159 A 
HETATM   11  C10 UNK     1      19.447  -8.731  37.362  1.00  0.00     0.038 A 
ENDROOT
BRANCH   4  12
HETATM   12  C5  UNK     1      19.190  -2.475  36.708  1.00  0.00    -0.020 A 
HETATM   13  C11 UNK     1      19.406  -1.814  35.497  1.00  0.00     0.015 A 
HETATM   14  C13 UNK     1      18.893  -0.531  35.299  1.00  0.00     0.037 A 
HETATM   15  C15 UNK     1      18.165   0.093  36.311  1.00  0.00     0.068 A 
HETATM   16  C14 UNK     1      17.947  -0.566  37.521  1.00  0.00     0.037 A 
HETATM   17  C12 UNK     1      18.460  -1.848  37.720  1.00  0.00     0.015 A 
BRANCH  15  18
HETATM   18  O4  UNK     1      17.664   1.344  36.117  1.00  0.00    -0.356 OA
HETATM   19  C20 UNK     1      18.291   2.145  35.116  1.00  0.00     0.210 C 
ENDBRANCH  15  18
ENDBRANCH   4  12
BRANCH   9  20
HETATM   20  O2  UNK     1      21.443  -9.932  37.878  1.00  0.00    -0.347 OA
BRANCH  20  21
HETATM   21  C16 UNK     1      21.214 -10.996  36.953  1.00  0.00     0.208 C 
BRANCH  21  22
HETATM   22  C17 UNK     1      22.131 -10.843  35.773  1.00  0.00    -0.069 C 
HETATM   23  C18 UNK     1      23.465 -11.525  35.861  1.00  0.00     0.044 C 
HETATM   24  C19 UNK     1      21.765 -10.151  34.684  1.00  0.00     0.016 C 
ENDBRANCH  21  22
ENDBRANCH  20  21
ENDBRANCH   9  20
TORSDOF 5
ENDMDL
MODEL 7
REMARK VINA RESULT:      -7.4      2.356      9.545
REMARK  5 active torsions:
REMARK  status: ('A' for Active; 'I' for Inactive)
REMARK    1  A    between atoms: C16_20  and  O2_2 
REMARK    2  A    between atoms: C8_12  and  O2_2 
REMARK    3  A    between atoms: C15_19  and  O4_4 
REMARK    4  A    between atoms: C2_6  and  C5_9 
REMARK    5  A    between atoms: C16_20  and  C17_21 
ROOT
HETATM    1  O1  UNK     1      18.182   9.262  33.960  1.00  0.00    -0.321 OA
HETATM    2  O3  UNK     1      15.388   7.501  31.565  1.00  0.00    -0.286 OA
HETATM    3  C1  UNK     1      15.969   9.303  32.965  1.00  0.00     0.049 A 
HETATM    4  C2  UNK     1      17.588   7.435  32.473  1.00  0.00     0.048 A 
HETATM    5  C3  UNK     1      16.958   9.853  33.780  1.00  0.00     0.091 A 
HETATM    6  C4  UNK     1      16.240   8.032  32.266  1.00  0.00     0.197 A 
HETATM    7  C6  UNK     1      14.738   9.948  32.819  1.00  0.00     0.021 A 
HETATM    8  C7  UNK     1      16.722  11.051  34.453  1.00  0.00     0.075 A 
HETATM    9  C8  UNK     1      15.495  11.697  34.309  1.00  0.00     0.071 A 
HETATM   10  C9  UNK     1      18.430   8.090  33.287  1.00  0.00     0.159 A 
HETATM   11  C10 UNK     1      14.506  11.147  33.493  1.00  0.00     0.038 A 
ENDROOT
BRANCH   4  12
HETATM   12  C5  UNK     1      18.001   6.191  31.804  1.00  0.00    -0.020 A 
HETATM   13  C11 UNK     1      17.750   4.956  32.406  1.00  0.00     0.015 A 
HETATM   14  C13 UNK     1      18.142   3.776  31.771  1.00  0.00     0.037 A 
HETATM   15  C15 UNK     1      18.785   3.830  30.535  1.00  0.00     0.068 A 
HETATM   16  C14 UNK     1      19.035   5.062  29.932  1.00  0.00     0.037 A 
HETATM   17  C12 UNK     1      18.644   6.242  30.566  1.00  0.00     0.015 A 
BRANCH  15  18
HETATM   18  O4  UNK     1      19.166   2.679  29.916  1.00  0.00    -0.356 OA
HETATM   19  C20 UNK     1      18.239   2.097  29.001  1.00  0.00     0.210 C 
ENDBRANCH  15  18
ENDBRANCH   4  12
BRANCH   9  20
HETATM   20  O2  UNK     1      15.263  12.868  34.964  1.00  0.00    -0.347 OA
BRANCH  20  21
HETATM   21  C16 UNK     1      15.260  12.825  36.391  1.00  0.00     0.208 C 
BRANCH  21  22
HETATM   22  C17 UNK     1      13.893  12.439  36.880  1.00  0.00    -0.069 C 
HETATM   23  C18 UNK     1      12.753  13.328  36.475  1.00  0.00     0.044 C 
HETATM   24  C19 UNK     1      13.697  11.339  37.623  1.00  0.00     0.016 C 
ENDBRANCH  21  22
ENDBRANCH  20  21
ENDBRANCH   9  20
TORSDOF 5
ENDMDL
MODEL 8
REMARK VINA RESULT:      -7.4     15.083     17.208
REMARK  5 active torsions:
REMARK  status: ('A' for Active; 'I' for Inactive)
REMARK    1  A    between atoms: C16_20  and  O2_2 
REMARK    2  A    between atoms: C8_12  and  O2_2 
REMARK    3  A    between atoms: C15_19  and  O4_4 
REMARK    4  A    between atoms: C2_6  and  C5_9 
REMARK    5  A    between atoms: C16_20  and  C17_21 
ROOT
HETATM    1  O1  UNK     1      25.953  -5.073  38.791  1.00  0.00    -0.321 OA
HETATM    2  O3  UNK     1      26.139  -9.143  38.569  1.00  0.00    -0.286 OA
HETATM    3  C1  UNK     1      27.293  -7.094  38.686  1.00  0.00     0.049 A 
HETATM    4  C2  UNK     1      24.776  -7.196  38.722  1.00  0.00     0.048 A 
HETATM    5  C3  UNK     1      27.169  -5.706  38.751  1.00  0.00     0.091 A 
HETATM    6  C4  UNK     1      26.074  -7.923  38.656  1.00  0.00     0.197 A 
HETATM    7  C6  UNK     1      28.558  -7.686  38.646  1.00  0.00     0.021 A 
HETATM    8  C7  UNK     1      28.308  -4.903  38.776  1.00  0.00     0.075 A 
HETATM    9  C8  UNK     1      29.572  -5.491  38.736  1.00  0.00     0.071 A 
HETATM   10  C9  UNK     1      24.825  -5.857  38.784  1.00  0.00     0.159 A 
HETATM   11  C10 UNK     1      29.697  -6.879  38.672  1.00  0.00     0.038 A 
ENDROOT
BRANCH   4  12
HETATM   12  C5  UNK     1      23.486  -7.905  38.739  1.00  0.00    -0.020 A 
HETATM   13  C11 UNK     1      22.945  -8.404  37.552  1.00  0.00     0.015 A 
HETATM   14  C13 UNK     1      21.722  -9.076  37.569  1.00  0.00     0.037 A 
HETATM   15  C15 UNK     1      21.037  -9.248  38.772  1.00  0.00     0.068 A 
HETATM   16  C14 UNK     1      21.576  -8.751  39.958  1.00  0.00     0.037 A 
HETATM   17  C12 UNK     1      22.799  -8.079  39.942  1.00  0.00     0.015 A 
BRANCH  15  18
HETATM   18  O4  UNK     1      19.845  -9.904  38.788  1.00  0.00    -0.356 OA
HETATM   19  C20 UNK     1      19.687 -10.985  37.870  1.00  0.00     0.210 C 
ENDBRANCH  15  18
ENDBRANCH   4  12
BRANCH   9  20
HETATM   20  O2  UNK     1      30.687  -4.710  38.763  1.00  0.00    -0.347 OA
BRANCH  20  21
HETATM   21  C16 UNK     1      31.819  -5.168  38.023  1.00  0.00     0.208 C 
BRANCH  21  22
HETATM   22  C17 UNK     1      31.778  -4.596  36.635  1.00  0.00    -0.069 C 
HETATM   23  C18 UNK     1      32.094  -3.136  36.494  1.00  0.00     0.044 C 
HETATM   24  C19 UNK     1      31.496  -5.360  35.569  1.00  0.00     0.016 C 
ENDBRANCH  21  22
ENDBRANCH  20  21
ENDBRANCH   9  20
TORSDOF 5
ENDMDL
MODEL 9
REMARK VINA RESULT:      -7.3      5.738     11.268
REMARK  5 active torsions:
REMARK  status: ('A' for Active; 'I' for Inactive)
REMARK    1  A    between atoms: C16_20  and  O2_2 
REMARK    2  A    between atoms: C8_12  and  O2_2 
REMARK    3  A    between atoms: C15_19  and  O4_4 
REMARK    4  A    between atoms: C2_6  and  C5_9 
REMARK    5  A    between atoms: C16_20  and  C17_21 
ROOT
HETATM    1  O1  UNK     1      18.358  -1.026  36.321  1.00  0.00    -0.321 OA
HETATM    2  O3  UNK     1      20.519  -3.537  33.939  1.00  0.00    -0.286 OA
HETATM    3  C1  UNK     1      19.344  -1.508  34.156  1.00  0.00     0.049 A 
HETATM    4  C2  UNK     1      19.616  -3.092  36.097  1.00  0.00     0.048 A 
HETATM    5  C3  UNK     1      18.603  -0.694  35.013  1.00  0.00     0.091 A 
HETATM    6  C4  UNK     1      19.888  -2.780  34.666  1.00  0.00     0.197 A 
HETATM    7  C6  UNK     1      19.562  -1.120  32.831  1.00  0.00     0.021 A 
HETATM    8  C7  UNK     1      18.076   0.511  34.550  1.00  0.00     0.075 A 
HETATM    9  C8  UNK     1      18.292   0.900  33.229  1.00  0.00     0.071 A 
HETATM   10  C9  UNK     1      18.888  -2.204  36.790  1.00  0.00     0.159 A 
HETATM   11  C10 UNK     1      19.034   0.087  32.372  1.00  0.00     0.038 A 
ENDROOT
BRANCH   4  12
HETATM   12  C5  UNK     1      20.133  -4.309  36.742  1.00  0.00    -0.020 A 
HETATM   13  C11 UNK     1      19.510  -5.539  36.520  1.00  0.00     0.015 A 
HETATM   14  C13 UNK     1      20.001  -6.693  37.132  1.00  0.00     0.037 A 
HETATM   15  C15 UNK     1      21.116  -6.619  37.967  1.00  0.00     0.068 A 
HETATM   16  C14 UNK     1      21.741  -5.393  38.188  1.00  0.00     0.037 A 
HETATM   17  C12 UNK     1      21.250  -4.238  37.578  1.00  0.00     0.015 A 
BRANCH  15  18
HETATM   18  O4  UNK     1      21.595  -7.745  38.562  1.00  0.00    -0.356 OA
HETATM   19  C20 UNK     1      22.377  -7.573  39.743  1.00  0.00     0.210 C 
ENDBRANCH  15  18
ENDBRANCH   4  12
BRANCH   9  20
HETATM   20  O2  UNK     1      17.780   2.077  32.775  1.00  0.00    -0.347 OA
BRANCH  20  21
HETATM   21  C16 UNK     1      18.299   2.579  31.543  1.00  0.00     0.208 C 
BRANCH  21  22
HETATM   22  C17 UNK     1      18.468   4.069  31.639  1.00  0.00    -0.069 C 
HETATM   23  C18 UNK     1      18.057   4.715  32.929  1.00  0.00     0.044 C 
HETATM   24  C19 UNK     1      18.984   4.784  30.628  1.00  0.00     0.016 C 
ENDBRANCH  21  22
ENDBRANCH  20  21
ENDBRANCH   9  20
TORSDOF 5
ENDMDL
MODEL 10
REMARK VINA RESULT:      -7.3     15.406     17.171
REMARK  5 active torsions:
REMARK  status: ('A' for Active; 'I' for Inactive)
REMARK    1  A    between atoms: C16_20  and  O2_2 
REMARK    2  A    between atoms: C8_12  and  O2_2 
REMARK    3  A    between atoms: C15_19  and  O4_4 
REMARK    4  A    between atoms: C2_6  and  C5_9 
REMARK    5  A    between atoms: C16_20  and  C17_21 
ROOT
HETATM    1  O1  UNK     1      27.715  -8.382  38.689  1.00  0.00    -0.321 OA
HETATM    2  O3  UNK     1      24.974  -5.360  38.707  1.00  0.00    -0.286 OA
HETATM    3  C1  UNK     1      27.239  -6.002  38.673  1.00  0.00     0.049 A 
HETATM    4  C2  UNK     1      25.382  -7.705  38.673  1.00  0.00     0.048 A 
HETATM    5  C3  UNK     1      28.130  -7.075  38.678  1.00  0.00     0.091 A 
HETATM    6  C4  UNK     1      25.789  -6.273  38.682  1.00  0.00     0.197 A 
HETATM    7  C6  UNK     1      27.718  -4.690  38.663  1.00  0.00     0.021 A 
HETATM    8  C7  UNK     1      29.505  -6.842  38.674  1.00  0.00     0.075 A 
HETATM    9  C8  UNK     1      29.986  -5.533  38.664  1.00  0.00     0.071 A 
HETATM   10  C9  UNK     1      26.362  -8.622  38.676  1.00  0.00     0.159 A 
HETATM   11  C10 UNK     1      29.095  -4.459  38.658  1.00  0.00     0.038 A 
ENDROOT
BRANCH   4  12
HETATM   12  C5  UNK     1      23.969  -8.114  38.642  1.00  0.00    -0.020 A 
HETATM   13  C11 UNK     1      23.402  -8.585  37.456  1.00  0.00     0.015 A 
HETATM   14  C13 UNK     1      22.061  -8.972  37.427  1.00  0.00     0.037 A 
HETATM   15  C15 UNK     1      21.286  -8.889  38.584  1.00  0.00     0.068 A 
HETATM   16  C14 UNK     1      21.851  -8.420  39.769  1.00  0.00     0.037 A 
HETATM   17  C12 UNK     1      23.191  -8.032  39.798  1.00  0.00     0.015 A 
BRANCH  15  18
HETATM   18  O4  UNK     1      19.979  -9.268  38.555  1.00  0.00    -0.356 OA
HETATM   19  C20 UNK     1      19.667 -10.471  37.855  1.00  0.00     0.210 C 
ENDBRANCH  15  18
ENDBRANCH   4  12
BRANCH   9  20
HETATM   20  O2  UNK     1      31.327  -5.302  38.658  1.00  0.00    -0.347 OA
BRANCH  20  21
HETATM   21  C16 UNK     1      32.071  -5.825  37.557  1.00  0.00     0.208 C 
BRANCH  21  22
HETATM   22  C17 UNK     1      31.844  -4.969  36.345  1.00  0.00    -0.069 C 
HETATM   23  C18 UNK     1      32.182  -3.512  36.471  1.00  0.00     0.044 C 
HETATM   24  C19 UNK     1      31.383  -5.485  35.196  1.00  0.00     0.016 C 
ENDBRANCH  21  22
ENDBRANCH  20  21
ENDBRANCH   9  20
TORSDOF 5
ENDMDL
