MODEL 1
REMARK VINA RESULT:     -10.5      0.000      0.000
REMARK  3 active torsions:
REMARK  status: ('A' for Active; 'I' for Inactive)
REMARK       I    between atoms: C6_12  and  N1_5 
REMARK    1  A    between atoms: C10_16  and  N2_6 
REMARK       I    between atoms: C15_21  and  N2_6 
REMARK    2  A    between atoms: C6_12  and  C7_13 
REMARK    3  A    between atoms: C13_19  and  C15_21 
ROOT
HETATM    1  O3  UNK     1      17.610   3.216  32.820  1.00  0.00    -0.267 OA
HETATM    2  N2  UNK     1      18.718   4.714  31.371  1.00  0.00    -0.323 N 
HETATM    3  C15 UNK     1      18.283   3.468  31.827  1.00  0.00     0.262 C 
HETATM    4  H15 UNK     1      19.290   4.738  30.531  1.00  0.00     0.169 HD
ENDROOT
BRANCH   2   5
HETATM    5  C10 UNK     1      18.485   5.965  31.943  1.00  0.00     0.035 A 
HETATM    6  C12 UNK     1      17.499   6.800  31.416  1.00  0.00     0.030 A 
HETATM    7  C9  UNK     1      17.266   8.051  31.988  1.00  0.00     0.019 A 
HETATM    8  C7  UNK     1      18.019   8.463  33.083  1.00  0.00     0.032 A 
HETATM    9  C8  UNK     1      19.005   7.633  33.611  1.00  0.00     0.019 A 
HETATM   10  C11 UNK     1      19.238   6.382  33.041  1.00  0.00     0.030 A 
BRANCH   8  11
HETATM   11  C6  UNK     1      17.774   9.780  33.684  1.00  0.00     0.253 C 
HETATM   12  O1  UNK     1      18.701  10.587  33.618  1.00  0.00    -0.267 OA
HETATM   13  N1  UNK     1      16.533  10.011  34.283  1.00  0.00    -0.348 N 
HETATM   14  C4  UNK     1      15.544   8.935  34.336  1.00  0.00     0.126 C 
HETATM   15  C5  UNK     1      16.119  11.257  34.940  1.00  0.00     0.126 C 
HETATM   16  C2  UNK     1      14.218   9.393  33.734  1.00  0.00     0.020 C 
HETATM   17  C1  UNK     1      13.729  10.686  34.385  1.00  0.00     0.003 C 
HETATM   18  C3  UNK     1      14.810  11.767  34.343  1.00  0.00     0.020 C 
ENDBRANCH   8  11
ENDBRANCH   2   5
BRANCH   3  19
HETATM   19  C13 UNK     1      18.725   2.361  30.953  1.00  0.00     0.108 A 
HETATM   20  C16 UNK     1      19.158   1.256  31.572  1.00  0.00     0.037 A 
HETATM   21  C14 UNK     1      19.613   0.112  30.798  1.00  0.00    -0.001 A 
HETATM   22  C17 UNK     1      19.591   0.188  29.408  1.00  0.00     0.089 A 
HETATM   23  C19 UNK     1      20.072  -1.062  31.400  1.00  0.00     0.014 A 
HETATM   24  O2  UNK     1      19.136   1.354  28.763  1.00  0.00    -0.274 OA
HETATM   25  C20 UNK     1      20.014  -0.872  28.608  1.00  0.00     0.038 A 
HETATM   26  C18 UNK     1      18.693   2.465  29.478  1.00  0.00     0.304 A 
HETATM   27  O4  UNK     1      18.298   3.476  28.907  1.00  0.00    -0.259 OA
HETATM   28  C22 UNK     1      20.471  -2.038  29.218  1.00  0.00     0.003 A 
HETATM   29  C21 UNK     1      20.500  -2.133  30.611  1.00  0.00     0.001 A 
ENDBRANCH   3  19
TORSDOF 3
ENDMDL
MODEL 2
REMARK VINA RESULT:     -10.0      1.097      1.840
REMARK  3 active torsions:
REMARK  status: ('A' for Active; 'I' for Inactive)
REMARK       I    between atoms: C6_12  and  N1_5 
REMARK    1  A    between atoms: C10_16  and  N2_6 
REMARK       I    between atoms: C15_21  and  N2_6 
REMARK    2  A    between atoms: C6_12  and  C7_13 
REMARK    3  A    between atoms: C13_19  and  C15_21 
ROOT
HETATM    1  O3  UNK     1      18.304   4.565  30.311  1.00  0.00    -0.267 OA
HETATM    2  N2  UNK     1      18.509   4.675  32.659  1.00  0.00    -0.323 N 
HETATM    3  C15 UNK     1      18.494   4.055  31.408  1.00  0.00     0.262 C 
HETATM    4  H15 UNK     1      18.665   4.092  33.476  1.00  0.00     0.169 HD
ENDROOT
BRANCH   2   5
HETATM    5  C10 UNK     1      18.310   6.026  32.948  1.00  0.00     0.035 A 
HETATM    6  C12 UNK     1      17.286   6.731  32.316  1.00  0.00     0.030 A 
HETATM    7  C9  UNK     1      17.087   8.081  32.604  1.00  0.00     0.019 A 
HETATM    8  C7  UNK     1      17.913   8.722  33.523  1.00  0.00     0.032 A 
HETATM    9  C8  UNK     1      18.938   8.022  34.156  1.00  0.00     0.019 A 
HETATM   10  C11 UNK     1      19.136   6.672  33.868  1.00  0.00     0.030 A 
BRANCH   8  11
HETATM   11  C6  UNK     1      17.704  10.143  33.825  1.00  0.00     0.253 C 
HETATM   12  O1  UNK     1      18.605  10.909  33.484  1.00  0.00    -0.267 OA
HETATM   13  N1  UNK     1      16.524  10.512  34.477  1.00  0.00    -0.348 N 
HETATM   14  C4  UNK     1      15.565   9.482  34.874  1.00  0.00     0.126 C 
HETATM   15  C5  UNK     1      16.153  11.879  34.867  1.00  0.00     0.126 C 
HETATM   16  C2  UNK     1      14.178   9.795  34.319  1.00  0.00     0.020 C 
HETATM   17  C1  UNK     1      13.731  11.206  34.700  1.00  0.00     0.003 C 
HETATM   18  C3  UNK     1      14.783  12.244  34.303  1.00  0.00     0.020 C 
ENDBRANCH   8  11
ENDBRANCH   2   5
BRANCH   3  19
HETATM   19  C13 UNK     1      18.749   2.602  31.496  1.00  0.00     0.108 A 
HETATM   20  C16 UNK     1      19.329   2.037  30.429  1.00  0.00     0.037 A 
HETATM   21  C14 UNK     1      19.620   0.612  30.421  1.00  0.00    -0.001 A 
HETATM   22  C17 UNK     1      19.285  -0.149  31.537  1.00  0.00     0.089 A 
HETATM   23  C19 UNK     1      20.224  -0.019  29.331  1.00  0.00     0.014 A 
HETATM   24  O2  UNK     1      18.675   0.450  32.655  1.00  0.00    -0.274 OA
HETATM   25  C20 UNK     1      19.538  -1.519  31.593  1.00  0.00     0.038 A 
HETATM   26  C18 UNK     1      18.384   1.812  32.693  1.00  0.00     0.304 A 
HETATM   27  O4  UNK     1      17.853   2.325  33.672  1.00  0.00    -0.259 OA
HETATM   28  C22 UNK     1      20.140  -2.140  30.501  1.00  0.00     0.003 A 
HETATM   29  C21 UNK     1      20.483  -1.392  29.373  1.00  0.00     0.001 A 
ENDBRANCH   3  19
TORSDOF 3
ENDMDL
MODEL 3
REMARK VINA RESULT:      -9.3      1.754      2.896
REMARK  3 active torsions:
REMARK  status: ('A' for Active; 'I' for Inactive)
REMARK       I    between atoms: C6_12  and  N1_5 
REMARK    1  A    between atoms: C10_16  and  N2_6 
REMARK       I    between atoms: C15_21  and  N2_6 
REMARK    2  A    between atoms: C6_12  and  C7_13 
REMARK    3  A    between atoms: C13_19  and  C15_21 
ROOT
HETATM    1  O3  UNK     1      18.636   5.053  30.692  1.00  0.00    -0.267 OA
HETATM    2  N2  UNK     1      17.510   4.674  32.731  1.00  0.00    -0.323 N 
HETATM    3  C15 UNK     1      18.260   4.328  31.605  1.00  0.00     0.262 C 
HETATM    4  H15 UNK     1      17.266   3.935  33.385  1.00  0.00     0.169 HD
ENDROOT
BRANCH   2   5
HETATM    5  C10 UNK     1      17.016   5.933  33.078  1.00  0.00     0.035 A 
HETATM    6  C12 UNK     1      17.357   6.501  34.305  1.00  0.00     0.030 A 
HETATM    7  C9  UNK     1      16.864   7.760  34.652  1.00  0.00     0.019 A 
HETATM    8  C7  UNK     1      16.031   8.443  33.771  1.00  0.00     0.032 A 
HETATM    9  C8  UNK     1      15.687   7.878  32.545  1.00  0.00     0.019 A 
HETATM   10  C11 UNK     1      16.181   6.621  32.198  1.00  0.00     0.030 A 
BRANCH   8  11
HETATM   11  C6  UNK     1      15.511   9.767  34.137  1.00  0.00     0.253 C 
HETATM   12  O1  UNK     1      14.336   9.806  34.500  1.00  0.00    -0.267 OA
HETATM   13  N1  UNK     1      16.370  10.864  34.037  1.00  0.00    -0.348 N 
HETATM   14  C4  UNK     1      17.731  10.673  33.535  1.00  0.00     0.126 C 
HETATM   15  C5  UNK     1      16.021  12.256  34.348  1.00  0.00     0.126 C 
HETATM   16  C2  UNK     1      18.752  11.229  34.523  1.00  0.00     0.020 C 
HETATM   17  C1  UNK     1      18.446  12.684  34.880  1.00  0.00     0.003 C 
HETATM   18  C3  UNK     1      17.002  12.841  35.361  1.00  0.00     0.020 C 
ENDBRANCH   8  11
ENDBRANCH   2   5
BRANCH   3  19
HETATM   19  C13 UNK     1      18.607   2.891  31.578  1.00  0.00     0.108 A 
HETATM   20  C16 UNK     1      19.034   2.408  30.406  1.00  0.00     0.037 A 
HETATM   21  C14 UNK     1      19.400   1.006  30.280  1.00  0.00    -0.001 A 
HETATM   22  C17 UNK     1      19.297   0.180  31.396  1.00  0.00     0.089 A 
HETATM   23  C19 UNK     1      19.851   0.458  29.077  1.00  0.00     0.014 A 
HETATM   24  O2  UNK     1      18.846   0.695  32.626  1.00  0.00    -0.274 OA
HETATM   25  C20 UNK     1      19.631  -1.171  31.341  1.00  0.00     0.038 A 
HETATM   26  C18 UNK     1      18.489   2.033  32.778  1.00  0.00     0.304 A 
HETATM   27  O4  UNK     1      18.097   2.471  33.854  1.00  0.00    -0.259 OA
HETATM   28  C22 UNK     1      20.081  -1.709  30.137  1.00  0.00     0.003 A 
HETATM   29  C21 UNK     1      20.191  -0.896  29.007  1.00  0.00     0.001 A 
ENDBRANCH   3  19
TORSDOF 3
ENDMDL
MODEL 4
REMARK VINA RESULT:      -9.2      7.412     12.936
REMARK  3 active torsions:
REMARK  status: ('A' for Active; 'I' for Inactive)
REMARK       I    between atoms: C6_12  and  N1_5 
REMARK    1  A    between atoms: C10_16  and  N2_6 
REMARK       I    between atoms: C15_21  and  N2_6 
REMARK    2  A    between atoms: C6_12  and  C7_13 
REMARK    3  A    between atoms: C13_19  and  C15_21 
ROOT
HETATM    1  O3  UNK     1      18.643  -1.348  36.138  1.00  0.00    -0.267 OA
HETATM    2  N2  UNK     1      19.676  -3.156  35.027  1.00  0.00    -0.323 N 
HETATM    3  C15 UNK     1      19.125  -1.878  35.144  1.00  0.00     0.262 C 
HETATM    4  H15 UNK     1      20.016  -3.444  34.114  1.00  0.00     0.169 HD
ENDROOT
BRANCH   2   5
HETATM    5  C10 UNK     1      19.805  -4.127  36.020  1.00  0.00     0.035 A 
HETATM    6  C12 UNK     1      18.880  -5.168  36.102  1.00  0.00     0.030 A 
HETATM    7  C9  UNK     1      19.009  -6.140  37.095  1.00  0.00     0.019 A 
HETATM    8  C7  UNK     1      20.062  -6.066  38.003  1.00  0.00     0.032 A 
HETATM    9  C8  UNK     1      20.987  -5.027  37.926  1.00  0.00     0.019 A 
HETATM   10  C11 UNK     1      20.858  -4.057  36.932  1.00  0.00     0.030 A 
BRANCH   8  11
HETATM   11  C6  UNK     1      20.196  -7.088  39.049  1.00  0.00     0.253 C 
HETATM   12  O1  UNK     1      20.085  -6.694  40.209  1.00  0.00    -0.267 OA
HETATM   13  N1  UNK     1      20.447  -8.405  38.655  1.00  0.00    -0.348 N 
HETATM   14  C4  UNK     1      20.611  -8.717  37.236  1.00  0.00     0.126 C 
HETATM   15  C5  UNK     1      20.621  -9.550  39.559  1.00  0.00     0.126 C 
HETATM   16  C2  UNK     1      19.653  -9.829  36.815  1.00  0.00     0.020 C 
HETATM   17  C1  UNK     1      19.794 -11.055  37.716  1.00  0.00     0.003 C 
HETATM   18  C3  UNK     1      19.657 -10.674  39.191  1.00  0.00     0.020 C 
ENDBRANCH   8  11
ENDBRANCH   2   5
BRANCH   3  19
HETATM   19  C13 UNK     1      19.164  -1.128  33.871  1.00  0.00     0.108 A 
HETATM   20  C16 UNK     1      19.703  -1.765  32.825  1.00  0.00     0.037 A 
HETATM   21  C14 UNK     1      19.785  -1.109  31.529  1.00  0.00    -0.001 A 
HETATM   22  C17 UNK     1      19.296   0.187  31.399  1.00  0.00     0.089 A 
HETATM   23  C19 UNK     1      20.339  -1.736  30.410  1.00  0.00     0.014 A 
HETATM   24  O2  UNK     1      18.731   0.853  32.503  1.00  0.00    -0.274 OA
HETATM   25  C20 UNK     1      19.345   0.871  30.185  1.00  0.00     0.038 A 
HETATM   26  C18 UNK     1      18.638   0.251  33.756  1.00  0.00     0.304 A 
HETATM   27  O4  UNK     1      18.143   0.839  34.712  1.00  0.00    -0.259 OA
HETATM   28  C22 UNK     1      19.899   0.238  29.074  1.00  0.00     0.003 A 
HETATM   29  C21 UNK     1      20.395  -1.063  29.186  1.00  0.00     0.001 A 
ENDBRANCH   3  19
TORSDOF 3
ENDMDL
MODEL 5
REMARK VINA RESULT:      -9.2      6.946     12.761
REMARK  3 active torsions:
REMARK  status: ('A' for Active; 'I' for Inactive)
REMARK       I    between atoms: C6_12  and  N1_5 
REMARK    1  A    between atoms: C10_16  and  N2_6 
REMARK       I    between atoms: C15_21  and  N2_6 
REMARK    2  A    between atoms: C6_12  and  C7_13 
REMARK    3  A    between atoms: C13_19  and  C15_21 
ROOT
HETATM    1  O3  UNK     1      17.542  -1.154  36.331  1.00  0.00    -0.267 OA
HETATM    2  N2  UNK     1      19.378  -2.177  35.258  1.00  0.00    -0.323 N 
HETATM    3  C15 UNK     1      18.382  -1.215  35.442  1.00  0.00     0.262 C 
HETATM    4  H15 UNK     1      19.984  -2.084  34.447  1.00  0.00     0.169 HD
ENDROOT
BRANCH   2   5
HETATM    5  C10 UNK     1      19.648  -3.293  36.050  1.00  0.00     0.035 A 
HETATM    6  C12 UNK     1      18.793  -4.394  36.017  1.00  0.00     0.030 A 
HETATM    7  C9  UNK     1      19.062  -5.511  36.809  1.00  0.00     0.019 A 
HETATM    8  C7  UNK     1      20.185  -5.522  37.631  1.00  0.00     0.032 A 
HETATM    9  C8  UNK     1      21.041  -4.424  37.668  1.00  0.00     0.019 A 
HETATM   10  C11 UNK     1      20.772  -3.308  36.876  1.00  0.00     0.030 A 
BRANCH   8  11
HETATM   11  C6  UNK     1      20.468  -6.697  38.466  1.00  0.00     0.253 C 
HETATM   12  O1  UNK     1      20.164  -6.603  39.654  1.00  0.00    -0.267 OA
HETATM   13  N1  UNK     1      21.059  -7.808  37.860  1.00  0.00    -0.348 N 
HETATM   14  C4  UNK     1      21.417  -7.755  36.443  1.00  0.00     0.126 C 
HETATM   15  C5  UNK     1      21.422  -9.060  38.538  1.00  0.00     0.126 C 
HETATM   16  C2  UNK     1      20.794  -8.925  35.687  1.00  0.00     0.020 C 
HETATM   17  C1  UNK     1      21.144 -10.261  36.341  1.00  0.00     0.003 C 
HETATM   18  C3  UNK     1      20.791 -10.255  37.829  1.00  0.00     0.020 C 
ENDBRANCH   8  11
ENDBRANCH   2   5
BRANCH   3  19
HETATM   19  C13 UNK     1      18.404  -0.172  34.395  1.00  0.00     0.108 A 
HETATM   20  C16 UNK     1      18.259   1.091  34.815  1.00  0.00     0.037 A 
HETATM   21  C14 UNK     1      18.269   2.187  33.860  1.00  0.00    -0.001 A 
HETATM   22  C17 UNK     1      18.430   1.901  32.508  1.00  0.00     0.089 A 
HETATM   23  C19 UNK     1      18.121   3.520  34.253  1.00  0.00     0.014 A 
HETATM   24  O2  UNK     1      18.581   0.570  32.072  1.00  0.00    -0.274 OA
HETATM   25  C20 UNK     1      18.447   2.905  31.542  1.00  0.00     0.038 A 
HETATM   26  C18 UNK     1      18.577  -0.500  32.963  1.00  0.00     0.304 A 
HETATM   27  O4  UNK     1      18.710  -1.656  32.573  1.00  0.00    -0.259 OA
HETATM   28  C22 UNK     1      18.300   4.231  31.943  1.00  0.00     0.003 A 
HETATM   29  C21 UNK     1      18.137   4.538  33.295  1.00  0.00     0.001 A 
ENDBRANCH   3  19
TORSDOF 3
ENDMDL
MODEL 6
REMARK VINA RESULT:      -9.0     14.840     18.290
REMARK  3 active torsions:
REMARK  status: ('A' for Active; 'I' for Inactive)
REMARK       I    between atoms: C6_12  and  N1_5 
REMARK    1  A    between atoms: C10_16  and  N2_6 
REMARK       I    between atoms: C15_21  and  N2_6 
REMARK    2  A    between atoms: C6_12  and  C7_13 
REMARK    3  A    between atoms: C13_19  and  C15_21 
ROOT
HETATM    1  O3  UNK     1      26.651  -8.825  39.343  1.00  0.00    -0.267 OA
HETATM    2  N2  UNK     1      27.083  -6.939  37.993  1.00  0.00    -0.323 N 
HETATM    3  C15 UNK     1      26.303  -7.804  38.762  1.00  0.00     0.262 C 
HETATM    4  H15 UNK     1      26.623  -6.141  37.563  1.00  0.00     0.169 HD
ENDROOT
BRANCH   2   5
HETATM    5  C10 UNK     1      28.446  -7.037  37.708  1.00  0.00     0.035 A 
HETATM    6  C12 UNK     1      29.387  -6.750  38.697  1.00  0.00     0.030 A 
HETATM    7  C9  UNK     1      30.750  -6.849  38.412  1.00  0.00     0.019 A 
HETATM    8  C7  UNK     1      31.165  -7.233  37.141  1.00  0.00     0.032 A 
HETATM    9  C8  UNK     1      30.229  -7.519  36.150  1.00  0.00     0.019 A 
HETATM   10  C11 UNK     1      28.867  -7.422  36.435  1.00  0.00     0.030 A 
BRANCH   8  11
HETATM   11  C6  UNK     1      32.599  -7.335  36.842  1.00  0.00     0.253 C 
HETATM   12  O1  UNK     1      33.084  -8.465  36.886  1.00  0.00    -0.267 OA
HETATM   13  N1  UNK     1      33.296  -6.161  36.545  1.00  0.00    -0.348 N 
HETATM   14  C4  UNK     1      32.598  -4.876  36.584  1.00  0.00     0.126 C 
HETATM   15  C5  UNK     1      34.729  -6.070  36.234  1.00  0.00     0.126 C 
HETATM   16  C2  UNK     1      32.771  -4.128  35.265  1.00  0.00     0.020 C 
HETATM   17  C1  UNK     1      34.247  -3.994  34.890  1.00  0.00     0.003 C 
HETATM   18  C3  UNK     1      34.944  -5.356  34.903  1.00  0.00     0.020 C 
ENDBRANCH   8  11
ENDBRANCH   2   5
BRANCH   3  19
HETATM   19  C13 UNK     1      24.892  -7.372  38.843  1.00  0.00     0.108 A 
HETATM   20  C16 UNK     1      23.980  -8.346  38.948  1.00  0.00     0.037 A 
HETATM   21  C14 UNK     1      22.565  -8.019  39.034  1.00  0.00    -0.001 A 
HETATM   22  C17 UNK     1      22.180  -6.682  39.004  1.00  0.00     0.089 A 
HETATM   23  C19 UNK     1      21.579  -9.002  39.145  1.00  0.00     0.014 A 
HETATM   24  O2  UNK     1      23.144  -5.663  38.893  1.00  0.00    -0.274 OA
HETATM   25  C20 UNK     1      20.841  -6.303  39.082  1.00  0.00     0.038 A 
HETATM   26  C18 UNK     1      24.506  -5.944  38.809  1.00  0.00     0.304 A 
HETATM   27  O4  UNK     1      25.338  -5.048  38.712  1.00  0.00    -0.259 OA
HETATM   28  C22 UNK     1      19.864  -7.290  39.193  1.00  0.00     0.003 A 
HETATM   29  C21 UNK     1      20.232  -8.637  39.225  1.00  0.00     0.001 A 
ENDBRANCH   3  19
TORSDOF 3
ENDMDL
MODEL 7
REMARK VINA RESULT:      -8.9     14.193     17.334
REMARK  3 active torsions:
REMARK  status: ('A' for Active; 'I' for Inactive)
REMARK       I    between atoms: C6_12  and  N1_5 
REMARK    1  A    between atoms: C10_16  and  N2_6 
REMARK       I    between atoms: C15_21  and  N2_6 
REMARK    2  A    between atoms: C6_12  and  C7_13 
REMARK    3  A    between atoms: C13_19  and  C15_21 
ROOT
HETATM    1  O3  UNK     1      27.641  -8.625  39.888  1.00  0.00    -0.267 OA
HETATM    2  N2  UNK     1      26.633  -7.171  38.327  1.00  0.00    -0.323 N 
HETATM    3  C15 UNK     1      27.678  -7.697  39.089  1.00  0.00     0.262 C 
HETATM    4  H15 UNK     1      26.838  -6.379  37.723  1.00  0.00     0.169 HD
ENDROOT
BRANCH   2   5
HETATM    5  C10 UNK     1      25.300  -7.584  38.298  1.00  0.00     0.035 A 
HETATM    6  C12 UNK     1      24.928  -8.683  37.524  1.00  0.00     0.030 A 
HETATM    7  C9  UNK     1      23.595  -9.096  37.496  1.00  0.00     0.019 A 
HETATM    8  C7  UNK     1      22.641  -8.410  38.240  1.00  0.00     0.032 A 
HETATM    9  C8  UNK     1      23.009  -7.311  39.014  1.00  0.00     0.019 A 
HETATM   10  C11 UNK     1      24.341  -6.898  39.043  1.00  0.00     0.030 A 
BRANCH   8  11
HETATM   11  C6  UNK     1      21.239  -8.844  38.208  1.00  0.00     0.253 C 
HETATM   12  O1  UNK     1      20.821  -9.402  39.222  1.00  0.00    -0.267 OA
HETATM   13  N1  UNK     1      20.501  -8.606  37.046  1.00  0.00    -0.348 N 
HETATM   14  C4  UNK     1      21.149  -7.980  35.893  1.00  0.00     0.126 C 
HETATM   15  C5  UNK     1      19.097  -8.980  36.831  1.00  0.00     0.126 C 
HETATM   16  C2  UNK     1      20.372  -6.746  35.444  1.00  0.00     0.020 C 
HETATM   17  C1  UNK     1      18.900  -7.074  35.195  1.00  0.00     0.003 C 
HETATM   18  C3  UNK     1      18.277  -7.763  36.411  1.00  0.00     0.020 C 
ENDBRANCH   8  11
ENDBRANCH   2   5
BRANCH   3  19
HETATM   19  C13 UNK     1      28.958  -6.998  38.851  1.00  0.00     0.108 A 
HETATM   20  C16 UNK     1      29.994  -7.767  38.494  1.00  0.00     0.037 A 
HETATM   21  C14 UNK     1      31.296  -7.171  38.237  1.00  0.00    -0.001 A 
HETATM   22  C17 UNK     1      31.443  -5.793  38.370  1.00  0.00     0.089 A 
HETATM   23  C19 UNK     1      32.404  -7.933  37.862  1.00  0.00     0.014 A 
HETATM   24  O2  UNK     1      30.349  -4.990  38.746  1.00  0.00    -0.274 OA
HETATM   25  C20 UNK     1      32.663  -5.160  38.138  1.00  0.00     0.038 A 
HETATM   26  C18 UNK     1      29.091  -5.532  38.998  1.00  0.00     0.304 A 
HETATM   27  O4  UNK     1      28.145  -4.824  39.326  1.00  0.00    -0.259 OA
HETATM   28  C22 UNK     1      33.763  -5.928  37.764  1.00  0.00     0.003 A 
HETATM   29  C21 UNK     1      33.634  -7.312  37.626  1.00  0.00     0.001 A 
ENDBRANCH   3  19
TORSDOF 3
ENDMDL
MODEL 8
REMARK VINA RESULT:      -8.8     14.181     18.163
REMARK  3 active torsions:
REMARK  status: ('A' for Active; 'I' for Inactive)
REMARK       I    between atoms: C6_12  and  N1_5 
REMARK    1  A    between atoms: C10_16  and  N2_6 
REMARK       I    between atoms: C15_21  and  N2_6 
REMARK    2  A    between atoms: C6_12  and  C7_13 
REMARK    3  A    between atoms: C13_19  and  C15_21 
ROOT
HETATM    1  O3  UNK     1      23.942 -10.033  36.454  1.00  0.00    -0.267 OA
HETATM    2  N2  UNK     1      24.677  -8.401  37.991  1.00  0.00    -0.323 N 
HETATM    3  C15 UNK     1      23.745  -9.098  37.220  1.00  0.00     0.262 C 
HETATM    4  H15 UNK     1      24.340  -7.631  38.563  1.00  0.00     0.169 HD
ENDROOT
BRANCH   2   5
HETATM    5  C10 UNK     1      26.055  -8.612  38.068  1.00  0.00     0.035 A 
HETATM    6  C12 UNK     1      26.661  -8.813  39.308  1.00  0.00     0.030 A 
HETATM    7  C9  UNK     1      28.038  -9.024  39.385  1.00  0.00     0.019 A 
HETATM    8  C7  UNK     1      28.804  -9.031  38.223  1.00  0.00     0.032 A 
HETATM    9  C8  UNK     1      28.202  -8.829  36.983  1.00  0.00     0.019 A 
HETATM   10  C11 UNK     1      26.825  -8.620  36.906  1.00  0.00     0.030 A 
BRANCH   8  11
HETATM   11  C6  UNK     1      30.253  -9.251  38.304  1.00  0.00     0.253 C 
HETATM   12  O1  UNK     1      30.614 -10.404  38.539  1.00  0.00    -0.267 OA
HETATM   13  N1  UNK     1      31.097  -8.153  38.124  1.00  0.00    -0.348 N 
HETATM   14  C4  UNK     1      30.522  -6.826  37.906  1.00  0.00     0.126 C 
HETATM   15  C5  UNK     1      32.565  -8.183  38.182  1.00  0.00     0.126 C 
HETATM   16  C2  UNK     1      31.080  -6.200  36.631  1.00  0.00     0.020 C 
HETATM   17  C1  UNK     1      32.609  -6.194  36.637  1.00  0.00     0.003 C 
HETATM   18  C3  UNK     1      33.164  -7.593  36.908  1.00  0.00     0.020 C 
ENDBRANCH   8  11
ENDBRANCH   2   5
BRANCH   3  19
HETATM   19  C13 UNK     1      22.369  -8.590  37.402  1.00  0.00     0.108 A 
HETATM   20  C16 UNK     1      21.680  -8.333  36.283  1.00  0.00     0.037 A 
HETATM   21  C14 UNK     1      20.318  -7.830  36.360  1.00  0.00    -0.001 A 
HETATM   22  C17 UNK     1      19.747  -7.621  37.612  1.00  0.00     0.089 A 
HETATM   23  C19 UNK     1      19.562  -7.550  35.219  1.00  0.00     0.014 A 
HETATM   24  O2  UNK     1      20.477  -7.893  38.785  1.00  0.00    -0.274 OA
HETATM   25  C20 UNK     1      18.446  -7.141  37.753  1.00  0.00     0.038 A 
HETATM   26  C18 UNK     1      21.783  -8.375  38.743  1.00  0.00     0.304 A 
HETATM   27  O4  UNK     1      22.410  -8.608  39.771  1.00  0.00    -0.259 OA
HETATM   28  C22 UNK     1      17.699  -6.864  36.611  1.00  0.00     0.003 A 
HETATM   29  C21 UNK     1      18.256  -7.068  35.346  1.00  0.00     0.001 A 
ENDBRANCH   3  19
TORSDOF 3
ENDMDL
MODEL 9
REMARK VINA RESULT:      -8.7     15.685     21.104
REMARK  3 active torsions:
REMARK  status: ('A' for Active; 'I' for Inactive)
REMARK       I    between atoms: C6_12  and  N1_5 
REMARK    1  A    between atoms: C10_16  and  N2_6 
REMARK       I    between atoms: C15_21  and  N2_6 
REMARK    2  A    between atoms: C6_12  and  C7_13 
REMARK    3  A    between atoms: C13_19  and  C15_21 
ROOT
HETATM    1  O3  UNK     1      17.706  -1.969  16.150  1.00  0.00    -0.267 OA
HETATM    2  N2  UNK     1      19.346  -0.998  14.758  1.00  0.00    -0.323 N 
HETATM    3  C15 UNK     1      18.577  -1.140  15.915  1.00  0.00     0.262 C 
HETATM    4  H15 UNK     1      20.017  -0.235  14.725  1.00  0.00     0.169 HD
ENDROOT
BRANCH   2   5
HETATM    5  C10 UNK     1      19.298  -1.771  13.597  1.00  0.00     0.035 A 
HETATM    6  C12 UNK     1      19.091  -1.159  12.361  1.00  0.00     0.030 A 
HETATM    7  C9  UNK     1      19.044  -1.933  11.200  1.00  0.00     0.019 A 
HETATM    8  C7  UNK     1      19.203  -3.313  11.280  1.00  0.00     0.032 A 
HETATM    9  C8  UNK     1      19.408  -3.927  12.513  1.00  0.00     0.019 A 
HETATM   10  C11 UNK     1      19.457  -3.154  13.673  1.00  0.00     0.030 A 
BRANCH   8  11
HETATM   11  C6  UNK     1      19.151  -4.126  10.059  1.00  0.00     0.253 C 
HETATM   12  O1  UNK     1      18.092  -4.714   9.842  1.00  0.00    -0.267 OA
HETATM   13  N1  UNK     1      20.292  -4.179   9.254  1.00  0.00    -0.348 N 
HETATM   14  C4  UNK     1      21.503  -3.470   9.667  1.00  0.00     0.126 C 
HETATM   15  C5  UNK     1      20.426  -4.946   8.008  1.00  0.00     0.126 C 
HETATM   16  C2  UNK     1      21.983  -2.535   8.561  1.00  0.00     0.020 C 
HETATM   17  C1  UNK     1      22.151  -3.280   7.236  1.00  0.00     0.003 C 
HETATM   18  C3  UNK     1      20.875  -4.038   6.866  1.00  0.00     0.020 C 
ENDBRANCH   8  11
ENDBRANCH   2   5
BRANCH   3  19
HETATM   19  C13 UNK     1      18.912  -0.132  16.943  1.00  0.00     0.108 A 
HETATM   20  C16 UNK     1      18.988  -0.576  18.204  1.00  0.00     0.037 A 
HETATM   21  C14 UNK     1      19.312   0.341  19.285  1.00  0.00    -0.001 A 
HETATM   22  C17 UNK     1      19.540   1.681  18.986  1.00  0.00     0.089 A 
HETATM   23  C19 UNK     1      19.403  -0.077  20.615  1.00  0.00     0.014 A 
HETATM   24  O2  UNK     1      19.457   2.142  17.658  1.00  0.00    -0.274 OA
HETATM   25  C20 UNK     1      19.854   2.610  19.976  1.00  0.00     0.038 A 
HETATM   26  C18 UNK     1      19.149   1.288  16.602  1.00  0.00     0.304 A 
HETATM   27  O4  UNK     1      19.080   1.698  15.448  1.00  0.00    -0.259 OA
HETATM   28  C22 UNK     1      19.943   2.185  21.300  1.00  0.00     0.003 A 
HETATM   29  C21 UNK     1      19.718   0.844  21.619  1.00  0.00     0.001 A 
ENDBRANCH   3  19
TORSDOF 3
ENDMDL
MODEL 10
REMARK VINA RESULT:      -8.7      7.625     10.248
REMARK  3 active torsions:
REMARK  status: ('A' for Active; 'I' for Inactive)
REMARK       I    between atoms: C6_12  and  N1_5 
REMARK    1  A    between atoms: C10_16  and  N2_6 
REMARK       I    between atoms: C15_21  and  N2_6 
REMARK    2  A    between atoms: C6_12  and  C7_13 
REMARK    3  A    between atoms: C13_19  and  C15_21 
ROOT
HETATM    1  O3  UNK     1      21.408  -4.359  37.294  1.00  0.00    -0.267 OA
HETATM    2  N2  UNK     1      19.179  -4.085  36.568  1.00  0.00    -0.323 N 
HETATM    3  C15 UNK     1      20.313  -4.798  36.964  1.00  0.00     0.262 C 
HETATM    4  H15 UNK     1      18.352  -4.615  36.307  1.00  0.00     0.169 HD
ENDROOT
BRANCH   2   5
HETATM    5  C10 UNK     1      19.032  -2.701  36.460  1.00  0.00     0.035 A 
HETATM    6  C12 UNK     1      18.077  -2.040  37.231  1.00  0.00     0.030 A 
HETATM    7  C9  UNK     1      17.929  -0.656  37.123  1.00  0.00     0.019 A 
HETATM    8  C7  UNK     1      18.737   0.060  36.244  1.00  0.00     0.032 A 
HETATM    9  C8  UNK     1      19.691  -0.598  35.471  1.00  0.00     0.019 A 
HETATM   10  C11 UNK     1      19.839  -1.980  35.580  1.00  0.00     0.030 A 
BRANCH   8  11
HETATM   11  C6  UNK     1      18.581   1.515  36.129  1.00  0.00     0.253 C 
HETATM   12  O1  UNK     1      18.891   2.174  37.121  1.00  0.00    -0.267 OA
HETATM   13  N1  UNK     1      18.089   2.032  34.928  1.00  0.00    -0.348 N 
HETATM   14  C4  UNK     1      17.707   1.120  33.850  1.00  0.00     0.126 C 
HETATM   15  C5  UNK     1      17.857   3.454  34.639  1.00  0.00     0.126 C 
HETATM   16  C2  UNK     1      18.428   1.485  32.555  1.00  0.00     0.020 C 
HETATM   17  C1  UNK     1      18.216   2.956  32.196  1.00  0.00     0.003 C 
HETATM   18  C3  UNK     1      18.590   3.868  33.366  1.00  0.00     0.020 C 
ENDBRANCH   8  11
ENDBRANCH   2   5
BRANCH   3  19
HETATM   19  C13 UNK     1      20.090  -6.259  36.960  1.00  0.00     0.108 A 
HETATM   20  C16 UNK     1      20.079  -6.859  38.156  1.00  0.00     0.037 A 
HETATM   21  C14 UNK     1      19.867  -8.295  38.255  1.00  0.00    -0.001 A 
HETATM   22  C17 UNK     1      19.677  -9.029  37.088  1.00  0.00     0.089 A 
HETATM   23  C19 UNK     1      19.846  -8.962  39.482  1.00  0.00     0.014 A 
HETATM   24  O2  UNK     1      19.691  -8.392  35.832  1.00  0.00    -0.274 OA
HETATM   25  C20 UNK     1      19.469 -10.407  37.114  1.00  0.00     0.038 A 
HETATM   26  C18 UNK     1      19.892  -7.020  35.706  1.00  0.00     0.304 A 
HETATM   27  O4  UNK     1      19.902  -6.474  34.607  1.00  0.00    -0.259 OA
HETATM   28  C22 UNK     1      19.450 -11.065  38.342  1.00  0.00     0.003 A 
HETATM   29  C21 UNK     1      19.638 -10.344  39.523  1.00  0.00     0.001 A 
ENDBRANCH   3  19
TORSDOF 3
ENDMDL
