MODEL 1
REMARK VINA RESULT:      -9.4      0.000      0.000
REMARK  4 active torsions:
REMARK  status: ('A' for Active; 'I' for Inactive)
REMARK    1  A    between atoms: C16_22  and  O2_3 
REMARK    2  A    between atoms: C5_11  and  O2_3 
REMARK    3  A    between atoms: C6_12  and  N1_6 
REMARK       I    between atoms: C8_14  and  N1_6 
REMARK    4  A    between atoms: C3_9  and  C8_14 
ROOT
HETATM    1  O1  UNK     1      19.495  -1.247  34.708  1.00  0.00    -0.271 OA
HETATM    2  O4  UNK     1      20.597  -3.183  34.199  1.00  0.00    -0.259 OA
HETATM    3  C1  UNK     1      18.515  -0.969  36.915  1.00  0.00     0.002 A 
HETATM    4  C2  UNK     1      18.775  -0.476  35.640  1.00  0.00     0.123 A 
HETATM    5  C3  UNK     1      19.681  -3.024  36.379  1.00  0.00     0.108 A 
HETATM    6  C4  UNK     1      18.997  -2.295  37.268  1.00  0.00     0.037 A 
HETATM    7  C5  UNK     1      18.341   0.786  35.239  1.00  0.00     0.103 A 
HETATM    8  C7  UNK     1      17.798  -0.173  37.812  1.00  0.00     0.014 A 
HETATM    9  C10 UNK     1      19.970  -2.519  35.017  1.00  0.00     0.304 A 
HETATM   10  C11 UNK     1      17.627   1.573  36.140  1.00  0.00     0.040 A 
HETATM   11  C12 UNK     1      17.356   1.095  37.424  1.00  0.00     0.004 A 
ENDROOT
BRANCH   5  12
HETATM   12  C8  UNK     1      20.126  -4.348  36.829  1.00  0.00     0.262 C 
HETATM   13  O3  UNK     1      21.319  -4.548  37.049  1.00  0.00    -0.267 OA
HETATM   14  N1  UNK     1      19.071  -5.241  36.950  1.00  0.00    -0.322 N 
HETATM   15  H4  UNK     1      18.137  -4.896  36.748  1.00  0.00     0.169 HD
BRANCH  14  16
HETATM   16  C6  UNK     1      19.129  -6.597  37.357  1.00  0.00     0.043 A 
HETATM   17  C13 UNK     1      19.693  -6.893  38.587  1.00  0.00     0.072 A 
HETATM   18  C17 UNK     1      19.759  -8.221  39.006  1.00  0.00     0.118 A 
HETATM   19  F1  UNK     1      20.302  -8.523  40.193  1.00  0.00    -0.206 F 
HETATM   20  C18 UNK     1      19.259  -9.236  38.189  1.00  0.00     0.043 A 
HETATM   21  C14 UNK     1      18.695  -8.922  36.953  1.00  0.00     0.012 A 
HETATM   22  C9  UNK     1      18.629  -7.593  36.534  1.00  0.00    -0.035 A 
HETATM   23  C15 UNK     1      18.017  -7.286  35.206  1.00  0.00     0.050 C 
ENDBRANCH  14  16
ENDBRANCH   5  12
BRANCH   7  24
HETATM   24  O2  UNK     1      18.602   1.256  33.990  1.00  0.00    -0.349 OA
BRANCH  24  25
HETATM   25  C16 UNK     1      18.206   2.597  33.704  1.00  0.00     0.171 C 
HETATM   26  C19 UNK     1      18.207   2.801  32.204  1.00  0.00     0.034 C 
ENDBRANCH  24  25
ENDBRANCH   7  24
TORSDOF 4
ENDMDL
MODEL 2
REMARK VINA RESULT:      -9.4      6.035     11.244
REMARK  4 active torsions:
REMARK  status: ('A' for Active; 'I' for Inactive)
REMARK    1  A    between atoms: C16_22  and  O2_3 
REMARK    2  A    between atoms: C5_11  and  O2_3 
REMARK    3  A    between atoms: C6_12  and  N1_6 
REMARK       I    between atoms: C8_14  and  N1_6 
REMARK    4  A    between atoms: C3_9  and  C8_14 
ROOT
HETATM    1  O1  UNK     1      18.740   0.694  32.605  1.00  0.00    -0.271 OA
HETATM    2  O4  UNK     1      17.925   2.601  33.566  1.00  0.00    -0.259 OA
HETATM    3  C1  UNK     1      19.527   0.750  30.307  1.00  0.00     0.002 A 
HETATM    4  C2  UNK     1      19.294   0.047  31.484  1.00  0.00     0.123 A 
HETATM    5  C3  UNK     1      18.662   2.773  31.320  1.00  0.00     0.108 A 
HETATM    6  C4  UNK     1      19.188   2.164  30.252  1.00  0.00     0.037 A 
HETATM    7  C5  UNK     1      19.595  -1.308  31.602  1.00  0.00     0.103 A 
HETATM    8  C7  UNK     1      20.079   0.073  29.216  1.00  0.00     0.014 A 
HETATM    9  C10 UNK     1      18.406   2.045  32.584  1.00  0.00     0.304 A 
HETATM   10  C11 UNK     1      20.146  -1.975  30.509  1.00  0.00     0.040 A 
HETATM   11  C12 UNK     1      20.387  -1.286  29.319  1.00  0.00     0.004 A 
ENDROOT
BRANCH   5  12
HETATM   12  C8  UNK     1      18.354   4.200  31.167  1.00  0.00     0.262 C 
HETATM   13  O3  UNK     1      18.574   4.760  30.094  1.00  0.00    -0.267 OA
HETATM   14  N1  UNK     1      17.827   4.749  32.328  1.00  0.00    -0.322 N 
HETATM   15  H4  UNK     1      17.691   4.130  33.120  1.00  0.00     0.169 HD
BRANCH  14  16
HETATM   16  C6  UNK     1      17.419   6.089  32.542  1.00  0.00     0.043 A 
HETATM   17  C13 UNK     1      16.095   6.420  32.308  1.00  0.00     0.072 A 
HETATM   18  C17 UNK     1      15.673   7.734  32.513  1.00  0.00     0.118 A 
HETATM   19  F1  UNK     1      14.395   8.070  32.290  1.00  0.00    -0.206 F 
HETATM   20  C18 UNK     1      16.582   8.698  32.951  1.00  0.00     0.043 A 
HETATM   21  C14 UNK     1      17.912   8.348  33.182  1.00  0.00     0.012 A 
HETATM   22  C9  UNK     1      18.333   7.034  32.977  1.00  0.00    -0.035 A 
HETATM   23  C15 UNK     1      19.764   6.688  33.234  1.00  0.00     0.050 C 
ENDBRANCH  14  16
ENDBRANCH   5  12
BRANCH   7  24
HETATM   24  O2  UNK     1      19.363  -1.983  32.759  1.00  0.00    -0.349 OA
BRANCH  24  25
HETATM   25  C16 UNK     1      20.501  -2.477  33.464  1.00  0.00     0.171 C 
HETATM   26  C19 UNK     1      20.215  -2.441  34.950  1.00  0.00     0.034 C 
ENDBRANCH  24  25
ENDBRANCH   7  24
TORSDOF 4
ENDMDL
MODEL 3
REMARK VINA RESULT:      -9.3     18.676     22.069
REMARK  4 active torsions:
REMARK  status: ('A' for Active; 'I' for Inactive)
REMARK    1  A    between atoms: C16_22  and  O2_3 
REMARK    2  A    between atoms: C5_11  and  O2_3 
REMARK    3  A    between atoms: C6_12  and  N1_6 
REMARK       I    between atoms: C8_14  and  N1_6 
REMARK    4  A    between atoms: C3_9  and  C8_14 
ROOT
HETATM    1  O1  UNK     1      19.355  -2.294  13.173  1.00  0.00    -0.271 OA
HETATM    2  O4  UNK     1      19.469  -0.277  14.242  1.00  0.00    -0.259 OA
HETATM    3  C1  UNK     1      18.348  -4.195  14.304  1.00  0.00     0.002 A 
HETATM    4  C2  UNK     1      18.971  -3.648  13.187  1.00  0.00     0.123 A 
HETATM    5  C3  UNK     1      18.469  -2.059  15.441  1.00  0.00     0.108 A 
HETATM    6  C4  UNK     1      18.102  -3.346  15.459  1.00  0.00     0.037 A 
HETATM    7  C5  UNK     1      19.237  -4.408  12.049  1.00  0.00     0.103 A 
HETATM    8  C7  UNK     1      17.982  -5.543  14.278  1.00  0.00     0.014 A 
HETATM    9  C10 UNK     1      19.132  -1.455  14.262  1.00  0.00     0.304 A 
HETATM   10  C11 UNK     1      18.867  -5.751  12.032  1.00  0.00     0.040 A 
HETATM   11  C12 UNK     1      18.241  -6.318  13.144  1.00  0.00     0.004 A 
ENDROOT
BRANCH   5  12
HETATM   12  C8  UNK     1      18.177  -1.284  16.652  1.00  0.00     0.262 C 
HETATM   13  O3  UNK     1      17.087  -1.410  17.209  1.00  0.00    -0.267 OA
HETATM   14  N1  UNK     1      19.238  -0.469  17.020  1.00  0.00    -0.322 N 
HETATM   15  H4  UNK     1      20.079  -0.508  16.453  1.00  0.00     0.169 HD
BRANCH  14  16
HETATM   16  C6  UNK     1      19.308   0.411  18.128  1.00  0.00     0.043 A 
HETATM   17  C13 UNK     1      19.428  -0.133  19.396  1.00  0.00     0.072 A 
HETATM   18  C17 UNK     1      19.499   0.716  20.500  1.00  0.00     0.118 A 
HETATM   19  F1  UNK     1      19.615   0.204  21.733  1.00  0.00    -0.206 F 
HETATM   20  C18 UNK     1      19.449   2.099  20.321  1.00  0.00     0.043 A 
HETATM   21  C14 UNK     1      19.327   2.631  19.037  1.00  0.00     0.012 A 
HETATM   22  C9  UNK     1      19.257   1.782  17.933  1.00  0.00    -0.035 A 
HETATM   23  C15 UNK     1      19.128   2.380  16.570  1.00  0.00     0.050 C 
ENDBRANCH  14  16
ENDBRANCH   5  12
BRANCH   7  24
HETATM   24  O2  UNK     1      19.845  -3.860  10.963  1.00  0.00    -0.349 OA
BRANCH  24  25
HETATM   25  C16 UNK     1      19.087  -3.796   9.756  1.00  0.00     0.171 C 
HETATM   26  C19 UNK     1      20.024  -3.523   8.599  1.00  0.00     0.034 C 
ENDBRANCH  24  25
ENDBRANCH   7  24
TORSDOF 4
ENDMDL
MODEL 4
REMARK VINA RESULT:      -9.1      2.431      3.729
REMARK  4 active torsions:
REMARK  status: ('A' for Active; 'I' for Inactive)
REMARK    1  A    between atoms: C16_22  and  O2_3 
REMARK    2  A    between atoms: C5_11  and  O2_3 
REMARK    3  A    between atoms: C6_12  and  N1_6 
REMARK       I    between atoms: C8_14  and  N1_6 
REMARK    4  A    between atoms: C3_9  and  C8_14 
ROOT
HETATM    1  O1  UNK     1      18.834  -0.441  33.560  1.00  0.00    -0.271 OA
HETATM    2  O4  UNK     1      18.379  -0.557  35.797  1.00  0.00    -0.259 OA
HETATM    3  C1  UNK     1      20.226  -2.145  32.528  1.00  0.00     0.002 A 
HETATM    4  C2  UNK     1      19.469  -0.983  32.426  1.00  0.00     0.123 A 
HETATM    5  C3  UNK     1      19.748  -2.271  34.900  1.00  0.00     0.108 A 
HETATM    6  C4  UNK     1      20.353  -2.791  33.826  1.00  0.00     0.037 A 
HETATM    7  C5  UNK     1      19.308  -0.316  31.213  1.00  0.00     0.103 A 
HETATM    8  C7  UNK     1      20.840  -2.653  31.381  1.00  0.00     0.014 A 
HETATM    9  C10 UNK     1      18.936  -1.036  34.815  1.00  0.00     0.304 A 
HETATM   10  C11 UNK     1      19.924  -0.829  30.073  1.00  0.00     0.040 A 
HETATM   11  C12 UNK     1      20.688  -1.995  30.157  1.00  0.00     0.004 A 
ENDROOT
BRANCH   5  12
HETATM   12  C8  UNK     1      19.934  -2.994  36.164  1.00  0.00     0.262 C 
HETATM   13  O3  UNK     1      20.157  -2.367  37.198  1.00  0.00    -0.267 OA
HETATM   14  N1  UNK     1      19.826  -4.368  36.001  1.00  0.00    -0.322 N 
HETATM   15  H4  UNK     1      19.614  -4.716  35.071  1.00  0.00     0.169 HD
BRANCH  14  16
HETATM   16  C6  UNK     1      19.949  -5.368  36.997  1.00  0.00     0.043 A 
HETATM   17  C13 UNK     1      21.119  -5.422  37.737  1.00  0.00     0.072 A 
HETATM   18  C17 UNK     1      21.259  -6.399  38.723  1.00  0.00     0.118 A 
HETATM   19  F1  UNK     1      22.385  -6.464  39.446  1.00  0.00    -0.206 F 
HETATM   20  C18 UNK     1      20.226  -7.309  38.955  1.00  0.00     0.043 A 
HETATM   21  C14 UNK     1      19.055  -7.241  38.201  1.00  0.00     0.012 A 
HETATM   22  C9  UNK     1      18.915  -6.264  37.216  1.00  0.00    -0.035 A 
HETATM   23  C15 UNK     1      17.649  -6.215  36.424  1.00  0.00     0.050 C 
ENDBRANCH  14  16
ENDBRANCH   5  12
BRANCH   7  24
HETATM   24  O2  UNK     1      18.565   0.819  31.127  1.00  0.00    -0.349 OA
BRANCH  24  25
HETATM   25  C16 UNK     1      18.983   1.800  30.178  1.00  0.00     0.171 C 
HETATM   26  C19 UNK     1      17.907   1.955  29.124  1.00  0.00     0.034 C 
ENDBRANCH  24  25
ENDBRANCH   7  24
TORSDOF 4
ENDMDL
MODEL 5
REMARK VINA RESULT:      -9.0      2.936      8.219
REMARK  4 active torsions:
REMARK  status: ('A' for Active; 'I' for Inactive)
REMARK    1  A    between atoms: C16_22  and  O2_3 
REMARK    2  A    between atoms: C5_11  and  O2_3 
REMARK    3  A    between atoms: C6_12  and  N1_6 
REMARK       I    between atoms: C8_14  and  N1_6 
REMARK    4  A    between atoms: C3_9  and  C8_14 
ROOT
HETATM    1  O1  UNK     1      20.349  -7.177  35.864  1.00  0.00    -0.271 OA
HETATM    2  O4  UNK     1      20.333  -5.205  34.709  1.00  0.00    -0.259 OA
HETATM    3  C1  UNK     1      20.121  -7.152  38.283  1.00  0.00     0.002 A 
HETATM    4  C2  UNK     1      20.276  -7.857  37.094  1.00  0.00     0.123 A 
HETATM    5  C3  UNK     1      20.106  -5.059  37.063  1.00  0.00     0.108 A 
HETATM    6  C4  UNK     1      20.037  -5.701  38.235  1.00  0.00     0.037 A 
HETATM    7  C5  UNK     1      20.364  -9.248  37.071  1.00  0.00     0.103 A 
HETATM    8  C7  UNK     1      20.053  -7.863  39.484  1.00  0.00     0.014 A 
HETATM    9  C10 UNK     1      20.270  -5.789  35.785  1.00  0.00     0.304 A 
HETATM   10  C11 UNK     1      20.295  -9.949  38.273  1.00  0.00     0.040 A 
HETATM   11  C12 UNK     1      20.139  -9.258  39.477  1.00  0.00     0.004 A 
ENDROOT
BRANCH   5  12
HETATM   12  C8  UNK     1      20.011  -3.596  37.117  1.00  0.00     0.262 C 
HETATM   13  O3  UNK     1      20.829  -2.955  37.776  1.00  0.00    -0.267 OA
HETATM   14  N1  UNK     1      18.945  -3.113  36.371  1.00  0.00    -0.322 N 
HETATM   15  H4  UNK     1      18.380  -3.789  35.866  1.00  0.00     0.169 HD
BRANCH  14  16
HETATM   16  C6  UNK     1      18.553  -1.763  36.198  1.00  0.00     0.043 A 
HETATM   17  C13 UNK     1      17.945  -1.111  37.258  1.00  0.00     0.072 A 
HETATM   18  C17 UNK     1      17.552   0.219  37.108  1.00  0.00     0.118 A 
HETATM   19  F1  UNK     1      16.962   0.862  38.124  1.00  0.00    -0.206 F 
HETATM   20  C18 UNK     1      17.775   0.880  35.899  1.00  0.00     0.043 A 
HETATM   21  C14 UNK     1      18.388   0.208  34.840  1.00  0.00     0.012 A 
HETATM   22  C9  UNK     1      18.780  -1.121  34.992  1.00  0.00    -0.035 A 
HETATM   23  C15 UNK     1      19.437  -1.813  33.842  1.00  0.00     0.050 C 
ENDBRANCH  14  16
ENDBRANCH   5  12
BRANCH   7  24
HETATM   24  O2  UNK     1      20.515  -9.924  35.902  1.00  0.00    -0.349 OA
BRANCH  24  25
HETATM   25  C16 UNK     1      21.395 -11.049  35.910  1.00  0.00     0.171 C 
HETATM   26  C19 UNK     1      22.817 -10.563  35.729  1.00  0.00     0.034 C 
ENDBRANCH  24  25
ENDBRANCH   7  24
TORSDOF 4
ENDMDL
MODEL 6
REMARK VINA RESULT:      -8.7      3.124      8.258
REMARK  4 active torsions:
REMARK  status: ('A' for Active; 'I' for Inactive)
REMARK    1  A    between atoms: C16_22  and  O2_3 
REMARK    2  A    between atoms: C5_11  and  O2_3 
REMARK    3  A    between atoms: C6_12  and  N1_6 
REMARK       I    between atoms: C8_14  and  N1_6 
REMARK    4  A    between atoms: C3_9  and  C8_14 
ROOT
HETATM    1  O1  UNK     1      20.124  -7.148  35.796  1.00  0.00    -0.271 OA
HETATM    2  O4  UNK     1      20.209  -5.509  34.205  1.00  0.00    -0.259 OA
HETATM    3  C1  UNK     1      20.070  -6.536  38.147  1.00  0.00     0.002 A 
HETATM    4  C2  UNK     1      20.076  -7.511  37.155  1.00  0.00     0.123 A 
HETATM    5  C3  UNK     1      20.162  -4.796  36.465  1.00  0.00     0.108 A 
HETATM    6  C4  UNK     1      20.116  -5.135  37.758  1.00  0.00     0.037 A 
HETATM    7  C5  UNK     1      20.035  -8.870  37.461  1.00  0.00     0.103 A 
HETATM    8  C7  UNK     1      20.022  -6.937  39.485  1.00  0.00     0.014 A 
HETATM    9  C10 UNK     1      20.168  -5.816  35.392  1.00  0.00     0.304 A 
HETATM   10  C11 UNK     1      19.985  -9.261  38.798  1.00  0.00     0.040 A 
HETATM   11  C12 UNK     1      19.979  -8.296  39.808  1.00  0.00     0.004 A 
ENDROOT
BRANCH   5  12
HETATM   12  C8  UNK     1      20.205  -3.358  36.172  1.00  0.00     0.262 C 
HETATM   13  O3  UNK     1      21.286  -2.771  36.158  1.00  0.00    -0.267 OA
HETATM   14  N1  UNK     1      18.942  -2.833  35.939  1.00  0.00    -0.322 N 
HETATM   15  H4  UNK     1      18.154  -3.473  35.969  1.00  0.00     0.169 HD
BRANCH  14  16
HETATM   16  C6  UNK     1      18.607  -1.492  35.630  1.00  0.00     0.043 A 
HETATM   17  C13 UNK     1      18.775  -1.054  34.327  1.00  0.00     0.072 A 
HETATM   18  C17 UNK     1      18.451   0.263  34.002  1.00  0.00     0.118 A 
HETATM   19  F1  UNK     1      18.608   0.702  32.746  1.00  0.00    -0.206 F 
HETATM   20  C18 UNK     1      17.961   1.124  34.985  1.00  0.00     0.043 A 
HETATM   21  C14 UNK     1      17.799   0.668  36.293  1.00  0.00     0.012 A 
HETATM   22  C9  UNK     1      18.123  -0.650  36.617  1.00  0.00    -0.035 A 
HETATM   23  C15 UNK     1      17.937  -1.111  38.026  1.00  0.00     0.050 C 
ENDBRANCH  14  16
ENDBRANCH   5  12
BRANCH   7  24
HETATM   24  O2  UNK     1      20.040  -9.813  36.481  1.00  0.00    -0.349 OA
BRANCH  24  25
HETATM   25  C16 UNK     1      21.147 -10.713  36.452  1.00  0.00     0.171 C 
HETATM   26  C19 UNK     1      22.041 -10.358  35.282  1.00  0.00     0.034 C 
ENDBRANCH  24  25
ENDBRANCH   7  24
TORSDOF 4
ENDMDL
MODEL 7
REMARK VINA RESULT:      -8.6      6.667     11.388
REMARK  4 active torsions:
REMARK  status: ('A' for Active; 'I' for Inactive)
REMARK    1  A    between atoms: C16_22  and  O2_3 
REMARK    2  A    between atoms: C5_11  and  O2_3 
REMARK    3  A    between atoms: C6_12  and  N1_6 
REMARK       I    between atoms: C8_14  and  N1_6 
REMARK    4  A    between atoms: C3_9  and  C8_14 
ROOT
HETATM    1  O1  UNK     1      18.192   1.806  32.158  1.00  0.00    -0.271 OA
HETATM    2  O4  UNK     1      18.082   3.493  30.620  1.00  0.00    -0.259 OA
HETATM    3  C1  UNK     1      18.350   2.347  34.522  1.00  0.00     0.002 A 
HETATM    4  C2  UNK     1      18.285   1.402  33.503  1.00  0.00     0.123 A 
HETATM    5  C3  UNK     1      18.236   4.138  32.895  1.00  0.00     0.108 A 
HETATM    6  C4  UNK     1      18.324   3.759  34.175  1.00  0.00     0.037 A 
HETATM    7  C5  UNK     1      18.306   0.034  33.768  1.00  0.00     0.103 A 
HETATM    8  C7  UNK     1      18.441   1.906  35.845  1.00  0.00     0.014 A 
HETATM    9  C10 UNK     1      18.164   3.150  31.794  1.00  0.00     0.304 A 
HETATM   10  C11 UNK     1      18.396  -0.397  35.090  1.00  0.00     0.040 A 
HETATM   11  C12 UNK     1      18.463   0.537  36.127  1.00  0.00     0.004 A 
ENDROOT
BRANCH   5  12
HETATM   12  C8  UNK     1      18.215   5.584  32.646  1.00  0.00     0.262 C 
HETATM   13  O3  UNK     1      18.642   6.025  31.580  1.00  0.00    -0.267 OA
HETATM   14  N1  UNK     1      17.683   6.292  33.715  1.00  0.00    -0.322 N 
HETATM   15  H4  UNK     1      17.355   5.759  34.514  1.00  0.00     0.169 HD
BRANCH  14  16
HETATM   16  C6  UNK     1      17.511   7.693  33.822  1.00  0.00     0.043 A 
HETATM   17  C13 UNK     1      18.639   8.492  33.913  1.00  0.00     0.072 A 
HETATM   18  C17 UNK     1      18.491   9.875  34.020  1.00  0.00     0.118 A 
HETATM   19  F1  UNK     1      19.573  10.660  34.109  1.00  0.00    -0.206 F 
HETATM   20  C18 UNK     1      17.215  10.441  34.032  1.00  0.00     0.043 A 
HETATM   21  C14 UNK     1      16.089   9.622  33.940  1.00  0.00     0.012 A 
HETATM   22  C9  UNK     1      16.238   8.240  33.834  1.00  0.00    -0.035 A 
HETATM   23  C15 UNK     1      15.014   7.389  33.735  1.00  0.00     0.050 C 
ENDBRANCH  14  16
ENDBRANCH   5  12
BRANCH   7  24
HETATM   24  O2  UNK     1      18.241  -0.879  32.763  1.00  0.00    -0.349 OA
BRANCH  24  25
HETATM   25  C16 UNK     1      19.433  -1.604  32.465  1.00  0.00     0.171 C 
HETATM   26  C19 UNK     1      19.993  -1.112  31.147  1.00  0.00     0.034 C 
ENDBRANCH  24  25
ENDBRANCH   7  24
TORSDOF 4
ENDMDL
MODEL 8
REMARK VINA RESULT:      -8.4      8.336     11.552
REMARK  4 active torsions:
REMARK  status: ('A' for Active; 'I' for Inactive)
REMARK    1  A    between atoms: C16_22  and  O2_3 
REMARK    2  A    between atoms: C5_11  and  O2_3 
REMARK    3  A    between atoms: C6_12  and  N1_6 
REMARK       I    between atoms: C8_14  and  N1_6 
REMARK    4  A    between atoms: C3_9  and  C8_14 
ROOT
HETATM    1  O1  UNK     1      24.533  -8.447  37.371  1.00  0.00    -0.271 OA
HETATM    2  O4  UNK     1      25.880  -6.914  38.399  1.00  0.00    -0.259 OA
HETATM    3  C1  UNK     1      25.455 -10.588  36.685  1.00  0.00     0.002 A 
HETATM    4  C2  UNK     1      24.377  -9.714  36.777  1.00  0.00     0.123 A 
HETATM    5  C3  UNK     1      26.888  -8.966  37.773  1.00  0.00     0.108 A 
HETATM    6  C4  UNK     1      26.746 -10.171  37.210  1.00  0.00     0.037 A 
HETATM    7  C5  UNK     1      23.115 -10.052  36.293  1.00  0.00     0.103 A 
HETATM    8  C7  UNK     1      25.261 -11.836  36.089  1.00  0.00     0.014 A 
HETATM    9  C10 UNK     1      25.754  -8.019  37.883  1.00  0.00     0.304 A 
HETATM   10  C11 UNK     1      22.930 -11.299  35.701  1.00  0.00     0.040 A 
HETATM   11  C12 UNK     1      24.001 -12.190  35.599  1.00  0.00     0.004 A 
ENDROOT
BRANCH   5  12
HETATM   12  C8  UNK     1      28.228  -8.637  38.274  1.00  0.00     0.262 C 
HETATM   13  O3  UNK     1      28.751  -9.349  39.129  1.00  0.00    -0.267 OA
HETATM   14  N1  UNK     1      28.746  -7.498  37.673  1.00  0.00    -0.322 N 
HETATM   15  H4  UNK     1      28.182  -7.044  36.962  1.00  0.00     0.169 HD
BRANCH  14  16
HETATM   16  C6  UNK     1      30.005  -6.893  37.911  1.00  0.00     0.043 A 
HETATM   17  C13 UNK     1      31.150  -7.636  37.676  1.00  0.00     0.072 A 
HETATM   18  C17 UNK     1      32.399  -7.058  37.904  1.00  0.00     0.118 A 
HETATM   19  F1  UNK     1      33.515  -7.765  37.683  1.00  0.00    -0.206 F 
HETATM   20  C18 UNK     1      32.485  -5.743  38.362  1.00  0.00     0.043 A 
HETATM   21  C14 UNK     1      31.322  -5.007  38.593  1.00  0.00     0.012 A 
HETATM   22  C9  UNK     1      30.074  -5.586  38.365  1.00  0.00    -0.035 A 
HETATM   23  C15 UNK     1      28.846  -4.773  38.620  1.00  0.00     0.050 C 
ENDBRANCH  14  16
ENDBRANCH   5  12
BRANCH   7  24
HETATM   24  O2  UNK     1      22.069  -9.188  36.390  1.00  0.00    -0.349 OA
BRANCH  24  25
HETATM   25  C16 UNK     1      21.344  -8.908  35.193  1.00  0.00     0.171 C 
HETATM   26  C19 UNK     1      20.610  -7.594  35.358  1.00  0.00     0.034 C 
ENDBRANCH  24  25
ENDBRANCH   7  24
TORSDOF 4
ENDMDL
MODEL 9
REMARK VINA RESULT:      -8.3      2.828      4.651
REMARK  4 active torsions:
REMARK  status: ('A' for Active; 'I' for Inactive)
REMARK    1  A    between atoms: C16_22  and  O2_3 
REMARK    2  A    between atoms: C5_11  and  O2_3 
REMARK    3  A    between atoms: C6_12  and  N1_6 
REMARK       I    between atoms: C8_14  and  N1_6 
REMARK    4  A    between atoms: C3_9  and  C8_14 
ROOT
HETATM    1  O1  UNK     1      18.840   0.189  32.492  1.00  0.00    -0.271 OA
HETATM    2  O4  UNK     1      18.842  -0.281  34.729  1.00  0.00    -0.259 OA
HETATM    3  C1  UNK     1      20.169  -1.172  30.979  1.00  0.00     0.002 A 
HETATM    4  C2  UNK     1      19.294  -0.112  31.194  1.00  0.00     0.123 A 
HETATM    5  C3  UNK     1      20.175  -1.672  33.350  1.00  0.00     0.108 A 
HETATM    6  C4  UNK     1      20.609  -1.963  32.118  1.00  0.00     0.037 A 
HETATM    7  C5  UNK     1      18.835   0.685  30.147  1.00  0.00     0.103 A 
HETATM    8  C7  UNK     1      20.596  -1.440  29.676  1.00  0.00     0.014 A 
HETATM    9  C10 UNK     1      19.242  -0.550  33.601  1.00  0.00     0.304 A 
HETATM   10  C11 UNK     1      19.265   0.410  28.850  1.00  0.00     0.040 A 
HETATM   11  C12 UNK     1      20.144  -0.650  28.615  1.00  0.00     0.004 A 
ENDROOT
BRANCH   5  12
HETATM   12  C8  UNK     1      20.674  -2.527  34.432  1.00  0.00     0.262 C 
HETATM   13  O3  UNK     1      21.753  -2.271  34.964  1.00  0.00    -0.267 OA
HETATM   14  N1  UNK     1      19.804  -3.569  34.720  1.00  0.00    -0.322 N 
HETATM   15  H4  UNK     1      18.937  -3.617  34.193  1.00  0.00     0.169 HD
BRANCH  14  16
HETATM   16  C6  UNK     1      19.961  -4.581  35.699  1.00  0.00     0.043 A 
HETATM   17  C13 UNK     1      20.130  -5.889  35.274  1.00  0.00     0.072 A 
HETATM   18  C17 UNK     1      20.288  -6.900  36.222  1.00  0.00     0.118 A 
HETATM   19  F1  UNK     1      20.452  -8.170  35.827  1.00  0.00    -0.206 F 
HETATM   20  C18 UNK     1      20.275  -6.589  37.583  1.00  0.00     0.043 A 
HETATM   21  C14 UNK     1      20.103  -5.267  37.994  1.00  0.00     0.012 A 
HETATM   22  C9  UNK     1      19.946  -4.257  37.045  1.00  0.00    -0.035 A 
HETATM   23  C15 UNK     1      19.766  -2.850  37.515  1.00  0.00     0.050 C 
ENDBRANCH  14  16
ENDBRANCH   5  12
BRANCH   7  24
HETATM   24  O2  UNK     1      17.979   1.717  30.371  1.00  0.00    -0.349 OA
BRANCH  24  25
HETATM   25  C16 UNK     1      18.515   3.037  30.280  1.00  0.00     0.171 C 
HETATM   26  C19 UNK     1      18.217   3.779  31.566  1.00  0.00     0.034 C 
ENDBRANCH  24  25
ENDBRANCH   7  24
TORSDOF 4
ENDMDL
MODEL 10
REMARK VINA RESULT:      -8.2      6.100      9.125
REMARK  4 active torsions:
REMARK  status: ('A' for Active; 'I' for Inactive)
REMARK    1  A    between atoms: C16_22  and  O2_3 
REMARK    2  A    between atoms: C5_11  and  O2_3 
REMARK    3  A    between atoms: C6_12  and  N1_6 
REMARK       I    between atoms: C8_14  and  N1_6 
REMARK    4  A    between atoms: C3_9  and  C8_14 
ROOT
HETATM    1  O1  UNK     1      26.145  -5.661  38.693  1.00  0.00    -0.271 OA
HETATM    2  O4  UNK     1      23.906  -5.258  38.910  1.00  0.00    -0.259 OA
HETATM    3  C1  UNK     1      26.964  -7.948  38.751  1.00  0.00     0.002 A 
HETATM    4  C2  UNK     1      27.207  -6.584  38.637  1.00  0.00     0.123 A 
HETATM    5  C3  UNK     1      24.590  -7.526  38.984  1.00  0.00     0.108 A 
HETATM    6  C4  UNK     1      25.595  -8.407  38.931  1.00  0.00     0.037 A 
HETATM    7  C5  UNK     1      28.495  -6.079  38.464  1.00  0.00     0.103 A 
HETATM    8  C7  UNK     1      28.044  -8.832  38.691  1.00  0.00     0.014 A 
HETATM    9  C10 UNK     1      24.825  -6.069  38.863  1.00  0.00     0.304 A 
HETATM   10  C11 UNK     1      29.566  -6.968  38.404  1.00  0.00     0.040 A 
HETATM   11  C12 UNK     1      29.342  -8.342  38.517  1.00  0.00     0.004 A 
ENDROOT
BRANCH   5  12
HETATM   12  C8  UNK     1      23.246  -8.085  39.167  1.00  0.00     0.262 C 
HETATM   13  O3  UNK     1      22.933  -8.581  40.248  1.00  0.00    -0.267 OA
HETATM   14  N1  UNK     1      22.470  -7.967  38.022  1.00  0.00    -0.322 N 
HETATM   15  H4  UNK     1      22.884  -7.504  37.219  1.00  0.00     0.169 HD
BRANCH  14  16
HETATM   16  C6  UNK     1      21.132  -8.395  37.838  1.00  0.00     0.043 A 
HETATM   17  C13 UNK     1      20.907  -9.698  37.425  1.00  0.00     0.072 A 
HETATM   18  C17 UNK     1      19.597 -10.139  37.238  1.00  0.00     0.118 A 
HETATM   19  F1  UNK     1      19.363 -11.396  36.838  1.00  0.00    -0.206 F 
HETATM   20  C18 UNK     1      18.529  -9.270  37.468  1.00  0.00     0.043 A 
HETATM   21  C14 UNK     1      18.773  -7.961  37.882  1.00  0.00     0.012 A 
HETATM   22  C9  UNK     1      20.083  -7.521  38.069  1.00  0.00    -0.035 A 
HETATM   23  C15 UNK     1      20.313  -6.113  38.516  1.00  0.00     0.050 C 
ENDBRANCH  14  16
ENDBRANCH   5  12
BRANCH   7  24
HETATM   24  O2  UNK     1      28.718  -4.742  38.353  1.00  0.00    -0.349 OA
BRANCH  24  25
HETATM   25  C16 UNK     1      30.022  -4.271  38.691  1.00  0.00     0.171 C 
HETATM   26  C19 UNK     1      30.657  -3.655  37.462  1.00  0.00     0.034 C 
ENDBRANCH  24  25
ENDBRANCH   7  24
TORSDOF 4
ENDMDL
