MODEL 1
REMARK VINA RESULT:      -7.9      0.000      0.000
REMARK  5 active torsions:
REMARK  status: ('A' for Active; 'I' for Inactive)
REMARK    1  A    between atoms: C10_15  and  O2_3 
REMARK    2  A    between atoms: C7_12  and  O2_3 
REMARK    3  A    between atoms: C11_16  and  O3_4 
REMARK    4  A    between atoms: C6_11  and  O3_4 
REMARK    5  A    between atoms: C11_16  and  C17_22 
ROOT
HETATM    1  O1  UNK     1      13.585   9.491   9.103  1.00  0.00    -0.319 OA
HETATM    2  O4  UNK     1      13.761   5.571  10.234  1.00  0.00    -0.284 OA
HETATM    3  C1  UNK     1      14.917   7.599   9.853  1.00  0.00     0.051 A 
HETATM    4  C2  UNK     1      14.788   8.932   9.457  1.00  0.00     0.092 A 
HETATM    5  C3  UNK     1      13.714   6.746   9.896  1.00  0.00     0.220 A 
HETATM    6  C4  UNK     1      16.167   7.084  10.201  1.00  0.00     0.021 A 
HETATM    7  C5  UNK     1      15.913   9.757   9.409  1.00  0.00     0.075 A 
HETATM    8  C6  UNK     1      17.163   9.245   9.757  1.00  0.00     0.071 A 
HETATM    9  C7  UNK     1      12.444   7.397   9.507  1.00  0.00     0.149 A 
HETATM   10  C8  UNK     1      17.289   7.912  10.152  1.00  0.00     0.038 A 
HETATM   11  C9  UNK     1      12.473   8.685   9.150  1.00  0.00     0.184 A 
ENDROOT
BRANCH   9  12
HETATM   12  O2  UNK     1      11.276   6.670   9.521  1.00  0.00    -0.303 OA
BRANCH  12  13
HETATM   13  C10 UNK     1      10.609   6.541   8.335  1.00  0.00     0.098 A 
HETATM   14  C13 UNK     1      11.323   6.128   7.212  1.00  0.00     0.039 A 
HETATM   15  C15 UNK     1      10.669   5.985   5.988  1.00  0.00     0.003 A 
HETATM   16  C16 UNK     1       9.304   6.258   5.890  1.00  0.00     0.002 A 
HETATM   17  C14 UNK     1       8.594   6.672   7.017  1.00  0.00     0.026 A 
HETATM   18  C12 UNK     1       9.247   6.814   8.241  1.00  0.00     0.067 A 
HETATM   19 Cl1  UNK     1       8.344   7.327   9.618  1.00  0.00    -0.081 Cl
ENDBRANCH  12  13
ENDBRANCH   9  12
BRANCH   8  20
HETATM   20  O3  UNK     1      18.262  10.047   9.710  1.00  0.00    -0.347 OA
BRANCH  20  21
HETATM   21  C11 UNK     1      18.086  11.361   9.182  1.00  0.00     0.202 C 
BRANCH  21  22
HETATM   22  C17 UNK     1      18.841  11.467   7.899  1.00  0.00    -0.011 C 
HETATM   23  C18 UNK     1      18.404  12.137   6.828  1.00  0.00     0.009 C 
ENDBRANCH  21  22
ENDBRANCH  20  21
ENDBRANCH   8  20
TORSDOF 5
ENDMDL
MODEL 2
REMARK VINA RESULT:      -7.9     22.839     24.498
REMARK  5 active torsions:
REMARK  status: ('A' for Active; 'I' for Inactive)
REMARK    1  A    between atoms: C10_15  and  O2_3 
REMARK    2  A    between atoms: C7_12  and  O2_3 
REMARK    3  A    between atoms: C11_16  and  O3_4 
REMARK    4  A    between atoms: C6_11  and  O3_4 
REMARK    5  A    between atoms: C11_16  and  C17_22 
ROOT
HETATM    1  O1  UNK     1      19.469   4.745  30.326  1.00  0.00    -0.319 OA
HETATM    2  O4  UNK     1      17.555   2.358  33.031  1.00  0.00    -0.284 OA
HETATM    3  C1  UNK     1      18.585   4.437  32.571  1.00  0.00     0.051 A 
HETATM    4  C2  UNK     1      19.234   5.202  31.600  1.00  0.00     0.092 A 
HETATM    5  C3  UNK     1      18.130   3.077  32.225  1.00  0.00     0.220 A 
HETATM    6  C4  UNK     1      18.373   4.954  33.850  1.00  0.00     0.021 A 
HETATM    7  C5  UNK     1      19.673   6.491  31.905  1.00  0.00     0.075 A 
HETATM    8  C6  UNK     1      19.462   7.010  33.182  1.00  0.00     0.071 A 
HETATM    9  C7  UNK     1      18.407   2.634  30.840  1.00  0.00     0.149 A 
HETATM   10  C8  UNK     1      18.813   6.243  34.153  1.00  0.00     0.038 A 
HETATM   11  C9  UNK     1      19.038   3.478  30.017  1.00  0.00     0.184 A 
ENDROOT
BRANCH   9  12
HETATM   12  O2  UNK     1      18.013   1.379  30.438  1.00  0.00    -0.303 OA
BRANCH  12  13
HETATM   13  C10 UNK     1      19.000   0.457  30.225  1.00  0.00     0.098 A 
HETATM   14  C13 UNK     1      19.588   0.390  28.964  1.00  0.00     0.039 A 
HETATM   15  C15 UNK     1      20.598  -0.541  28.717  1.00  0.00     0.003 A 
HETATM   16  C16 UNK     1      21.015  -1.402  29.732  1.00  0.00     0.002 A 
HETATM   17  C14 UNK     1      20.424  -1.332  30.993  1.00  0.00     0.026 A 
HETATM   18  C12 UNK     1      19.414  -0.401  31.240  1.00  0.00     0.067 A 
HETATM   19 Cl1  UNK     1      18.700  -0.336  32.809  1.00  0.00    -0.081 Cl
ENDBRANCH  12  13
ENDBRANCH   9  12
BRANCH   8  20
HETATM   20  O3  UNK     1      19.890   8.266  33.485  1.00  0.00    -0.347 OA
BRANCH  20  21
HETATM   21  C11 UNK     1      19.165   8.975  34.489  1.00  0.00     0.202 C 
BRANCH  21  22
HETATM   22  C17 UNK     1      18.139   9.832  33.825  1.00  0.00    -0.011 C 
HETATM   23  C18 UNK     1      16.821   9.626  33.915  1.00  0.00     0.009 C 
ENDBRANCH  21  22
ENDBRANCH  20  21
ENDBRANCH   8  20
TORSDOF 5
ENDMDL
MODEL 3
REMARK VINA RESULT:      -7.6     22.621     24.631
REMARK  5 active torsions:
REMARK  status: ('A' for Active; 'I' for Inactive)
REMARK    1  A    between atoms: C10_15  and  O2_3 
REMARK    2  A    between atoms: C7_12  and  O2_3 
REMARK    3  A    between atoms: C11_16  and  O3_4 
REMARK    4  A    between atoms: C6_11  and  O3_4 
REMARK    5  A    between atoms: C11_16  and  C17_22 
ROOT
HETATM    1  O1  UNK     1      18.025   4.364  33.453  1.00  0.00    -0.319 OA
HETATM    2  O4  UNK     1      18.555   6.586  30.069  1.00  0.00    -0.284 OA
HETATM    3  C1  UNK     1      18.501   4.444  31.070  1.00  0.00     0.051 A 
HETATM    4  C2  UNK     1      18.309   3.743  32.262  1.00  0.00     0.092 A 
HETATM    5  C3  UNK     1      18.398   5.916  31.080  1.00  0.00     0.220 A 
HETATM    6  C4  UNK     1      18.787   3.759  29.888  1.00  0.00     0.021 A 
HETATM    7  C5  UNK     1      18.400   2.351  32.275  1.00  0.00     0.075 A 
HETATM    8  C6  UNK     1      18.686   1.664  31.095  1.00  0.00     0.071 A 
HETATM    9  C7  UNK     1      18.089   6.535  32.388  1.00  0.00     0.149 A 
HETATM   10  C8  UNK     1      18.879   2.367  29.904  1.00  0.00     0.038 A 
HETATM   11  C9  UNK     1      17.930   5.734  33.448  1.00  0.00     0.184 A 
ENDROOT
BRANCH   9  12
HETATM   12  O2  UNK     1      17.976   7.902  32.483  1.00  0.00    -0.303 OA
BRANCH  12  13
HETATM   13  C10 UNK     1      16.863   8.392  33.109  1.00  0.00     0.098 A 
HETATM   14  C13 UNK     1      15.662   7.700  32.970  1.00  0.00     0.039 A 
HETATM   15  C15 UNK     1      14.511   8.176  33.599  1.00  0.00     0.003 A 
HETATM   16  C16 UNK     1      14.564   9.341  34.363  1.00  0.00     0.002 A 
HETATM   17  C14 UNK     1      15.769  10.031  34.499  1.00  0.00     0.026 A 
HETATM   18  C12 UNK     1      16.920   9.556  33.871  1.00  0.00     0.067 A 
HETATM   19 Cl1  UNK     1      18.397  10.428  34.057  1.00  0.00    -0.081 Cl
ENDBRANCH  12  13
ENDBRANCH   9  12
BRANCH   8  20
HETATM   20  O3  UNK     1      18.779   0.306  31.104  1.00  0.00    -0.347 OA
BRANCH  20  21
HETATM   21  C11 UNK     1      20.084  -0.255  31.238  1.00  0.00     0.202 C 
BRANCH  21  22
HETATM   22  C17 UNK     1      20.336  -1.165  30.082  1.00  0.00    -0.011 C 
HETATM   23  C18 UNK     1      20.594  -0.742  28.840  1.00  0.00     0.009 C 
ENDBRANCH  21  22
ENDBRANCH  20  21
ENDBRANCH   8  20
TORSDOF 5
ENDMDL
MODEL 4
REMARK VINA RESULT:      -7.6     22.451     24.491
REMARK  5 active torsions:
REMARK  status: ('A' for Active; 'I' for Inactive)
REMARK    1  A    between atoms: C10_15  and  O2_3 
REMARK    2  A    between atoms: C7_12  and  O2_3 
REMARK    3  A    between atoms: C11_16  and  O3_4 
REMARK    4  A    between atoms: C6_11  and  O3_4 
REMARK    5  A    between atoms: C11_16  and  C17_22 
ROOT
HETATM    1  O1  UNK     1      18.692   6.012  30.512  1.00  0.00    -0.319 OA
HETATM    2  O4  UNK     1      18.027   4.425  34.215  1.00  0.00    -0.284 OA
HETATM    3  C1  UNK     1      18.395   4.044  31.911  1.00  0.00     0.051 A 
HETATM    4  C2  UNK     1      18.620   4.650  30.673  1.00  0.00     0.092 A 
HETATM    5  C3  UNK     1      18.226   4.895  33.104  1.00  0.00     0.220 A 
HETATM    6  C4  UNK     1      18.331   2.654  32.014  1.00  0.00     0.021 A 
HETATM    7  C5  UNK     1      18.784   3.864  29.531  1.00  0.00     0.075 A 
HETATM    8  C6  UNK     1      18.720   2.474  29.632  1.00  0.00     0.071 A 
HETATM    9  C7  UNK     1      18.314   6.355  32.876  1.00  0.00     0.149 A 
HETATM   10  C8  UNK     1      18.495   1.870  30.871  1.00  0.00     0.038 A 
HETATM   11  C9  UNK     1      18.535   6.792  31.632  1.00  0.00     0.184 A 
ENDROOT
BRANCH   9  12
HETATM   12  O2  UNK     1      18.168   7.217  33.937  1.00  0.00    -0.303 OA
BRANCH  12  13
HETATM   13  C10 UNK     1      17.025   7.967  33.976  1.00  0.00     0.098 A 
HETATM   14  C13 UNK     1      15.798   7.309  34.015  1.00  0.00     0.039 A 
HETATM   15  C15 UNK     1      14.615   8.048  34.057  1.00  0.00     0.003 A 
HETATM   16  C16 UNK     1      14.664   9.443  34.059  1.00  0.00     0.002 A 
HETATM   17  C14 UNK     1      15.895  10.097  34.020  1.00  0.00     0.026 A 
HETATM   18  C12 UNK     1      17.078   9.359  33.979  1.00  0.00     0.067 A 
HETATM   19 Cl1  UNK     1      18.586  10.195  33.932  1.00  0.00    -0.081 Cl
ENDBRANCH  12  13
ENDBRANCH   9  12
BRANCH   8  20
HETATM   20  O3  UNK     1      18.877   1.704  28.520  1.00  0.00    -0.347 OA
BRANCH  20  21
HETATM   21  C11 UNK     1      18.887   0.290  28.707  1.00  0.00     0.202 C 
BRANCH  21  22
HETATM   22  C17 UNK     1      20.292  -0.152  28.949  1.00  0.00    -0.011 C 
HETATM   23  C18 UNK     1      20.622  -1.327  29.494  1.00  0.00     0.009 C 
ENDBRANCH  21  22
ENDBRANCH  20  21
ENDBRANCH   8  20
TORSDOF 5
ENDMDL
MODEL 5
REMARK VINA RESULT:      -7.4     22.857     25.203
REMARK  5 active torsions:
REMARK  status: ('A' for Active; 'I' for Inactive)
REMARK    1  A    between atoms: C10_15  and  O2_3 
REMARK    2  A    between atoms: C7_12  and  O2_3 
REMARK    3  A    between atoms: C11_16  and  O3_4 
REMARK    4  A    between atoms: C6_11  and  O3_4 
REMARK    5  A    between atoms: C11_16  and  C17_22 
ROOT
HETATM    1  O1  UNK     1      18.015   3.109  33.152  1.00  0.00    -0.319 OA
HETATM    2  O4  UNK     1      18.942   4.583  29.459  1.00  0.00    -0.284 OA
HETATM    3  C1  UNK     1      18.803   2.704  30.887  1.00  0.00     0.051 A 
HETATM    4  C2  UNK     1      18.469   2.263  32.170  1.00  0.00     0.092 A 
HETATM    5  C3  UNK     1      18.667   4.136  30.564  1.00  0.00     0.220 A 
HETATM    6  C4  UNK     1      19.259   1.798  29.928  1.00  0.00     0.021 A 
HETATM    7  C5  UNK     1      18.590   0.912  32.497  1.00  0.00     0.075 A 
HETATM    8  C6  UNK     1      19.046   0.006  31.540  1.00  0.00     0.071 A 
HETATM    9  C7  UNK     1      18.173   5.003  31.656  1.00  0.00     0.149 A 
HETATM   10  C8  UNK     1      19.380   0.448  30.258  1.00  0.00     0.038 A 
HETATM   11  C9  UNK     1      17.891   4.440  32.836  1.00  0.00     0.184 A 
ENDROOT
BRANCH   9  12
HETATM   12  O2  UNK     1      18.017   6.351  31.436  1.00  0.00    -0.303 OA
BRANCH  12  13
HETATM   13  C10 UNK     1      18.448   7.196  32.420  1.00  0.00     0.098 A 
HETATM   14  C13 UNK     1      19.731   7.021  32.934  1.00  0.00     0.039 A 
HETATM   15  C15 UNK     1      20.198   7.870  33.938  1.00  0.00     0.003 A 
HETATM   16  C16 UNK     1      19.381   8.889  34.426  1.00  0.00     0.002 A 
HETATM   17  C14 UNK     1      18.097   9.061  33.910  1.00  0.00     0.026 A 
HETATM   18  C12 UNK     1      17.629   8.213  32.906  1.00  0.00     0.067 A 
HETATM   19 Cl1  UNK     1      16.037   8.449  32.285  1.00  0.00    -0.081 Cl
ENDBRANCH  12  13
ENDBRANCH   9  12
BRANCH   8  20
HETATM   20  O3  UNK     1      19.167  -1.313  31.857  1.00  0.00    -0.347 OA
BRANCH  20  21
HETATM   21  C11 UNK     1      20.405  -1.947  31.535  1.00  0.00     0.202 C 
BRANCH  21  22
HETATM   22  C17 UNK     1      21.073  -2.364  32.802  1.00  0.00    -0.011 C 
HETATM   23  C18 UNK     1      20.424  -2.602  33.946  1.00  0.00     0.009 C 
ENDBRANCH  21  22
ENDBRANCH  20  21
ENDBRANCH   8  20
TORSDOF 5
ENDMDL
MODEL 6
REMARK VINA RESULT:      -7.4     22.545     24.743
REMARK  5 active torsions:
REMARK  status: ('A' for Active; 'I' for Inactive)
REMARK    1  A    between atoms: C10_15  and  O2_3 
REMARK    2  A    between atoms: C7_12  and  O2_3 
REMARK    3  A    between atoms: C11_16  and  O3_4 
REMARK    4  A    between atoms: C6_11  and  O3_4 
REMARK    5  A    between atoms: C11_16  and  C17_22 
ROOT
HETATM    1  O1  UNK     1      19.303   6.193  30.913  1.00  0.00    -0.319 OA
HETATM    2  O4  UNK     1      18.182   4.487  34.449  1.00  0.00    -0.284 OA
HETATM    3  C1  UNK     1      18.539   4.228  32.126  1.00  0.00     0.051 A 
HETATM    4  C2  UNK     1      18.932   4.871  30.950  1.00  0.00     0.092 A 
HETATM    5  C3  UNK     1      18.516   4.994  33.387  1.00  0.00     0.220 A 
HETATM    6  C4  UNK     1      18.173   2.881  32.104  1.00  0.00     0.021 A 
HETATM    7  C5  UNK     1      18.962   4.166  29.746  1.00  0.00     0.075 A 
HETATM    8  C6  UNK     1      18.596   2.821  29.722  1.00  0.00     0.071 A 
HETATM    9  C7  UNK     1      18.926   6.412  33.292  1.00  0.00     0.149 A 
HETATM   10  C8  UNK     1      18.203   2.179  30.899  1.00  0.00     0.038 A 
HETATM   11  C9  UNK     1      19.279   6.893  32.095  1.00  0.00     0.184 A 
ENDROOT
BRANCH   9  12
HETATM   12  O2  UNK     1      18.932   7.194  34.423  1.00  0.00    -0.303 OA
BRANCH  12  13
HETATM   13  C10 UNK     1      18.407   8.452  34.312  1.00  0.00     0.098 A 
HETATM   14  C13 UNK     1      19.280   9.528  34.173  1.00  0.00     0.039 A 
HETATM   15  C15 UNK     1      18.773  10.823  34.057  1.00  0.00     0.003 A 
HETATM   16  C16 UNK     1      17.394  11.036  34.082  1.00  0.00     0.002 A 
HETATM   17  C14 UNK     1      16.524   9.956  34.223  1.00  0.00     0.026 A 
HETATM   18  C12 UNK     1      17.031   8.662  34.338  1.00  0.00     0.067 A 
HETATM   19 Cl1  UNK     1      15.931   7.344  34.510  1.00  0.00    -0.081 Cl
ENDBRANCH  12  13
ENDBRANCH   9  12
BRANCH   8  20
HETATM   20  O3  UNK     1      18.622   2.130  28.549  1.00  0.00    -0.347 OA
BRANCH  20  21
HETATM   21  C11 UNK     1      18.050   0.823  28.553  1.00  0.00     0.202 C 
BRANCH  21  22
HETATM   22  C17 UNK     1      19.101  -0.161  28.158  1.00  0.00    -0.011 C 
HETATM   23  C18 UNK     1      20.176  -0.445  28.900  1.00  0.00     0.009 C 
ENDBRANCH  21  22
ENDBRANCH  20  21
ENDBRANCH   8  20
TORSDOF 5
ENDMDL
MODEL 7
REMARK VINA RESULT:      -7.4      3.724      6.150
REMARK  5 active torsions:
REMARK  status: ('A' for Active; 'I' for Inactive)
REMARK    1  A    between atoms: C10_15  and  O2_3 
REMARK    2  A    between atoms: C7_12  and  O2_3 
REMARK    3  A    between atoms: C11_16  and  O3_4 
REMARK    4  A    between atoms: C6_11  and  O3_4 
REMARK    5  A    between atoms: C11_16  and  C17_22 
ROOT
HETATM    1  O1  UNK     1      10.208   4.556  10.113  1.00  0.00    -0.319 OA
HETATM    2  O4  UNK     1       7.819   6.611   7.516  1.00  0.00    -0.284 OA
HETATM    3  C1  UNK     1      10.008   5.986   8.156  1.00  0.00     0.051 A 
HETATM    4  C2  UNK     1      10.768   5.263   9.078  1.00  0.00     0.092 A 
HETATM    5  C3  UNK     1       8.539   5.998   8.292  1.00  0.00     0.220 A 
HETATM    6  C4  UNK     1      10.633   6.686   7.122  1.00  0.00     0.021 A 
HETATM    7  C5  UNK     1      12.159   5.237   8.968  1.00  0.00     0.075 A 
HETATM    8  C6  UNK     1      12.785   5.936   7.936  1.00  0.00     0.071 A 
HETATM    9  C7  UNK     1       7.987   5.220   9.423  1.00  0.00     0.149 A 
HETATM   10  C8  UNK     1      12.024   6.659   7.015  1.00  0.00     0.038 A 
HETATM   11  C9  UNK     1       8.839   4.575  10.227  1.00  0.00     0.184 A 
ENDROOT
BRANCH   9  12
HETATM   12  O2  UNK     1       6.626   5.179   9.619  1.00  0.00    -0.303 OA
BRANCH  12  13
HETATM   13  C10 UNK     1       6.159   4.299  10.554  1.00  0.00     0.098 A 
HETATM   14  C13 UNK     1       5.949   2.974  10.176  1.00  0.00     0.039 A 
HETATM   15  C15 UNK     1       5.474   2.053  11.110  1.00  0.00     0.003 A 
HETATM   16  C16 UNK     1       5.209   2.459  12.418  1.00  0.00     0.002 A 
HETATM   17  C14 UNK     1       5.419   3.786  12.792  1.00  0.00     0.026 A 
HETATM   18  C12 UNK     1       5.895   4.708  11.859  1.00  0.00     0.067 A 
HETATM   19 Cl1  UNK     1       6.147   6.342  12.350  1.00  0.00    -0.081 Cl
ENDBRANCH  12  13
ENDBRANCH   9  12
BRANCH   8  20
HETATM   20  O3  UNK     1      14.142   5.915   7.827  1.00  0.00    -0.347 OA
BRANCH  20  21
HETATM   21  C11 UNK     1      14.883   5.577   8.998  1.00  0.00     0.202 C 
BRANCH  21  22
HETATM   22  C17 UNK     1      15.383   6.834   9.629  1.00  0.00    -0.011 C 
HETATM   23  C18 UNK     1      16.584   6.955  10.204  1.00  0.00     0.009 C 
ENDBRANCH  21  22
ENDBRANCH  20  21
ENDBRANCH   8  20
TORSDOF 5
ENDMDL
MODEL 8
REMARK VINA RESULT:      -7.4      3.179      5.670
REMARK  5 active torsions:
REMARK  status: ('A' for Active; 'I' for Inactive)
REMARK    1  A    between atoms: C10_15  and  O2_3 
REMARK    2  A    between atoms: C7_12  and  O2_3 
REMARK    3  A    between atoms: C11_16  and  O3_4 
REMARK    4  A    between atoms: C6_11  and  O3_4 
REMARK    5  A    between atoms: C11_16  and  C17_22 
ROOT
HETATM    1  O1  UNK     1      10.570   4.524  10.087  1.00  0.00    -0.319 OA
HETATM    2  O4  UNK     1       8.717   6.796   7.245  1.00  0.00    -0.284 OA
HETATM    3  C1  UNK     1      10.744   5.965   8.136  1.00  0.00     0.051 A 
HETATM    4  C2  UNK     1      11.315   5.174   9.135  1.00  0.00     0.092 A 
HETATM    5  C3  UNK     1       9.277   6.118   8.095  1.00  0.00     0.220 A 
HETATM    6  C4  UNK     1      11.552   6.603   7.193  1.00  0.00     0.021 A 
HETATM    7  C5  UNK     1      12.701   5.016   9.192  1.00  0.00     0.075 A 
HETATM    8  C6  UNK     1      13.510   5.652   8.252  1.00  0.00     0.071 A 
HETATM    9  C7  UNK     1       8.521   5.396   9.142  1.00  0.00     0.149 A 
HETATM   10  C8  UNK     1      12.937   6.444   7.254  1.00  0.00     0.038 A 
HETATM   11  C9  UNK     1       9.205   4.673  10.036  1.00  0.00     0.184 A 
ENDROOT
BRANCH   9  12
HETATM   12  O2  UNK     1       7.149   5.485   9.173  1.00  0.00    -0.303 OA
BRANCH  12  13
HETATM   13  C10 UNK     1       6.584   5.995  10.309  1.00  0.00     0.098 A 
HETATM   14  C13 UNK     1       6.837   7.324  10.640  1.00  0.00     0.039 A 
HETATM   15  C15 UNK     1       6.272   7.871  11.792  1.00  0.00     0.003 A 
HETATM   16  C16 UNK     1       5.459   7.087  12.610  1.00  0.00     0.002 A 
HETATM   17  C14 UNK     1       5.209   5.757  12.276  1.00  0.00     0.026 A 
HETATM   18  C12 UNK     1       5.772   5.209  11.123  1.00  0.00     0.067 A 
HETATM   19 Cl1  UNK     1       5.446   3.561  10.733  1.00  0.00    -0.081 Cl
ENDBRANCH  12  13
ENDBRANCH   9  12
BRANCH   8  20
HETATM   20  O3  UNK     1      14.862   5.502   8.306  1.00  0.00    -0.347 OA
BRANCH  20  21
HETATM   21  C11 UNK     1      15.446   5.337   9.597  1.00  0.00     0.202 C 
BRANCH  21  22
HETATM   22  C17 UNK     1      15.841   6.678  10.120  1.00  0.00    -0.011 C 
HETATM   23  C18 UNK     1      17.083   7.168  10.058  1.00  0.00     0.009 C 
ENDBRANCH  21  22
ENDBRANCH  20  21
ENDBRANCH   8  20
TORSDOF 5
ENDMDL
MODEL 9
REMARK VINA RESULT:      -7.4     23.149     25.137
REMARK  5 active torsions:
REMARK  status: ('A' for Active; 'I' for Inactive)
REMARK    1  A    between atoms: C10_15  and  O2_3 
REMARK    2  A    between atoms: C7_12  and  O2_3 
REMARK    3  A    between atoms: C11_16  and  O3_4 
REMARK    4  A    between atoms: C6_11  and  O3_4 
REMARK    5  A    between atoms: C11_16  and  C17_22 
ROOT
HETATM    1  O1  UNK     1      18.025   3.154  33.445  1.00  0.00    -0.319 OA
HETATM    2  O4  UNK     1      18.918   2.741  29.483  1.00  0.00    -0.284 OA
HETATM    3  C1  UNK     1      18.537   4.195  31.308  1.00  0.00     0.051 A 
HETATM    4  C2  UNK     1      18.229   4.268  32.668  1.00  0.00     0.092 A 
HETATM    5  C3  UNK     1      18.650   2.870  30.669  1.00  0.00     0.220 A 
HETATM    6  C4  UNK     1      18.734   5.362  30.567  1.00  0.00     0.021 A 
HETATM    7  C5  UNK     1      18.117   5.510  33.293  1.00  0.00     0.075 A 
HETATM    8  C6  UNK     1      18.313   6.677  32.554  1.00  0.00     0.071 A 
HETATM    9  C7  UNK     1      18.423   1.704  31.551  1.00  0.00     0.149 A 
HETATM   10  C8  UNK     1      18.621   6.603  31.194  1.00  0.00     0.038 A 
HETATM   11  C9  UNK     1      18.136   1.927  32.838  1.00  0.00     0.184 A 
ENDROOT
BRANCH   9  12
HETATM   12  O2  UNK     1      18.511   0.433  31.033  1.00  0.00    -0.303 OA
BRANCH  12  13
HETATM   13  C10 UNK     1      19.166  -0.501  31.786  1.00  0.00     0.098 A 
HETATM   14  C13 UNK     1      18.698  -0.770  33.070  1.00  0.00     0.039 A 
HETATM   15  C15 UNK     1      19.345  -1.720  33.860  1.00  0.00     0.003 A 
HETATM   16  C16 UNK     1      20.459  -2.397  33.364  1.00  0.00     0.002 A 
HETATM   17  C14 UNK     1      20.925  -2.125  32.079  1.00  0.00     0.026 A 
HETATM   18  C12 UNK     1      20.278  -1.176  31.287  1.00  0.00     0.067 A 
HETATM   19 Cl1  UNK     1      20.876  -0.860  29.700  1.00  0.00    -0.081 Cl
ENDBRANCH  12  13
ENDBRANCH   9  12
BRANCH   8  20
HETATM   20  O3  UNK     1      18.203   7.891  33.160  1.00  0.00    -0.347 OA
BRANCH  20  21
HETATM   21  C11 UNK     1      18.700   7.999  34.493  1.00  0.00     0.202 C 
BRANCH  21  22
HETATM   22  C17 UNK     1      20.123   8.447  34.439  1.00  0.00    -0.011 C 
HETATM   23  C18 UNK     1      20.507   9.726  34.511  1.00  0.00     0.009 C 
ENDBRANCH  21  22
ENDBRANCH  20  21
ENDBRANCH   8  20
TORSDOF 5
ENDMDL
MODEL 10
REMARK VINA RESULT:      -7.3      3.142      8.581
REMARK  5 active torsions:
REMARK  status: ('A' for Active; 'I' for Inactive)
REMARK    1  A    between atoms: C10_15  and  O2_3 
REMARK    2  A    between atoms: C7_12  and  O2_3 
REMARK    3  A    between atoms: C11_16  and  O3_4 
REMARK    4  A    between atoms: C6_11  and  O3_4 
REMARK    5  A    between atoms: C11_16  and  C17_22 
ROOT
HETATM    1  O1  UNK     1      11.248   5.326  10.036  1.00  0.00    -0.319 OA
HETATM    2  O4  UNK     1      11.921   6.910   6.334  1.00  0.00    -0.284 OA
HETATM    3  C1  UNK     1      10.363   6.044   7.888  1.00  0.00     0.051 A 
HETATM    4  C2  UNK     1      10.200   5.508   9.167  1.00  0.00     0.092 A 
HETATM    5  C3  UNK     1      11.714   6.434   7.442  1.00  0.00     0.220 A 
HETATM    6  C4  UNK     1       9.261   6.207   7.046  1.00  0.00     0.021 A 
HETATM    7  C5  UNK     1       8.932   5.133   9.610  1.00  0.00     0.075 A 
HETATM    8  C6  UNK     1       7.829   5.294   8.771  1.00  0.00     0.071 A 
HETATM    9  C7  UNK     1      12.806   6.219   8.417  1.00  0.00     0.149 A 
HETATM   10  C8  UNK     1       7.994   5.830   7.492  1.00  0.00     0.038 A 
HETATM   11  C9  UNK     1      12.499   5.695   9.608  1.00  0.00     0.184 A 
ENDROOT
BRANCH   9  12
HETATM   12  O2  UNK     1      14.095   6.557   8.078  1.00  0.00    -0.303 OA
BRANCH  12  13
HETATM   13  C10 UNK     1      14.781   7.349   8.957  1.00  0.00     0.098 A 
HETATM   14  C13 UNK     1      14.489   8.711   8.994  1.00  0.00     0.039 A 
HETATM   15  C15 UNK     1      15.172   9.543   9.881  1.00  0.00     0.003 A 
HETATM   16  C16 UNK     1      16.146   9.011  10.727  1.00  0.00     0.002 A 
HETATM   17  C14 UNK     1      16.436   7.647  10.686  1.00  0.00     0.026 A 
HETATM   18  C12 UNK     1      15.753   6.815   9.800  1.00  0.00     0.067 A 
HETATM   19 Cl1  UNK     1      16.131   5.132   9.771  1.00  0.00    -0.081 Cl
ENDBRANCH  12  13
ENDBRANCH   9  12
BRANCH   8  20
HETATM   20  O3  UNK     1       6.590   4.927   9.198  1.00  0.00    -0.347 OA
BRANCH  20  21
HETATM   21  C11 UNK     1       6.497   4.351  10.501  1.00  0.00     0.202 C 
BRANCH  21  22
HETATM   22  C17 UNK     1       6.027   2.940  10.368  1.00  0.00    -0.011 C 
HETATM   23  C18 UNK     1       5.439   2.252  11.351  1.00  0.00     0.009 C 
ENDBRANCH  21  22
ENDBRANCH  20  21
ENDBRANCH   8  20
TORSDOF 5
ENDMDL
