MODEL 1
REMARK VINA RESULT:      -9.2      0.000      0.000
REMARK  3 active torsions:
REMARK  status: ('A' for Active; 'I' for Inactive)
REMARK    1  A    between atoms: C14_19  and  O2_2 
REMARK    2  A    between atoms: C5_10  and  N1_5 
REMARK       I    between atoms: C6_11  and  N1_5 
REMARK    3  A    between atoms: C2_7  and  C6_11 
ROOT
HETATM    1  O3  UNK     1      17.588   3.245  32.807  1.00  0.00    -0.267 OA
HETATM    2  N1  UNK     1      18.777   4.719  31.406  1.00  0.00    -0.323 N 
HETATM    3  C6  UNK     1      18.296   3.488  31.830  1.00  0.00     0.262 C 
HETATM    4  H3  UNK     1      19.337   4.754  30.559  1.00  0.00     0.169 HD
ENDROOT
BRANCH   3   5
HETATM    5  C2  UNK     1      18.725   2.393  30.951  1.00  0.00     0.108 A 
HETATM    6  C4  UNK     1      19.147   1.278  31.559  1.00  0.00     0.037 A 
HETATM    7  C1  UNK     1      19.593   0.139  30.772  1.00  0.00    -0.001 A 
HETATM    8  C3  UNK     1      19.573   0.230  29.384  1.00  0.00     0.089 A 
HETATM    9  C7  UNK     1      20.042  -1.045  31.364  1.00  0.00     0.014 A 
HETATM   10  O1  UNK     1      19.128   1.407  28.751  1.00  0.00    -0.274 OA
HETATM   11  C9  UNK     1      19.988  -0.825  28.573  1.00  0.00     0.038 A 
HETATM   12  C8  UNK     1      18.695   2.513  29.477  1.00  0.00     0.304 A 
HETATM   13  O4  UNK     1      18.310   3.533  28.917  1.00  0.00    -0.259 OA
HETATM   14  C12 UNK     1      20.434  -2.001  29.172  1.00  0.00     0.003 A 
HETATM   15  C11 UNK     1      20.460  -2.112  30.563  1.00  0.00     0.001 A 
ENDBRANCH   3   5
BRANCH   2  16
HETATM   16  C5  UNK     1      18.562   5.983  32.007  1.00  0.00     0.037 A 
HETATM   17  C10 UNK     1      17.475   6.743  31.611  1.00  0.00     0.066 A 
HETATM   18  C14 UNK     1      17.263   7.989  32.201  1.00  0.00     0.070 A 
HETATM   19  C16 UNK     1      18.142   8.456  33.179  1.00  0.00     0.037 A 
HETATM   20  C15 UNK     1      19.232   7.678  33.567  1.00  0.00     0.005 A 
HETATM   21  C13 UNK     1      19.444   6.431  32.975  1.00  0.00     0.029 A 
BRANCH  18  22
HETATM   22  O2  UNK     1      16.199   8.750  31.824  1.00  0.00    -0.356 OA
HETATM   23  C17 UNK     1      15.377   9.277  32.864  1.00  0.00     0.210 C 
ENDBRANCH  18  22
ENDBRANCH   2  16
TORSDOF 3
ENDMDL
MODEL 2
REMARK VINA RESULT:      -8.9      7.467     12.012
REMARK  3 active torsions:
REMARK  status: ('A' for Active; 'I' for Inactive)
REMARK    1  A    between atoms: C14_19  and  O2_2 
REMARK    2  A    between atoms: C5_10  and  N1_5 
REMARK       I    between atoms: C6_11  and  N1_5 
REMARK    3  A    between atoms: C2_7  and  C6_11 
ROOT
HETATM    1  O3  UNK     1      20.926  -4.217  37.623  1.00  0.00    -0.267 OA
HETATM    2  N1  UNK     1      19.409  -5.108  36.056  1.00  0.00    -0.323 N 
HETATM    3  C6  UNK     1      20.067  -4.101  36.749  1.00  0.00     0.262 C 
HETATM    4  H3  UNK     1      18.735  -4.842  35.342  1.00  0.00     0.169 HD
ENDROOT
BRANCH   3   5
HETATM    5  C2  UNK     1      19.632  -2.763  36.329  1.00  0.00     0.108 A 
HETATM    6  C4  UNK     1      18.924  -2.063  37.223  1.00  0.00     0.037 A 
HETATM    7  C1  UNK     1      18.449  -0.727  36.897  1.00  0.00    -0.001 A 
HETATM    8  C3  UNK     1      18.742  -0.195  35.646  1.00  0.00     0.089 A 
HETATM    9  C7  UNK     1      17.707   0.039  37.799  1.00  0.00     0.014 A 
HETATM   10  O1  UNK     1      19.488  -0.937  34.710  1.00  0.00    -0.274 OA
HETATM   11  C9  UNK     1      18.315   1.078  35.272  1.00  0.00     0.038 A 
HETATM   12  C8  UNK     1      19.956  -2.217  34.992  1.00  0.00     0.304 A 
HETATM   13  O4  UNK     1      20.604  -2.856  34.170  1.00  0.00    -0.259 OA
HETATM   14  C12 UNK     1      17.576   1.835  36.178  1.00  0.00     0.003 A 
HETATM   15  C11 UNK     1      17.273   1.318  37.439  1.00  0.00     0.001 A 
ENDBRANCH   3   5
BRANCH   2  16
HETATM   16  C5  UNK     1      19.576  -6.506  36.200  1.00  0.00     0.037 A 
HETATM   17  C10 UNK     1      20.429  -7.177  35.339  1.00  0.00     0.066 A 
HETATM   18  C14 UNK     1      20.594  -8.554  35.478  1.00  0.00     0.070 A 
HETATM   19  C16 UNK     1      19.903  -9.242  36.477  1.00  0.00     0.037 A 
HETATM   20  C15 UNK     1      19.049  -8.551  37.336  1.00  0.00     0.005 A 
HETATM   21  C13 UNK     1      18.884  -7.172  37.196  1.00  0.00     0.029 A 
BRANCH  18  22
HETATM   22  O2  UNK     1      21.428  -9.229  34.641  1.00  0.00    -0.356 OA
HETATM   23  C17 UNK     1      21.857 -10.525  35.056  1.00  0.00     0.210 C 
ENDBRANCH  18  22
ENDBRANCH   2  16
TORSDOF 3
ENDMDL
MODEL 3
REMARK VINA RESULT:      -8.8      8.160     10.240
REMARK  3 active torsions:
REMARK  status: ('A' for Active; 'I' for Inactive)
REMARK    1  A    between atoms: C14_19  and  O2_2 
REMARK    2  A    between atoms: C5_10  and  N1_5 
REMARK       I    between atoms: C6_11  and  N1_5 
REMARK    3  A    between atoms: C2_7  and  C6_11 
ROOT
HETATM    1  O3  UNK     1      21.243  -3.692  37.169  1.00  0.00    -0.267 OA
HETATM    2  N1  UNK     1      18.946  -3.639  36.654  1.00  0.00    -0.323 N 
HETATM    3  C6  UNK     1      20.170  -4.238  36.917  1.00  0.00     0.262 C 
HETATM    4  H3  UNK     1      18.141  -4.237  36.484  1.00  0.00     0.169 HD
ENDROOT
BRANCH   3   5
HETATM    5  C2  UNK     1      20.091  -5.703  36.874  1.00  0.00     0.108 A 
HETATM    6  C4  UNK     1      19.982  -6.325  38.054  1.00  0.00     0.037 A 
HETATM    7  C1  UNK     1      19.898  -7.776  38.113  1.00  0.00    -0.001 A 
HETATM    8  C3  UNK     1      19.932  -8.501  36.927  1.00  0.00     0.089 A 
HETATM    9  C7  UNK     1      19.783  -8.466  39.323  1.00  0.00     0.014 A 
HETATM   10  O1  UNK     1      20.047  -7.840  35.688  1.00  0.00    -0.274 OA
HETATM   11  C9  UNK     1      19.857  -9.892  36.915  1.00  0.00     0.038 A 
HETATM   12  C8  UNK     1      20.130  -6.454  35.599  1.00  0.00     0.304 A 
HETATM   13  O4  UNK     1      20.230  -5.888  34.516  1.00  0.00    -0.259 OA
HETATM   14  C12 UNK     1      19.743 -10.573  38.125  1.00  0.00     0.003 A 
HETATM   15  C11 UNK     1      19.705  -9.862  39.326  1.00  0.00     0.001 A 
ENDBRANCH   3   5
BRANCH   2  16
HETATM   16  C5  UNK     1      18.653  -2.254  36.614  1.00  0.00     0.037 A 
HETATM   17  C10 UNK     1      18.900  -1.545  35.450  1.00  0.00     0.066 A 
HETATM   18  C14 UNK     1      18.615  -0.180  35.410  1.00  0.00     0.070 A 
HETATM   19  C16 UNK     1      18.086   0.455  36.535  1.00  0.00     0.037 A 
HETATM   20  C15 UNK     1      17.843  -0.274  37.698  1.00  0.00     0.005 A 
HETATM   21  C13 UNK     1      18.130  -1.640  37.738  1.00  0.00     0.029 A 
BRANCH  18  22
HETATM   22  O2  UNK     1      18.850   0.532  34.274  1.00  0.00    -0.356 OA
HETATM   23  C17 UNK     1      18.145   1.763  34.122  1.00  0.00     0.210 C 
ENDBRANCH  18  22
ENDBRANCH   2  16
TORSDOF 3
ENDMDL
MODEL 4
REMARK VINA RESULT:      -8.8     13.437     16.106
REMARK  3 active torsions:
REMARK  status: ('A' for Active; 'I' for Inactive)
REMARK    1  A    between atoms: C14_19  and  O2_2 
REMARK    2  A    between atoms: C5_10  and  N1_5 
REMARK       I    between atoms: C6_11  and  N1_5 
REMARK    3  A    between atoms: C2_7  and  C6_11 
ROOT
HETATM    1  O3  UNK     1      17.085  -1.679  17.084  1.00  0.00    -0.267 OA
HETATM    2  N1  UNK     1      19.193  -0.631  16.986  1.00  0.00    -0.323 N 
HETATM    3  C6  UNK     1      18.173  -1.465  16.549  1.00  0.00     0.262 C 
HETATM    4  H3  UNK     1      20.028  -0.548  16.412  1.00  0.00     0.169 HD
ENDROOT
BRANCH   3   5
HETATM    5  C2  UNK     1      18.508  -2.137  15.287  1.00  0.00     0.108 A 
HETATM    6  C4  UNK     1      18.210  -3.439  15.213  1.00  0.00     0.037 A 
HETATM    7  C1  UNK     1      18.505  -4.190  14.002  1.00  0.00    -0.001 A 
HETATM    8  C3  UNK     1      19.099  -3.533  12.930  1.00  0.00     0.089 A 
HETATM    9  C7  UNK     1      18.212  -5.551  13.881  1.00  0.00     0.014 A 
HETATM   10  O1  UNK     1      19.410  -2.162  13.015  1.00  0.00    -0.274 OA
HETATM   11  C9  UNK     1      19.408  -4.195  11.744  1.00  0.00     0.038 A 
HETATM   12  C8  UNK     1      19.140  -1.417  14.159  1.00  0.00     0.304 A 
HETATM   13  O4  UNK     1      19.415  -0.224  14.224  1.00  0.00    -0.259 OA
HETATM   14  C12 UNK     1      19.112  -5.552  11.631  1.00  0.00     0.003 A 
HETATM   15  C11 UNK     1      18.515  -6.229  12.696  1.00  0.00     0.001 A 
ENDBRANCH   3   5
BRANCH   2  16
HETATM   16  C5  UNK     1      19.214   0.168  18.155  1.00  0.00     0.037 A 
HETATM   17  C10 UNK     1      19.313   1.544  18.031  1.00  0.00     0.066 A 
HETATM   18  C14 UNK     1      19.336   2.332  19.181  1.00  0.00     0.070 A 
HETATM   19  C16 UNK     1      19.258   1.732  20.439  1.00  0.00     0.037 A 
HETATM   20  C15 UNK     1      19.158   0.345  20.545  1.00  0.00     0.005 A 
HETATM   21  C13 UNK     1      19.136  -0.443  19.394  1.00  0.00     0.029 A 
BRANCH  18  22
HETATM   22  O2  UNK     1      19.432   3.685  19.078  1.00  0.00    -0.356 OA
HETATM   23  C17 UNK     1      20.609   4.207  18.462  1.00  0.00     0.210 C 
ENDBRANCH  18  22
ENDBRANCH   2  16
TORSDOF 3
ENDMDL
MODEL 5
REMARK VINA RESULT:      -8.7      1.974      7.839
REMARK  3 active torsions:
REMARK  status: ('A' for Active; 'I' for Inactive)
REMARK    1  A    between atoms: C14_19  and  O2_2 
REMARK    2  A    between atoms: C5_10  and  N1_5 
REMARK       I    between atoms: C6_11  and  N1_5 
REMARK    3  A    between atoms: C2_7  and  C6_11 
ROOT
HETATM    1  O3  UNK     1      17.097   2.583  30.620  1.00  0.00    -0.267 OA
HETATM    2  N1  UNK     1      19.429   2.312  30.817  1.00  0.00    -0.323 N 
HETATM    3  C6  UNK     1      18.219   2.985  30.926  1.00  0.00     0.262 C 
HETATM    4  H3  UNK     1      20.273   2.780  31.136  1.00  0.00     0.169 HD
ENDROOT
BRANCH   3   5
HETATM    5  C2  UNK     1      18.384   4.332  31.485  1.00  0.00     0.108 A 
HETATM    6  C4  UNK     1      17.698   4.597  32.603  1.00  0.00     0.037 A 
HETATM    7  C1  UNK     1      17.797   5.905  33.231  1.00  0.00    -0.001 A 
HETATM    8  C3  UNK     1      18.612   6.871  32.651  1.00  0.00     0.089 A 
HETATM    9  C7  UNK     1      17.099   6.225  34.399  1.00  0.00     0.014 A 
HETATM   10  O1  UNK     1      19.330   6.586  31.473  1.00  0.00    -0.274 OA
HETATM   11  C9  UNK     1      18.748   8.144  33.201  1.00  0.00     0.038 A 
HETATM   12  C8  UNK     1      19.257   5.344  30.849  1.00  0.00     0.304 A 
HETATM   13  O4  UNK     1      19.886   5.106  29.824  1.00  0.00    -0.259 OA
HETATM   14  C12 UNK     1      18.049   8.454  34.366  1.00  0.00     0.003 A 
HETATM   15  C11 UNK     1      17.227   7.497  34.964  1.00  0.00     0.001 A 
ENDBRANCH   3   5
BRANCH   2  16
HETATM   16  C5  UNK     1      19.646   1.002  30.324  1.00  0.00     0.037 A 
HETATM   17  C10 UNK     1      20.028   0.004  31.205  1.00  0.00     0.066 A 
HETATM   18  C14 UNK     1      20.244  -1.286  30.721  1.00  0.00     0.070 A 
HETATM   19  C16 UNK     1      20.074  -1.559  29.363  1.00  0.00     0.037 A 
HETATM   20  C15 UNK     1      19.688  -0.542  28.490  1.00  0.00     0.005 A 
HETATM   21  C13 UNK     1      19.473   0.749  28.975  1.00  0.00     0.029 A 
BRANCH  18  22
HETATM   22  O2  UNK     1      20.620  -2.279  31.573  1.00  0.00    -0.356 OA
HETATM   23  C17 UNK     1      20.211  -2.156  32.934  1.00  0.00     0.210 C 
ENDBRANCH  18  22
ENDBRANCH   2  16
TORSDOF 3
ENDMDL
MODEL 6
REMARK VINA RESULT:      -8.7      1.743      2.388
REMARK  3 active torsions:
REMARK  status: ('A' for Active; 'I' for Inactive)
REMARK    1  A    between atoms: C14_19  and  O2_2 
REMARK    2  A    between atoms: C5_10  and  N1_5 
REMARK       I    between atoms: C6_11  and  N1_5 
REMARK    3  A    between atoms: C2_7  and  C6_11 
ROOT
HETATM    1  O3  UNK     1      17.240   4.362  31.345  1.00  0.00    -0.267 OA
HETATM    2  N1  UNK     1      18.730   4.536  33.161  1.00  0.00    -0.323 N 
HETATM    3  C6  UNK     1      18.074   3.895  32.119  1.00  0.00     0.262 C 
HETATM    4  H3  UNK     1      19.414   4.011  33.699  1.00  0.00     0.169 HD
ENDROOT
BRANCH   3   5
HETATM    5  C2  UNK     1      18.484   2.491  31.988  1.00  0.00     0.108 A 
HETATM    6  C4  UNK     1      18.970   2.125  30.796  1.00  0.00     0.037 A 
HETATM    7  C1  UNK     1      19.401   0.755  30.569  1.00  0.00    -0.001 A 
HETATM    8  C3  UNK     1      19.301  -0.164  31.609  1.00  0.00     0.089 A 
HETATM    9  C7  UNK     1      19.914   0.329  29.341  1.00  0.00     0.014 A 
HETATM   10  O1  UNK     1      18.788   0.228  32.862  1.00  0.00    -0.274 OA
HETATM   11  C9  UNK     1      19.695  -1.491  31.457  1.00  0.00     0.038 A 
HETATM   12  C8  UNK     1      18.367   1.531  33.109  1.00  0.00     0.304 A 
HETATM   13  O4  UNK     1      17.922   1.863  34.202  1.00  0.00    -0.259 OA
HETATM   14  C12 UNK     1      20.206  -1.907  30.229  1.00  0.00     0.003 A 
HETATM   15  C11 UNK     1      20.316  -1.000  29.174  1.00  0.00     0.001 A 
ENDBRANCH   3   5
BRANCH   2  16
HETATM   16  C5  UNK     1      18.584   5.883  33.573  1.00  0.00     0.037 A 
HETATM   17  C10 UNK     1      17.327   6.351  33.919  1.00  0.00     0.066 A 
HETATM   18  C14 UNK     1      17.181   7.678  34.322  1.00  0.00     0.070 A 
HETATM   19  C16 UNK     1      18.295   8.517  34.375  1.00  0.00     0.037 A 
HETATM   20  C15 UNK     1      19.553   8.030  34.024  1.00  0.00     0.005 A 
HETATM   21  C13 UNK     1      19.698   6.702  33.619  1.00  0.00     0.029 A 
BRANCH  18  22
HETATM   22  O2  UNK     1      15.954   8.155  34.666  1.00  0.00    -0.356 OA
HETATM   23  C17 UNK     1      14.833   7.637  33.952  1.00  0.00     0.210 C 
ENDBRANCH  18  22
ENDBRANCH   2  16
TORSDOF 3
ENDMDL
MODEL 7
REMARK VINA RESULT:      -8.6      7.683     12.059
REMARK  3 active torsions:
REMARK  status: ('A' for Active; 'I' for Inactive)
REMARK    1  A    between atoms: C14_19  and  O2_2 
REMARK    2  A    between atoms: C5_10  and  N1_5 
REMARK       I    between atoms: C6_11  and  N1_5 
REMARK    3  A    between atoms: C2_7  and  C6_11 
ROOT
HETATM    1  O3  UNK     1      21.283  -4.264  37.202  1.00  0.00    -0.267 OA
HETATM    2  N1  UNK     1      19.556  -5.234  35.928  1.00  0.00    -0.323 N 
HETATM    3  C6  UNK     1      20.290  -4.193  36.480  1.00  0.00     0.262 C 
HETATM    4  H3  UNK     1      18.767  -5.005  35.329  1.00  0.00     0.169 HD
ENDROOT
BRANCH   3   5
HETATM    5  C2  UNK     1      19.754  -2.878  36.106  1.00  0.00     0.108 A 
HETATM    6  C4  UNK     1      19.042  -2.241  37.043  1.00  0.00     0.037 A 
HETATM    7  C1  UNK     1      18.469  -0.933  36.765  1.00  0.00    -0.001 A 
HETATM    8  C3  UNK     1      18.674  -0.359  35.515  1.00  0.00     0.089 A 
HETATM    9  C7  UNK     1      17.720  -0.232  37.714  1.00  0.00     0.014 A 
HETATM   10  O1  UNK     1      19.425  -1.036  34.533  1.00  0.00    -0.274 OA
HETATM   11  C9  UNK     1      18.152   0.890  35.186  1.00  0.00     0.038 A 
HETATM   12  C8  UNK     1      19.985  -2.288  34.768  1.00  0.00     0.304 A 
HETATM   13  O4  UNK     1      20.636  -2.869  33.907  1.00  0.00    -0.259 OA
HETATM   14  C12 UNK     1      17.406   1.581  36.137  1.00  0.00     0.003 A 
HETATM   15  C11 UNK     1      17.190   1.023  37.398  1.00  0.00     0.001 A 
ENDBRANCH   3   5
BRANCH   2  16
HETATM   16  C5  UNK     1      19.785  -6.623  36.074  1.00  0.00     0.037 A 
HETATM   17  C10 UNK     1      19.156  -7.307  37.102  1.00  0.00     0.066 A 
HETATM   18  C14 UNK     1      19.383  -8.675  37.248  1.00  0.00     0.070 A 
HETATM   19  C16 UNK     1      20.235  -9.340  36.365  1.00  0.00     0.037 A 
HETATM   20  C15 UNK     1      20.859  -8.636  35.336  1.00  0.00     0.005 A 
HETATM   21  C13 UNK     1      20.633  -7.267  35.190  1.00  0.00     0.029 A 
BRANCH  18  22
HETATM   22  O2  UNK     1      18.773  -9.363  38.252  1.00  0.00    -0.356 OA
HETATM   23  C17 UNK     1      19.374 -10.592  38.656  1.00  0.00     0.210 C 
ENDBRANCH  18  22
ENDBRANCH   2  16
TORSDOF 3
ENDMDL
MODEL 8
REMARK VINA RESULT:      -8.6      1.446      2.677
REMARK  3 active torsions:
REMARK  status: ('A' for Active; 'I' for Inactive)
REMARK    1  A    between atoms: C14_19  and  O2_2 
REMARK    2  A    between atoms: C5_10  and  N1_5 
REMARK       I    between atoms: C6_11  and  N1_5 
REMARK    3  A    between atoms: C2_7  and  C6_11 
ROOT
HETATM    1  O3  UNK     1      18.709   4.779  30.162  1.00  0.00    -0.267 OA
HETATM    2  N1  UNK     1      17.672   4.707  32.276  1.00  0.00    -0.323 N 
HETATM    3  C6  UNK     1      18.352   4.190  31.182  1.00  0.00     0.262 C 
HETATM    4  H3  UNK     1      17.469   4.088  33.056  1.00  0.00     0.169 HD
ENDROOT
BRANCH   3   5
HETATM    5  C2  UNK     1      18.648   2.761  31.339  1.00  0.00     0.108 A 
HETATM    6  C4  UNK     1      19.167   2.143  30.272  1.00  0.00     0.037 A 
HETATM    7  C1  UNK     1      19.493   0.726  30.331  1.00  0.00    -0.001 A 
HETATM    8  C3  UNK     1      19.257   0.030  31.512  1.00  0.00     0.089 A 
HETATM    9  C7  UNK     1      20.036   0.041  29.241  1.00  0.00     0.014 A 
HETATM   10  O1  UNK     1      18.710   0.686  32.632  1.00  0.00    -0.274 OA
HETATM   11  C9  UNK     1      19.545  -1.328  31.633  1.00  0.00     0.038 A 
HETATM   12  C8  UNK     1      18.388   2.040  32.605  1.00  0.00     0.304 A 
HETATM   13  O4  UNK     1      17.912   2.603  33.585  1.00  0.00    -0.259 OA
HETATM   14  C12 UNK     1      20.087  -2.003  30.542  1.00  0.00     0.003 A 
HETATM   15  C11 UNK     1      20.333  -1.321  29.349  1.00  0.00     0.001 A 
ENDBRANCH   3   5
BRANCH   2  16
HETATM   16  C5  UNK     1      17.230   6.039  32.466  1.00  0.00     0.037 A 
HETATM   17  C10 UNK     1      18.095   6.964  33.026  1.00  0.00     0.066 A 
HETATM   18  C14 UNK     1      17.660   8.276  33.216  1.00  0.00     0.070 A 
HETATM   19  C16 UNK     1      16.367   8.643  32.841  1.00  0.00     0.037 A 
HETATM   20  C15 UNK     1      15.509   7.699  32.279  1.00  0.00     0.005 A 
HETATM   21  C13 UNK     1      15.944   6.386  32.090  1.00  0.00     0.029 A 
BRANCH  18  22
HETATM   22  O2  UNK     1      18.497   9.199  33.764  1.00  0.00    -0.356 OA
HETATM   23  C17 UNK     1      19.675   8.708  34.403  1.00  0.00     0.210 C 
ENDBRANCH  18  22
ENDBRANCH   2  16
TORSDOF 3
ENDMDL
MODEL 9
REMARK VINA RESULT:      -8.6      1.690      8.224
REMARK  3 active torsions:
REMARK  status: ('A' for Active; 'I' for Inactive)
REMARK    1  A    between atoms: C14_19  and  O2_2 
REMARK    2  A    between atoms: C5_10  and  N1_5 
REMARK       I    between atoms: C6_11  and  N1_5 
REMARK    3  A    between atoms: C2_7  and  C6_11 
ROOT
HETATM    1  O3  UNK     1      19.584   5.019  30.424  1.00  0.00    -0.267 OA
HETATM    2  N1  UNK     1      18.138   3.302  31.138  1.00  0.00    -0.323 N 
HETATM    3  C6  UNK     1      18.665   4.586  31.119  1.00  0.00     0.262 C 
HETATM    4  H3  UNK     1      17.358   3.109  31.760  1.00  0.00     0.169 HD
ENDROOT
BRANCH   3   5
HETATM    5  C2  UNK     1      17.989   5.477  32.070  1.00  0.00     0.108 A 
HETATM    6  C4  UNK     1      17.304   6.497  31.540  1.00  0.00     0.037 A 
HETATM    7  C1  UNK     1      16.601   7.434  32.402  1.00  0.00    -0.001 A 
HETATM    8  C3  UNK     1      16.652   7.251  33.780  1.00  0.00     0.089 A 
HETATM    9  C7  UNK     1      15.874   8.514  31.892  1.00  0.00     0.014 A 
HETATM   10  O1  UNK     1      17.375   6.174  34.331  1.00  0.00    -0.274 OA
HETATM   11  C9  UNK     1      16.002   8.113  34.660  1.00  0.00     0.038 A 
HETATM   12  C8  UNK     1      18.058   5.262  33.532  1.00  0.00     0.304 A 
HETATM   13  O4  UNK     1      18.684   4.328  34.021  1.00  0.00    -0.259 OA
HETATM   14  C12 UNK     1      15.280   9.186  34.143  1.00  0.00     0.003 A 
HETATM   15  C11 UNK     1      15.215   9.387  32.763  1.00  0.00     0.001 A 
ENDBRANCH   3   5
BRANCH   2  16
HETATM   16  C5  UNK     1      18.542   2.191  30.357  1.00  0.00     0.037 A 
HETATM   17  C10 UNK     1      19.435   1.279  30.893  1.00  0.00     0.066 A 
HETATM   18  C14 UNK     1      19.836   0.186  30.125  1.00  0.00     0.070 A 
HETATM   19  C16 UNK     1      19.336   0.022  28.832  1.00  0.00     0.037 A 
HETATM   20  C15 UNK     1      18.437   0.950  28.308  1.00  0.00     0.005 A 
HETATM   21  C13 UNK     1      18.038   2.044  29.077  1.00  0.00     0.029 A 
BRANCH  18  22
HETATM   22  O2  UNK     1      20.712  -0.721  30.635  1.00  0.00    -0.356 OA
HETATM   23  C17 UNK     1      20.369  -2.100  30.506  1.00  0.00     0.210 C 
ENDBRANCH  18  22
ENDBRANCH   2  16
TORSDOF 3
ENDMDL
MODEL 10
REMARK VINA RESULT:      -8.5      8.174     12.145
REMARK  3 active torsions:
REMARK  status: ('A' for Active; 'I' for Inactive)
REMARK    1  A    between atoms: C14_19  and  O2_2 
REMARK    2  A    between atoms: C5_10  and  N1_5 
REMARK       I    between atoms: C6_11  and  N1_5 
REMARK    3  A    between atoms: C2_7  and  C6_11 
ROOT
HETATM    1  O3  UNK     1      20.129  -5.192  35.381  1.00  0.00    -0.267 OA
HETATM    2  N1  UNK     1      20.121  -4.715  37.688  1.00  0.00    -0.323 N 
HETATM    3  C6  UNK     1      19.991  -4.429  36.336  1.00  0.00     0.262 C 
HETATM    4  H3  UNK     1      19.951  -3.971  38.359  1.00  0.00     0.169 HD
ENDROOT
BRANCH   3   5
HETATM    5  C2  UNK     1      19.640  -3.022  36.100  1.00  0.00     0.108 A 
HETATM    6  C4  UNK     1      18.906  -2.428  37.048  1.00  0.00     0.037 A 
HETATM    7  C1  UNK     1      18.509  -1.036  36.903  1.00  0.00    -0.001 A 
HETATM    8  C3  UNK     1      18.903  -0.339  35.766  1.00  0.00     0.089 A 
HETATM    9  C7  UNK     1      17.743  -0.377  37.868  1.00  0.00     0.014 A 
HETATM   10  O1  UNK     1      19.676  -0.970  34.771  1.00  0.00    -0.274 OA
HETATM   11  C9  UNK     1      18.555   0.995  35.566  1.00  0.00     0.038 A 
HETATM   12  C8  UNK     1      20.071  -2.300  34.882  1.00  0.00     0.304 A 
HETATM   13  O4  UNK     1      20.743  -2.842  34.011  1.00  0.00    -0.259 OA
HETATM   14  C12 UNK     1      17.791   1.646  36.533  1.00  0.00     0.003 A 
HETATM   15  C11 UNK     1      17.387   0.963  37.681  1.00  0.00     0.001 A 
ENDBRANCH   3   5
BRANCH   2  16
HETATM   16  C5  UNK     1      20.448  -5.961  38.278  1.00  0.00     0.037 A 
HETATM   17  C10 UNK     1      21.751  -6.195  38.684  1.00  0.00     0.066 A 
HETATM   18  C14 UNK     1      22.074  -7.422  39.263  1.00  0.00     0.070 A 
HETATM   19  C16 UNK     1      21.089  -8.396  39.428  1.00  0.00     0.037 A 
HETATM   20  C15 UNK     1      19.782  -8.143  39.014  1.00  0.00     0.005 A 
HETATM   21  C13 UNK     1      19.459  -6.916  38.434  1.00  0.00     0.029 A 
BRANCH  18  22
HETATM   22  O2  UNK     1      23.350  -7.669  39.668  1.00  0.00    -0.356 OA
HETATM   23  C17 UNK     1      24.289  -8.049  38.663  1.00  0.00     0.210 C 
ENDBRANCH  18  22
ENDBRANCH   2  16
TORSDOF 3
ENDMDL
