MODEL 1
REMARK VINA RESULT:     -10.4      0.000      0.000
REMARK  5 active torsions:
REMARK  status: ('A' for Active; 'I' for Inactive)
REMARK    1  A    between atoms: C21_27  and  O3_3 
REMARK       I    between atoms: C13_19  and  N2_6 
REMARK    2  A    between atoms: C7_13  and  N2_6 
REMARK    3  A    between atoms: C1_7  and  C4_10 
REMARK    4  A    between atoms: C4_10  and  C7_13 
REMARK    5  A    between atoms: C13_19  and  C14_20 
ROOT
HETATM    1  O2  UNK     1      17.473   3.789  31.984  1.00  0.00    -0.267 OA
HETATM    2  N2  UNK     1      18.924   4.814  30.473  1.00  0.00    -0.356 N 
HETATM    3  C13 UNK     1      18.295   3.736  31.071  1.00  0.00     0.257 C 
HETATM    4  H12 UNK     1      19.611   4.662  29.743  1.00  0.00     0.162 HD
ENDROOT
BRANCH   2   5
HETATM    5  C7  UNK     1      18.681   6.184  30.865  1.00  0.00     0.127 C 
BRANCH   5   6
HETATM    6  C4  UNK     1      19.042   6.390  32.335  1.00  0.00     0.061 C 
BRANCH   6   7
HETATM    7  C1  UNK     1      18.145   7.369  33.036  1.00  0.00    -0.022 A 
HETATM    8  C2  UNK     1      16.746   7.450  32.883  1.00  0.00    -0.001 A 
HETATM    9  C3  UNK     1      16.322   8.491  33.712  1.00  0.00     0.049 A 
HETATM   10  C8  UNK     1      15.785   6.750  32.127  1.00  0.00     0.014 A 
HETATM   11  N1  UNK     1      17.442   9.001  34.328  1.00  0.00    -0.358 N 
HETATM   12  C6  UNK     1      14.978   8.869  33.822  1.00  0.00    -0.034 A 
HETATM   13  C5  UNK     1      18.557   8.320  33.920  1.00  0.00     0.013 A 
HETATM   14  H3  UNK     1      17.444   9.767  34.987  1.00  0.00     0.166 HD
HETATM   15  C9  UNK     1      19.894   8.672  34.435  1.00  0.00     0.068 C 
HETATM   16  C10 UNK     1      14.043   8.160  33.063  1.00  0.00     0.009 A 
HETATM   17  C12 UNK     1      14.521   9.981  34.706  1.00  0.00     0.050 C 
HETATM   18  C11 UNK     1      14.438   7.117  32.228  1.00  0.00     0.002 A 
ENDBRANCH   6   7
ENDBRANCH   5   6
ENDBRANCH   2   5
BRANCH   3  19
HETATM   19  C14 UNK     1      18.704   2.448  30.499  1.00  0.00     0.108 A 
HETATM   20  C16 UNK     1      19.197   1.549  31.359  1.00  0.00     0.037 A 
HETATM   21  C15 UNK     1      19.629   0.243  30.887  1.00  0.00     0.002 A 
HETATM   22  C17 UNK     1      19.521  -0.053  29.532  1.00  0.00     0.089 A 
HETATM   23  C19 UNK     1      20.150  -0.726  31.748  1.00  0.00     0.051 A 
HETATM   24  O1  UNK     1      19.001   0.898  28.632  1.00  0.00    -0.274 OA
HETATM   25  C20 UNK     1      19.917  -1.285  29.016  1.00  0.00     0.041 A 
HETATM   26  C18 UNK     1      18.579   2.155  29.054  1.00  0.00     0.304 A 
HETATM   27  O4  UNK     1      18.128   2.976  28.263  1.00  0.00    -0.259 OA
HETATM   28  C22 UNK     1      20.435  -2.246  29.882  1.00  0.00     0.039 A 
HETATM   29  C21 UNK     1      20.552  -1.967  31.245  1.00  0.00     0.069 A 
BRANCH  29  30
HETATM   30  O3  UNK     1      21.059  -2.909  32.088  1.00  0.00    -0.356 OA
HETATM   31  C23 UNK     1      20.719  -2.795  33.469  1.00  0.00     0.210 C 
ENDBRANCH  29  30
ENDBRANCH   3  19
TORSDOF 5
ENDMDL
MODEL 2
REMARK VINA RESULT:     -10.4      5.603     12.072
REMARK  5 active torsions:
REMARK  status: ('A' for Active; 'I' for Inactive)
REMARK    1  A    between atoms: C21_27  and  O3_3 
REMARK       I    between atoms: C13_19  and  N2_6 
REMARK    2  A    between atoms: C7_13  and  N2_6 
REMARK    3  A    between atoms: C1_7  and  C4_10 
REMARK    4  A    between atoms: C4_10  and  C7_13 
REMARK    5  A    between atoms: C13_19  and  C14_20 
ROOT
HETATM    1  O2  UNK     1      21.219  -2.042  35.358  1.00  0.00    -0.267 OA
HETATM    2  N2  UNK     1      19.896  -3.914  34.931  1.00  0.00    -0.356 N 
HETATM    3  C13 UNK     1      20.588  -2.766  34.590  1.00  0.00     0.257 C 
HETATM    4  H12 UNK     1      19.381  -4.428  34.224  1.00  0.00     0.162 HD
ENDROOT
BRANCH   2   5
HETATM    5  C7  UNK     1      19.828  -4.421  36.283  1.00  0.00     0.127 C 
BRANCH   5   6
HETATM    6  C4  UNK     1      18.475  -5.082  36.538  1.00  0.00     0.061 C 
BRANCH   6   7
HETATM    7  C1  UNK     1      18.570  -6.562  36.771  1.00  0.00    -0.022 A 
HETATM    8  C2  UNK     1      19.394  -7.187  37.728  1.00  0.00    -0.001 A 
HETATM    9  C3  UNK     1      19.171  -8.560  37.600  1.00  0.00     0.049 A 
HETATM   10  C8  UNK     1      20.312  -6.737  38.698  1.00  0.00     0.014 A 
HETATM   11  N1  UNK     1      18.244  -8.728  36.596  1.00  0.00    -0.358 N 
HETATM   12  C6  UNK     1      19.822  -9.509  38.397  1.00  0.00    -0.034 A 
HETATM   13  C5  UNK     1      17.874  -7.513  36.087  1.00  0.00     0.013 A 
HETATM   14  H3  UNK     1      17.887  -9.618  36.280  1.00  0.00     0.166 HD
HETATM   15  C9  UNK     1      16.887  -7.415  34.995  1.00  0.00     0.068 C 
HETATM   16  C10 UNK     1      20.729  -9.039  39.351  1.00  0.00     0.009 A 
HETATM   17  C12 UNK     1      19.587 -10.976  38.264  1.00  0.00     0.050 C 
HETATM   18  C11 UNK     1      20.972  -7.674  39.502  1.00  0.00     0.002 A 
ENDBRANCH   6   7
ENDBRANCH   5   6
ENDBRANCH   2   5
BRANCH   3  19
HETATM   19  C14 UNK     1      20.512  -2.458  33.157  1.00  0.00     0.108 A 
HETATM   20  C16 UNK     1      19.997  -1.266  32.835  1.00  0.00     0.037 A 
HETATM   21  C15 UNK     1      19.880  -0.870  31.440  1.00  0.00     0.002 A 
HETATM   22  C17 UNK     1      20.311  -1.750  30.452  1.00  0.00     0.089 A 
HETATM   23  C19 UNK     1      19.349   0.364  31.058  1.00  0.00     0.051 A 
HETATM   24  O1  UNK     1      20.852  -3.003  30.798  1.00  0.00    -0.274 OA
HETATM   25  C20 UNK     1      20.227  -1.431  29.098  1.00  0.00     0.041 A 
HETATM   26  C18 UNK     1      20.977  -3.409  32.123  1.00  0.00     0.304 A 
HETATM   27  O4  UNK     1      21.449  -4.503  32.415  1.00  0.00    -0.259 OA
HETATM   28  C22 UNK     1      19.696  -0.198  28.726  1.00  0.00     0.039 A 
HETATM   29  C21 UNK     1      19.257   0.698  29.703  1.00  0.00     0.069 A 
BRANCH  29  30
HETATM   30  O3  UNK     1      18.739   1.902  29.335  1.00  0.00    -0.356 OA
HETATM   31  C23 UNK     1      18.467   2.838  30.376  1.00  0.00     0.210 C 
ENDBRANCH  29  30
ENDBRANCH   3  19
TORSDOF 5
ENDMDL
MODEL 3
REMARK VINA RESULT:     -10.0      1.218      2.559
REMARK  5 active torsions:
REMARK  status: ('A' for Active; 'I' for Inactive)
REMARK    1  A    between atoms: C21_27  and  O3_3 
REMARK       I    between atoms: C13_19  and  N2_6 
REMARK    2  A    between atoms: C7_13  and  N2_6 
REMARK    3  A    between atoms: C1_7  and  C4_10 
REMARK    4  A    between atoms: C4_10  and  C7_13 
REMARK    5  A    between atoms: C13_19  and  C14_20 
ROOT
HETATM    1  O2  UNK     1      17.022   3.199  30.945  1.00  0.00    -0.267 OA
HETATM    2  N2  UNK     1      19.150   4.097  30.632  1.00  0.00    -0.356 N 
HETATM    3  C13 UNK     1      18.213   3.080  30.666  1.00  0.00     0.257 C 
HETATM    4  H12 UNK     1      20.120   3.890  30.417  1.00  0.00     0.162 HD
ENDROOT
BRANCH   2   5
HETATM    5  C7  UNK     1      18.830   5.474  30.932  1.00  0.00     0.127 C 
BRANCH   5   6
HETATM    6  C4  UNK     1      18.480   5.630  32.411  1.00  0.00     0.061 C 
BRANCH   6   7
HETATM    7  C1  UNK     1      17.983   7.003  32.764  1.00  0.00    -0.022 A 
HETATM    8  C2  UNK     1      18.744   8.012  33.387  1.00  0.00    -0.001 A 
HETATM    9  C3  UNK     1      17.895   9.112  33.526  1.00  0.00     0.049 A 
HETATM   10  C8  UNK     1      20.069   8.115  33.852  1.00  0.00     0.014 A 
HETATM   11  N1  UNK     1      16.675   8.752  33.000  1.00  0.00    -0.358 N 
HETATM   12  C6  UNK     1      18.307  10.315  34.111  1.00  0.00    -0.034 A 
HETATM   13  C5  UNK     1      16.723   7.466  32.533  1.00  0.00     0.013 A 
HETATM   14  H3  UNK     1      15.860   9.349  32.962  1.00  0.00     0.166 HD
HETATM   15  C9  UNK     1      15.540   6.836  31.917  1.00  0.00     0.068 C 
HETATM   16  C10 UNK     1      19.626  10.395  34.565  1.00  0.00     0.009 A 
HETATM   17  C12 UNK     1      17.403  11.493  34.262  1.00  0.00     0.050 C 
HETATM   18  C11 UNK     1      20.496   9.313  34.439  1.00  0.00     0.002 A 
ENDBRANCH   6   7
ENDBRANCH   5   6
ENDBRANCH   2   5
BRANCH   3  19
HETATM   19  C14 UNK     1      18.779   1.771  30.321  1.00  0.00     0.108 A 
HETATM   20  C16 UNK     1      19.206   1.023  31.345  1.00  0.00     0.037 A 
HETATM   21  C15 UNK     1      19.783  -0.291  31.104  1.00  0.00     0.002 A 
HETATM   22  C17 UNK     1      19.881  -0.752  29.795  1.00  0.00     0.089 A 
HETATM   23  C19 UNK     1      20.241  -1.105  32.142  1.00  0.00     0.051 A 
HETATM   24  O1  UNK     1      19.430   0.040  28.722  1.00  0.00    -0.274 OA
HETATM   25  C20 UNK     1      20.424  -2.001  29.497  1.00  0.00     0.041 A 
HETATM   26  C18 UNK     1      18.874   1.300  28.921  1.00  0.00     0.304 A 
HETATM   27  O4  UNK     1      18.484   1.983  27.980  1.00  0.00    -0.259 OA
HETATM   28  C22 UNK     1      20.878  -2.806  30.538  1.00  0.00     0.039 A 
HETATM   29  C21 UNK     1      20.789  -2.360  31.858  1.00  0.00     0.069 A 
BRANCH  29  30
HETATM   30  O3  UNK     1      21.234  -3.151  32.873  1.00  0.00    -0.356 OA
HETATM   31  C23 UNK     1      20.515  -3.095  34.103  1.00  0.00     0.210 C 
ENDBRANCH  29  30
ENDBRANCH   3  19
TORSDOF 5
ENDMDL
MODEL 4
REMARK VINA RESULT:     -10.0      2.881      9.848
REMARK  5 active torsions:
REMARK  status: ('A' for Active; 'I' for Inactive)
REMARK    1  A    between atoms: C21_27  and  O3_3 
REMARK       I    between atoms: C13_19  and  N2_6 
REMARK    2  A    between atoms: C7_13  and  N2_6 
REMARK    3  A    between atoms: C1_7  and  C4_10 
REMARK    4  A    between atoms: C4_10  and  C7_13 
REMARK    5  A    between atoms: C13_19  and  C14_20 
ROOT
HETATM    1  O2  UNK     1      19.201   5.368  33.552  1.00  0.00    -0.267 OA
HETATM    2  N2  UNK     1      18.372   5.444  31.374  1.00  0.00    -0.356 N 
HETATM    3  C13 UNK     1      18.517   5.892  32.675  1.00  0.00     0.257 C 
HETATM    4  H12 UNK     1      17.759   5.935  30.732  1.00  0.00     0.162 HD
ENDROOT
BRANCH   2   5
HETATM    5  C7  UNK     1      19.030   4.260  30.871  1.00  0.00     0.127 C 
BRANCH   5   6
HETATM    6  C4  UNK     1      18.045   3.096  30.791  1.00  0.00     0.061 C 
BRANCH   6   7
HETATM    7  C1  UNK     1      18.610   1.801  31.301  1.00  0.00    -0.022 A 
HETATM    8  C2  UNK     1      19.231   0.814  30.511  1.00  0.00    -0.001 A 
HETATM    9  C3  UNK     1      19.601  -0.211  31.385  1.00  0.00     0.049 A 
HETATM   10  C8  UNK     1      19.524   0.674  29.140  1.00  0.00     0.014 A 
HETATM   11  N1  UNK     1      19.205   0.170  32.647  1.00  0.00    -0.358 N 
HETATM   12  C6  UNK     1      20.251  -1.373  30.954  1.00  0.00    -0.034 A 
HETATM   13  C5  UNK     1      18.600   1.397  32.602  1.00  0.00     0.013 A 
HETATM   14  H3  UNK     1      19.340  -0.376  33.487  1.00  0.00     0.166 HD
HETATM   15  C9  UNK     1      18.082   2.035  33.827  1.00  0.00     0.068 C 
HETATM   16  C10 UNK     1      20.531  -1.490  29.590  1.00  0.00     0.009 A 
HETATM   17  C12 UNK     1      20.648  -2.471  31.884  1.00  0.00     0.050 C 
HETATM   18  C11 UNK     1      20.174  -0.483  28.694  1.00  0.00     0.002 A 
ENDBRANCH   6   7
ENDBRANCH   5   6
ENDBRANCH   2   5
BRANCH   3  19
HETATM   19  C14 UNK     1      17.752   7.115  32.947  1.00  0.00     0.108 A 
HETATM   20  C16 UNK     1      18.457   8.173  33.363  1.00  0.00     0.037 A 
HETATM   21  C15 UNK     1      17.787   9.431  33.657  1.00  0.00     0.002 A 
HETATM   22  C17 UNK     1      16.408   9.512  33.499  1.00  0.00     0.089 A 
HETATM   23  C19 UNK     1      18.483  10.561  34.094  1.00  0.00     0.051 A 
HETATM   24  O1  UNK     1      15.671   8.394  33.060  1.00  0.00    -0.274 OA
HETATM   25  C20 UNK     1      15.707  10.687  33.764  1.00  0.00     0.041 A 
HETATM   26  C18 UNK     1      16.284   7.178  32.771  1.00  0.00     0.304 A 
HETATM   27  O4  UNK     1      15.635   6.210  32.389  1.00  0.00    -0.259 OA
HETATM   28  C22 UNK     1      16.408  11.809  34.199  1.00  0.00     0.039 A 
HETATM   29  C21 UNK     1      17.793  11.746  34.365  1.00  0.00     0.069 A 
BRANCH  29  30
HETATM   30  O3  UNK     1      18.475  12.846  34.790  1.00  0.00    -0.356 OA
HETATM   31  C23 UNK     1      18.354  14.029  34.002  1.00  0.00     0.210 C 
ENDBRANCH  29  30
ENDBRANCH   3  19
TORSDOF 5
ENDMDL
MODEL 5
REMARK VINA RESULT:      -9.8      2.691      3.729
REMARK  5 active torsions:
REMARK  status: ('A' for Active; 'I' for Inactive)
REMARK    1  A    between atoms: C21_27  and  O3_3 
REMARK       I    between atoms: C13_19  and  N2_6 
REMARK    2  A    between atoms: C7_13  and  N2_6 
REMARK    3  A    between atoms: C1_7  and  C4_10 
REMARK    4  A    between atoms: C4_10  and  C7_13 
REMARK    5  A    between atoms: C13_19  and  C14_20 
ROOT
HETATM    1  O2  UNK     1      17.573   2.186  29.526  1.00  0.00    -0.267 OA
HETATM    2  N2  UNK     1      19.144   3.564  30.559  1.00  0.00    -0.356 N 
HETATM    3  C13 UNK     1      18.380   2.419  30.424  1.00  0.00     0.257 C 
HETATM    4  H12 UNK     1      19.764   3.673  31.356  1.00  0.00     0.162 HD
ENDROOT
BRANCH   2   5
HETATM    5  C7  UNK     1      19.083   4.667  29.627  1.00  0.00     0.127 C 
BRANCH   5   6
HETATM    6  C4  UNK     1      19.913   5.843  30.136  1.00  0.00     0.061 C 
BRANCH   6   7
HETATM    7  C1  UNK     1      19.507   6.311  31.504  1.00  0.00    -0.022 A 
HETATM    8  C2  UNK     1      18.217   6.746  31.868  1.00  0.00    -0.001 A 
HETATM    9  C3  UNK     1      18.286   7.087  33.221  1.00  0.00     0.049 A 
HETATM   10  C8  UNK     1      16.987   6.889  31.195  1.00  0.00     0.014 A 
HETATM   11  N1  UNK     1      19.580   6.858  33.630  1.00  0.00    -0.358 N 
HETATM   12  C6  UNK     1      17.183   7.566  33.937  1.00  0.00    -0.034 A 
HETATM   13  C5  UNK     1      20.329   6.385  32.587  1.00  0.00     0.013 A 
HETATM   14  H3  UNK     1      19.929   7.016  34.566  1.00  0.00     0.166 HD
HETATM   15  C9  UNK     1      21.757   6.058  32.763  1.00  0.00     0.068 C 
HETATM   16  C10 UNK     1      15.974   7.699  33.248  1.00  0.00     0.009 A 
HETATM   17  C12 UNK     1      17.253   7.932  35.382  1.00  0.00     0.050 C 
HETATM   18  C11 UNK     1      15.875   7.366  31.898  1.00  0.00     0.002 A 
ENDBRANCH   6   7
ENDBRANCH   5   6
ENDBRANCH   2   5
BRANCH   3  19
HETATM   19  C14 UNK     1      18.620   1.443  31.493  1.00  0.00     0.108 A 
HETATM   20  C16 UNK     1      18.158   1.769  32.706  1.00  0.00     0.037 A 
HETATM   21  C15 UNK     1      18.348   0.865  33.830  1.00  0.00     0.002 A 
HETATM   22  C17 UNK     1      19.015  -0.338  33.622  1.00  0.00     0.089 A 
HETATM   23  C19 UNK     1      17.883   1.165  35.113  1.00  0.00     0.051 A 
HETATM   24  O1  UNK     1      19.498  -0.675  32.342  1.00  0.00    -0.274 OA
HETATM   25  C20 UNK     1      19.229  -1.246  34.656  1.00  0.00     0.041 A 
HETATM   26  C18 UNK     1      19.332   0.169  31.248  1.00  0.00     0.304 A 
HETATM   27  O4  UNK     1      19.757  -0.133  30.138  1.00  0.00    -0.259 OA
HETATM   28  C22 UNK     1      18.762  -0.941  35.932  1.00  0.00     0.039 A 
HETATM   29  C21 UNK     1      18.091   0.263  36.161  1.00  0.00     0.069 A 
BRANCH  29  30
HETATM   30  O3  UNK     1      17.636   0.558  37.410  1.00  0.00    -0.356 OA
HETATM   31  C23 UNK     1      16.727   1.651  37.529  1.00  0.00     0.210 C 
ENDBRANCH  29  30
ENDBRANCH   3  19
TORSDOF 5
ENDMDL
MODEL 6
REMARK VINA RESULT:      -9.7      2.671      9.759
REMARK  5 active torsions:
REMARK  status: ('A' for Active; 'I' for Inactive)
REMARK    1  A    between atoms: C21_27  and  O3_3 
REMARK       I    between atoms: C13_19  and  N2_6 
REMARK    2  A    between atoms: C7_13  and  N2_6 
REMARK    3  A    between atoms: C1_7  and  C4_10 
REMARK    4  A    between atoms: C4_10  and  C7_13 
REMARK    5  A    between atoms: C13_19  and  C14_20 
ROOT
HETATM    1  O2  UNK     1      19.171   5.076  33.655  1.00  0.00    -0.267 OA
HETATM    2  N2  UNK     1      18.591   5.528  31.443  1.00  0.00    -0.356 N 
HETATM    3  C13 UNK     1      18.697   5.812  32.792  1.00  0.00     0.257 C 
HETATM    4  H12 UNK     1      18.156   6.195  30.814  1.00  0.00     0.162 HD
ENDROOT
BRANCH   2   5
HETATM    5  C7  UNK     1      19.041   4.283  30.862  1.00  0.00     0.127 C 
BRANCH   5   6
HETATM    6  C4  UNK     1      17.980   3.199  31.037  1.00  0.00     0.061 C 
BRANCH   6   7
HETATM    7  C1  UNK     1      18.545   1.875  31.463  1.00  0.00    -0.022 A 
HETATM    8  C2  UNK     1      19.148   0.930  30.608  1.00  0.00    -0.001 A 
HETATM    9  C3  UNK     1      19.526  -0.144  31.417  1.00  0.00     0.049 A 
HETATM   10  C8  UNK     1      19.417   0.867  29.227  1.00  0.00     0.014 A 
HETATM   11  N1  UNK     1      19.152   0.166  32.705  1.00  0.00    -0.358 N 
HETATM   12  C6  UNK     1      20.162  -1.283  30.910  1.00  0.00    -0.034 A 
HETATM   13  C5  UNK     1      18.554   1.397  32.739  1.00  0.00     0.013 A 
HETATM   14  H3  UNK     1      19.297  -0.426  33.510  1.00  0.00     0.166 HD
HETATM   15  C9  UNK     1      18.059   1.967  34.007  1.00  0.00     0.068 C 
HETATM   16  C10 UNK     1      20.419  -1.324  29.537  1.00  0.00     0.009 A 
HETATM   17  C12 UNK     1      20.567  -2.434  31.770  1.00  0.00     0.050 C 
HETATM   18  C11 UNK     1      20.053  -0.266  28.706  1.00  0.00     0.002 A 
ENDBRANCH   6   7
ENDBRANCH   5   6
ENDBRANCH   2   5
BRANCH   3  19
HETATM   19  C14 UNK     1      18.173   7.139  33.139  1.00  0.00     0.108 A 
HETATM   20  C16 UNK     1      16.881   7.354  32.866  1.00  0.00     0.037 A 
HETATM   21  C15 UNK     1      16.271   8.638  33.174  1.00  0.00     0.002 A 
HETATM   22  C17 UNK     1      17.051   9.633  33.754  1.00  0.00     0.089 A 
HETATM   23  C19 UNK     1      14.926   8.906  32.906  1.00  0.00     0.051 A 
HETATM   24  O1  UNK     1      18.411   9.400  34.038  1.00  0.00    -0.274 OA
HETATM   25  C20 UNK     1      16.527  10.884  34.072  1.00  0.00     0.041 A 
HETATM   26  C18 UNK     1      19.023   8.182  33.756  1.00  0.00     0.304 A 
HETATM   27  O4  UNK     1      20.207   7.989  34.007  1.00  0.00    -0.259 OA
HETATM   28  C22 UNK     1      15.186  11.144  33.803  1.00  0.00     0.039 A 
HETATM   29  C21 UNK     1      14.386  10.157  33.220  1.00  0.00     0.069 A 
BRANCH  29  30
HETATM   30  O3  UNK     1      13.075  10.416  32.959  1.00  0.00    -0.356 OA
HETATM   31  C23 UNK     1      12.662  11.780  32.997  1.00  0.00     0.210 C 
ENDBRANCH  29  30
ENDBRANCH   3  19
TORSDOF 5
ENDMDL
MODEL 7
REMARK VINA RESULT:      -9.7      6.127     10.125
REMARK  5 active torsions:
REMARK  status: ('A' for Active; 'I' for Inactive)
REMARK    1  A    between atoms: C21_27  and  O3_3 
REMARK       I    between atoms: C13_19  and  N2_6 
REMARK    2  A    between atoms: C7_13  and  N2_6 
REMARK    3  A    between atoms: C1_7  and  C4_10 
REMARK    4  A    between atoms: C4_10  and  C7_13 
REMARK    5  A    between atoms: C13_19  and  C14_20 
ROOT
HETATM    1  O2  UNK     1      20.531  -3.737  37.564  1.00  0.00    -0.267 OA
HETATM    2  N2  UNK     1      19.879  -3.833  35.328  1.00  0.00    -0.356 N 
HETATM    3  C13 UNK     1      20.096  -4.351  36.592  1.00  0.00     0.257 C 
HETATM    4  H12 UNK     1      19.542  -4.433  34.582  1.00  0.00     0.162 HD
ENDROOT
BRANCH   2   5
HETATM    5  C7  UNK     1      20.148  -2.455  34.985  1.00  0.00     0.127 C 
BRANCH   5   6
HETATM    6  C4  UNK     1      18.841  -1.690  34.784  1.00  0.00     0.061 C 
BRANCH   6   7
HETATM    7  C1  UNK     1      18.856  -0.790  33.582  1.00  0.00    -0.022 A 
HETATM    8  C2  UNK     1      19.397  -1.117  32.323  1.00  0.00    -0.001 A 
HETATM    9  C3  UNK     1      19.200   0.001  31.510  1.00  0.00     0.049 A 
HETATM   10  C8  UNK     1      20.038  -2.248  31.778  1.00  0.00     0.014 A 
HETATM   11  N1  UNK     1      18.563   0.951  32.275  1.00  0.00    -0.358 N 
HETATM   12  C6  UNK     1      19.613   0.044  30.173  1.00  0.00    -0.034 A 
HETATM   13  C5  UNK     1      18.351   0.475  33.540  1.00  0.00     0.013 A 
HETATM   14  H3  UNK     1      18.291   1.869  31.952  1.00  0.00     0.166 HD
HETATM   15  C9  UNK     1      17.682   1.302  34.562  1.00  0.00     0.068 C 
HETATM   16  C10 UNK     1      20.246  -1.088  29.654  1.00  0.00     0.009 A 
HETATM   17  C12 UNK     1      19.404   1.237  29.300  1.00  0.00     0.050 C 
HETATM   18  C11 UNK     1      20.456  -2.218  30.443  1.00  0.00     0.002 A 
ENDBRANCH   6   7
ENDBRANCH   5   6
ENDBRANCH   2   5
BRANCH   3  19
HETATM   19  C14 UNK     1      19.746  -5.773  36.694  1.00  0.00     0.108 A 
HETATM   20  C16 UNK     1      20.764  -6.638  36.638  1.00  0.00     0.037 A 
HETATM   21  C15 UNK     1      20.517  -8.069  36.731  1.00  0.00     0.002 A 
HETATM   22  C17 UNK     1      19.208  -8.518  36.877  1.00  0.00     0.089 A 
HETATM   23  C19 UNK     1      21.549  -9.008  36.677  1.00  0.00     0.051 A 
HETATM   24  O1  UNK     1      18.140  -7.601  36.935  1.00  0.00    -0.274 OA
HETATM   25  C20 UNK     1      18.904  -9.875  36.971  1.00  0.00     0.041 A 
HETATM   26  C18 UNK     1      18.346  -6.227  36.849  1.00  0.00     0.304 A 
HETATM   27  O4  UNK     1      17.410  -5.437  36.901  1.00  0.00    -0.259 OA
HETATM   28  C22 UNK     1      19.939 -10.805  36.917  1.00  0.00     0.039 A 
HETATM   29  C21 UNK     1      21.260 -10.373  36.770  1.00  0.00     0.069 A 
BRANCH  29  30
HETATM   30  O3  UNK     1      22.269 -11.286  36.718  1.00  0.00    -0.356 OA
HETATM   31  C23 UNK     1      23.285 -11.076  35.739  1.00  0.00     0.210 C 
ENDBRANCH  29  30
ENDBRANCH   3  19
TORSDOF 5
ENDMDL
MODEL 8
REMARK VINA RESULT:      -9.6     11.768     15.414
REMARK  5 active torsions:
REMARK  status: ('A' for Active; 'I' for Inactive)
REMARK    1  A    between atoms: C21_27  and  O3_3 
REMARK       I    between atoms: C13_19  and  N2_6 
REMARK    2  A    between atoms: C7_13  and  N2_6 
REMARK    3  A    between atoms: C1_7  and  C4_10 
REMARK    4  A    between atoms: C4_10  and  C7_13 
REMARK    5  A    between atoms: C13_19  and  C14_20 
ROOT
HETATM    1  O2  UNK     1      25.710  -8.604  37.233  1.00  0.00    -0.267 OA
HETATM    2  N2  UNK     1      24.847  -7.520  39.108  1.00  0.00    -0.356 N 
HETATM    3  C13 UNK     1      25.806  -7.788  38.147  1.00  0.00     0.257 C 
HETATM    4  H12 UNK     1      25.035  -6.845  39.841  1.00  0.00     0.162 HD
ENDROOT
BRANCH   2   5
HETATM    5  C7  UNK     1      23.568  -8.192  39.153  1.00  0.00     0.127 C 
BRANCH   5   6
HETATM    6  C4  UNK     1      22.511  -7.286  39.781  1.00  0.00     0.061 C 
BRANCH   6   7
HETATM    7  C1  UNK     1      21.208  -7.287  39.034  1.00  0.00    -0.022 A 
HETATM    8  C2  UNK     1      20.732  -6.239  38.221  1.00  0.00    -0.001 A 
HETATM    9  C3  UNK     1      19.493  -6.657  37.729  1.00  0.00     0.049 A 
HETATM   10  C8  UNK     1      21.219  -4.972  37.843  1.00  0.00     0.014 A 
HETATM   11  N1  UNK     1      19.255  -7.911  38.244  1.00  0.00    -0.358 N 
HETATM   12  C6  UNK     1      18.714  -5.867  36.875  1.00  0.00    -0.034 A 
HETATM   13  C5  UNK     1      20.298  -8.301  39.040  1.00  0.00     0.013 A 
HETATM   14  H3  UNK     1      18.431  -8.467  38.061  1.00  0.00     0.166 HD
HETATM   15  C9  UNK     1      20.290  -9.612  39.716  1.00  0.00     0.068 C 
HETATM   16  C10 UNK     1      19.217  -4.615  36.515  1.00  0.00     0.009 A 
HETATM   17  C12 UNK     1      17.390  -6.310  36.348  1.00  0.00     0.050 C 
HETATM   18  C11 UNK     1      20.451  -4.171  36.989  1.00  0.00     0.002 A 
ENDBRANCH   6   7
ENDBRANCH   5   6
ENDBRANCH   2   5
BRANCH   3  19
HETATM   19  C14 UNK     1      27.018  -6.976  38.309  1.00  0.00     0.108 A 
HETATM   20  C16 UNK     1      28.182  -7.613  38.139  1.00  0.00     0.037 A 
HETATM   21  C15 UNK     1      29.439  -6.892  38.278  1.00  0.00     0.002 A 
HETATM   22  C17 UNK     1      29.406  -5.537  38.590  1.00  0.00     0.089 A 
HETATM   23  C19 UNK     1      30.677  -7.516  38.109  1.00  0.00     0.051 A 
HETATM   24  O1  UNK     1      28.177  -4.873  38.768  1.00  0.00    -0.274 OA
HETATM   25  C20 UNK     1      30.574  -4.790  38.737  1.00  0.00     0.041 A 
HETATM   26  C18 UNK     1      26.959  -5.535  38.641  1.00  0.00     0.304 A 
HETATM   27  O4  UNK     1      25.894  -4.949  38.797  1.00  0.00    -0.259 OA
HETATM   28  C22 UNK     1      31.805  -5.419  38.567  1.00  0.00     0.039 A 
HETATM   29  C21 UNK     1      31.857  -6.780  38.255  1.00  0.00     0.069 A 
BRANCH  29  30
HETATM   30  O3  UNK     1      33.063  -7.390  38.089  1.00  0.00    -0.356 OA
HETATM   31  C23 UNK     1      34.149  -6.575  37.651  1.00  0.00     0.210 C 
ENDBRANCH  29  30
ENDBRANCH   3  19
TORSDOF 5
ENDMDL
MODEL 9
REMARK VINA RESULT:      -9.5      5.554     11.549
REMARK  5 active torsions:
REMARK  status: ('A' for Active; 'I' for Inactive)
REMARK    1  A    between atoms: C21_27  and  O3_3 
REMARK       I    between atoms: C13_19  and  N2_6 
REMARK    2  A    between atoms: C7_13  and  N2_6 
REMARK    3  A    between atoms: C1_7  and  C4_10 
REMARK    4  A    between atoms: C4_10  and  C7_13 
REMARK    5  A    between atoms: C13_19  and  C14_20 
ROOT
HETATM    1  O2  UNK     1      17.202  -1.219  36.739  1.00  0.00    -0.267 OA
HETATM    2  N2  UNK     1      19.155  -2.131  35.851  1.00  0.00    -0.356 N 
HETATM    3  C13 UNK     1      18.106  -1.231  35.906  1.00  0.00     0.257 C 
HETATM    4  H12 UNK     1      19.839  -2.073  35.104  1.00  0.00     0.162 HD
ENDROOT
BRANCH   2   5
HETATM    5  C7  UNK     1      19.320  -3.208  36.802  1.00  0.00     0.127 C 
BRANCH   5   6
HETATM    6  C4  UNK     1      19.841  -4.462  36.103  1.00  0.00     0.061 C 
BRANCH   6   7
HETATM    7  C1  UNK     1      19.683  -5.710  36.924  1.00  0.00    -0.022 A 
HETATM    8  C2  UNK     1      20.649  -6.236  37.804  1.00  0.00    -0.001 A 
HETATM    9  C3  UNK     1      20.091  -7.394  38.350  1.00  0.00     0.049 A 
HETATM   10  C8  UNK     1      21.946  -5.856  38.202  1.00  0.00     0.014 A 
HETATM   11  N1  UNK     1      18.837  -7.537  37.802  1.00  0.00    -0.358 N 
HETATM   12  C6  UNK     1      20.769  -8.194  39.278  1.00  0.00    -0.034 A 
HETATM   13  C5  UNK     1      18.582  -6.512  36.931  1.00  0.00     0.013 A 
HETATM   14  H3  UNK     1      18.194  -8.289  38.011  1.00  0.00     0.166 HD
HETATM   15  C9  UNK     1      17.299  -6.430  36.207  1.00  0.00     0.068 C 
HETATM   16  C10 UNK     1      22.054  -7.797  39.657  1.00  0.00     0.009 A 
HETATM   17  C12 UNK     1      20.177  -9.432  39.864  1.00  0.00     0.050 C 
HETATM   18  C11 UNK     1      22.636  -6.646  39.129  1.00  0.00     0.002 A 
ENDBRANCH   6   7
ENDBRANCH   5   6
ENDBRANCH   2   5
BRANCH   3  19
HETATM   19  C14 UNK     1      18.158  -0.230  34.834  1.00  0.00     0.108 A 
HETATM   20  C16 UNK     1      18.668  -0.639  33.667  1.00  0.00     0.037 A 
HETATM   21  C15 UNK     1      18.760   0.282  32.544  1.00  0.00     0.002 A 
HETATM   22  C17 UNK     1      18.311   1.588  32.706  1.00  0.00     0.089 A 
HETATM   23  C19 UNK     1      19.286  -0.101  31.308  1.00  0.00     0.051 A 
HETATM   24  O1  UNK     1      17.774   2.013  33.938  1.00  0.00    -0.274 OA
HETATM   25  C20 UNK     1      18.372   2.519  31.671  1.00  0.00     0.041 A 
HETATM   26  C18 UNK     1      17.673   1.155  35.029  1.00  0.00     0.304 A 
HETATM   27  O4  UNK     1      17.205   1.533  36.098  1.00  0.00    -0.259 OA
HETATM   28  C22 UNK     1      18.897   2.129  30.441  1.00  0.00     0.039 A 
HETATM   29  C21 UNK     1      19.354   0.822  30.260  1.00  0.00     0.069 A 
BRANCH  29  30
HETATM   30  O3  UNK     1      19.867   0.444  29.056  1.00  0.00    -0.356 OA
HETATM   31  C23 UNK     1      20.653  -0.745  29.029  1.00  0.00     0.210 C 
ENDBRANCH  29  30
ENDBRANCH   3  19
TORSDOF 5
ENDMDL
MODEL 10
REMARK VINA RESULT:      -9.4     12.457     15.859
REMARK  5 active torsions:
REMARK  status: ('A' for Active; 'I' for Inactive)
REMARK    1  A    between atoms: C21_27  and  O3_3 
REMARK       I    between atoms: C13_19  and  N2_6 
REMARK    2  A    between atoms: C7_13  and  N2_6 
REMARK    3  A    between atoms: C1_7  and  C4_10 
REMARK    4  A    between atoms: C4_10  and  C7_13 
REMARK    5  A    between atoms: C13_19  and  C14_20 
ROOT
HETATM    1  O2  UNK     1      26.213  -9.104  38.077  1.00  0.00    -0.267 OA
HETATM    2  N2  UNK     1      24.953  -7.387  39.027  1.00  0.00    -0.356 N 
HETATM    3  C13 UNK     1      26.103  -7.960  38.515  1.00  0.00     0.257 C 
HETATM    4  H12 UNK     1      24.973  -6.440  39.391  1.00  0.00     0.162 HD
ENDROOT
BRANCH   2   5
HETATM    5  C7  UNK     1      23.694  -8.092  39.114  1.00  0.00     0.127 C 
BRANCH   5   6
HETATM    6  C4  UNK     1      22.579  -7.140  39.543  1.00  0.00     0.061 C 
BRANCH   6   7
HETATM    7  C1  UNK     1      21.458  -7.048  38.547  1.00  0.00    -0.022 A 
HETATM    8  C2  UNK     1      20.601  -8.104  38.182  1.00  0.00    -0.001 A 
HETATM    9  C3  UNK     1      19.717  -7.582  37.236  1.00  0.00     0.049 A 
HETATM   10  C8  UNK     1      20.474  -9.457  38.553  1.00  0.00     0.014 A 
HETATM   11  N1  UNK     1      20.052  -6.259  37.055  1.00  0.00    -0.358 N 
HETATM   12  C6  UNK     1      18.709  -8.348  36.639  1.00  0.00    -0.034 A 
HETATM   13  C5  UNK     1      21.114  -5.927  37.852  1.00  0.00     0.013 A 
HETATM   14  H3  UNK     1      19.584  -5.623  36.425  1.00  0.00     0.166 HD
HETATM   15  C9  UNK     1      21.671  -4.561  37.848  1.00  0.00     0.068 C 
HETATM   16  C10 UNK     1      18.603  -9.688  37.022  1.00  0.00     0.009 A 
HETATM   17  C12 UNK     1      17.763  -7.794  35.627  1.00  0.00     0.050 C 
HETATM   18  C11 UNK     1      19.471 -10.237  37.965  1.00  0.00     0.002 A 
ENDBRANCH   6   7
ENDBRANCH   5   6
ENDBRANCH   2   5
BRANCH   3  19
HETATM   19  C14 UNK     1      27.251  -7.046  38.530  1.00  0.00     0.108 A 
HETATM   20  C16 UNK     1      28.456  -7.608  38.380  1.00  0.00     0.037 A 
HETATM   21  C15 UNK     1      29.655  -6.784  38.382  1.00  0.00     0.002 A 
HETATM   22  C17 UNK     1      29.526  -5.408  38.542  1.00  0.00     0.089 A 
HETATM   23  C19 UNK     1      30.933  -7.328  38.229  1.00  0.00     0.051 A 
HETATM   24  O1  UNK     1      28.254  -4.823  38.699  1.00  0.00    -0.274 OA
HETATM   25  C20 UNK     1      30.634  -4.564  38.553  1.00  0.00     0.041 A 
HETATM   26  C18 UNK     1      27.090  -5.585  38.701  1.00  0.00     0.304 A 
HETATM   27  O4  UNK     1      25.987  -5.067  38.839  1.00  0.00    -0.259 OA
HETATM   28  C22 UNK     1      31.905  -5.113  38.399  1.00  0.00     0.039 A 
HETATM   29  C21 UNK     1      32.054  -6.493  38.238  1.00  0.00     0.069 A 
BRANCH  29  30
HETATM   30  O3  UNK     1      33.299  -7.026  38.088  1.00  0.00    -0.356 OA
HETATM   31  C23 UNK     1      34.298  -6.189  37.509  1.00  0.00     0.210 C 
ENDBRANCH  29  30
ENDBRANCH   3  19
TORSDOF 5
ENDMDL
