MODEL 1
REMARK VINA RESULT:      -9.0      0.000      0.000
REMARK  6 active torsions:
REMARK  status: ('A' for Active; 'I' for Inactive)
REMARK    1  A    between atoms: C17_24  and  O2_4 
REMARK    2  A    between atoms: C22_29  and  O2_4 
REMARK    3  A    between atoms: C5_12  and  N1_6 
REMARK    4  A    between atoms: C6_13  and  N2_7 
REMARK    5  A    between atoms: C5_12  and  C7_14 
REMARK    6  A    between atoms: C6_13  and  C8_15 
ROOT
HETATM    1  N1  UNK     1      18.764   3.273  31.293  1.00  0.00     0.096 N 
HETATM    2  N2  UNK     1      18.848   5.976  32.316  1.00  0.00     0.096 N 
HETATM    3  C1  UNK     1      19.039   4.413  30.411  1.00  0.00     0.303 C 
HETATM    4  C2  UNK     1      17.919   3.688  32.420  1.00  0.00     0.303 C 
HETATM    5  C3  UNK     1      19.693   5.561  31.189  1.00  0.00     0.303 C 
HETATM    6  C4  UNK     1      18.573   4.835  33.199  1.00  0.00     0.303 C 
ENDROOT
BRANCH   1   7
HETATM    7  C5  UNK     1      18.139   2.181  30.550  1.00  0.00     0.312 C 
BRANCH   7   8
HETATM    8  C7  UNK     1      19.016   0.979  30.473  1.00  0.00    -0.011 A 
HETATM    9  C10 UNK     1      19.714   0.702  29.362  1.00  0.00     0.092 A 
HETATM   10  C15 UNK     1      20.592  -0.473  29.239  1.00  0.00     0.288 A 
HETATM   11  O1  UNK     1      20.676  -1.307  30.343  1.00  0.00    -0.275 OA
HETATM   12  O3  UNK     1      21.215  -0.695  28.207  1.00  0.00    -0.260 OA
HETATM   13  C11 UNK     1      19.954  -1.041  31.524  1.00  0.00     0.090 A 
HETATM   14  C9  UNK     1      19.124   0.075  31.626  1.00  0.00     0.009 A 
HETATM   15  C16 UNK     1      20.115  -1.950  32.572  1.00  0.00     0.041 A 
HETATM   16  C14 UNK     1      18.440   0.269  32.834  1.00  0.00     0.051 A 
HETATM   17  C17 UNK     1      18.590  -0.634  33.893  1.00  0.00     0.069 A 
HETATM   18  C20 UNK     1      19.426  -1.741  33.762  1.00  0.00     0.039 A 
BRANCH  17  19
HETATM   19  O2  UNK     1      17.915  -0.428  35.058  1.00  0.00    -0.351 OA
BRANCH  19  20
HETATM   20  C22 UNK     1      16.585  -0.935  35.135  1.00  0.00     0.171 C 
HETATM   21  C23 UNK     1      15.649   0.192  35.519  1.00  0.00     0.034 C 
ENDBRANCH  19  20
ENDBRANCH  17  19
ENDBRANCH   7   8
ENDBRANCH   1   7
BRANCH   2  22
HETATM   22  C6  UNK     1      19.475   7.067  33.061  1.00  0.00     0.312 C 
BRANCH  22  23
HETATM   23  C8  UNK     1      18.504   8.183  33.344  1.00  0.00    -0.008 A 
HETATM   24  C12 UNK     1      18.900   9.348  33.999  1.00  0.00     0.045 A 
HETATM   25 Cl1  UNK     1      20.529   9.574  34.523  1.00  0.00    -0.084 Cl
HETATM   26  C18 UNK     1      17.972  10.360  34.245  1.00  0.00     0.066 A 
HETATM   27  C21 UNK     1      16.647  10.206  33.834  1.00  0.00     0.118 A 
HETATM   28  C19 UNK     1      16.252   9.040  33.180  1.00  0.00     0.043 A 
HETATM   29  F1  UNK     1      15.755  11.177  34.070  1.00  0.00    -0.206 F 
HETATM   30  C13 UNK     1      17.180   8.028  32.934  1.00  0.00     0.013 A 
ENDBRANCH  22  23
ENDBRANCH   2  22
TORSDOF 6
ENDMDL
MODEL 2
REMARK VINA RESULT:      -8.6     11.112     15.155
REMARK  6 active torsions:
REMARK  status: ('A' for Active; 'I' for Inactive)
REMARK    1  A    between atoms: C17_24  and  O2_4 
REMARK    2  A    between atoms: C22_29  and  O2_4 
REMARK    3  A    between atoms: C5_12  and  N1_6 
REMARK    4  A    between atoms: C6_13  and  N2_7 
REMARK    5  A    between atoms: C5_12  and  C7_14 
REMARK    6  A    between atoms: C6_13  and  C8_15 
ROOT
HETATM    1  N1  UNK     1      23.778  -9.376  37.172  1.00  0.00     0.096 N 
HETATM    2  N2  UNK     1      26.237  -8.388  38.327  1.00  0.00     0.096 N 
HETATM    3  C1  UNK     1      25.078  -9.654  36.550  1.00  0.00     0.303 C 
HETATM    4  C2  UNK     1      23.820  -8.100  37.899  1.00  0.00     0.303 C 
HETATM    5  C3  UNK     1      26.195  -9.662  37.599  1.00  0.00     0.303 C 
HETATM    6  C4  UNK     1      24.937  -8.108  38.949  1.00  0.00     0.303 C 
ENDROOT
BRANCH   1   7
HETATM    7  C5  UNK     1      22.714  -9.367  36.170  1.00  0.00     0.312 C 
BRANCH   7   8
HETATM    8  C7  UNK     1      21.361  -9.458  36.785  1.00  0.00    -0.011 A 
HETATM    9  C10 UNK     1      20.948 -10.583  37.387  1.00  0.00     0.092 A 
HETATM   10  C15 UNK     1      19.621 -10.720  38.008  1.00  0.00     0.288 A 
HETATM   11  O1  UNK     1      18.787  -9.614  37.949  1.00  0.00    -0.275 OA
HETATM   12  O3  UNK     1      19.277 -11.765  38.550  1.00  0.00    -0.260 OA
HETATM   13  C11 UNK     1      19.194  -8.418  37.323  1.00  0.00     0.090 A 
HETATM   14  C9  UNK     1      20.454  -8.303  36.738  1.00  0.00     0.009 A 
HETATM   15  C16 UNK     1      18.272  -7.369  37.323  1.00  0.00     0.041 A 
HETATM   16  C14 UNK     1      20.782  -7.080  36.135  1.00  0.00     0.051 A 
HETATM   17  C17 UNK     1      19.868  -6.020  36.126  1.00  0.00     0.069 A 
HETATM   18  C20 UNK     1      18.615  -6.164  36.719  1.00  0.00     0.039 A 
BRANCH  17  19
HETATM   19  O2  UNK     1      20.206  -4.841  35.534  1.00  0.00    -0.351 OA
BRANCH  19  20
HETATM   20  C22 UNK     1      19.920  -3.647  36.259  1.00  0.00     0.171 C 
HETATM   21  C23 UNK     1      20.277  -2.451  35.401  1.00  0.00     0.034 C 
ENDBRANCH  19  20
ENDBRANCH  17  19
ENDBRANCH   7   8
ENDBRANCH   1   7
BRANCH   2  22
HETATM   22  C6  UNK     1      27.300  -8.398  39.330  1.00  0.00     0.312 C 
BRANCH  22  23
HETATM   23  C8  UNK     1      28.400  -7.426  38.993  1.00  0.00    -0.008 A 
HETATM   24  C12 UNK     1      29.588  -7.845  38.395  1.00  0.00     0.045 A 
HETATM   25 Cl1  UNK     1      29.863  -9.505  38.011  1.00  0.00    -0.084 Cl
HETATM   26  C18 UNK     1      30.585  -6.915  38.098  1.00  0.00     0.066 A 
HETATM   27  C21 UNK     1      30.391  -5.566  38.398  1.00  0.00     0.118 A 
HETATM   28  C19 UNK     1      29.203  -5.148  38.996  1.00  0.00     0.043 A 
HETATM   29  F1  UNK     1      31.348  -4.672  38.113  1.00  0.00    -0.206 F 
HETATM   30  C13 UNK     1      28.207  -6.078  39.293  1.00  0.00     0.013 A 
ENDBRANCH  22  23
ENDBRANCH   2  22
TORSDOF 6
ENDMDL
MODEL 3
REMARK VINA RESULT:      -8.4     13.775     16.974
REMARK  6 active torsions:
REMARK  status: ('A' for Active; 'I' for Inactive)
REMARK    1  A    between atoms: C17_24  and  O2_4 
REMARK    2  A    between atoms: C22_29  and  O2_4 
REMARK    3  A    between atoms: C5_12  and  N1_6 
REMARK    4  A    between atoms: C6_13  and  N2_7 
REMARK    5  A    between atoms: C5_12  and  C7_14 
REMARK    6  A    between atoms: C6_13  and  C8_15 
ROOT
HETATM    1  N1  UNK     1      26.901  -9.436  37.505  1.00  0.00     0.096 N 
HETATM    2  N2  UNK     1      29.753  -9.091  37.831  1.00  0.00     0.096 N 
HETATM    3  C1  UNK     1      27.704  -8.731  36.498  1.00  0.00     0.303 C 
HETATM    4  C2  UNK     1      27.504  -9.288  38.835  1.00  0.00     0.303 C 
HETATM    5  C3  UNK     1      29.151  -9.238  36.501  1.00  0.00     0.303 C 
HETATM    6  C4  UNK     1      28.950  -9.796  38.839  1.00  0.00     0.303 C 
ENDROOT
BRANCH   1   7
HETATM    7  C5  UNK     1      25.523  -8.951  37.502  1.00  0.00     0.312 C 
BRANCH   7   8
HETATM    8  C7  UNK     1      24.606  -9.866  36.767  1.00  0.00    -0.011 A 
HETATM    9  C10 UNK     1      25.036 -11.045  36.295  1.00  0.00     0.092 A 
HETATM   10  C15 UNK     1      24.168 -11.982  35.564  1.00  0.00     0.288 A 
HETATM   11  O1  UNK     1      22.851 -11.594  35.376  1.00  0.00    -0.275 OA
HETATM   12  O3  UNK     1      24.597 -13.052  35.147  1.00  0.00    -0.260 OA
HETATM   13  C11 UNK     1      22.370 -10.361  35.861  1.00  0.00     0.090 A 
HETATM   14  C9  UNK     1      23.205  -9.482  36.551  1.00  0.00     0.009 A 
HETATM   15  C16 UNK     1      21.026 -10.073  35.612  1.00  0.00     0.041 A 
HETATM   16  C14 UNK     1      22.650  -8.275  37.000  1.00  0.00     0.051 A 
HETATM   17  C17 UNK     1      21.305  -7.973  36.758  1.00  0.00     0.069 A 
HETATM   18  C20 UNK     1      20.494  -8.871  36.065  1.00  0.00     0.039 A 
BRANCH  17  19
HETATM   19  O2  UNK     1      20.785  -6.795  37.202  1.00  0.00    -0.351 OA
BRANCH  19  20
HETATM   20  C22 UNK     1      21.119  -6.399  38.530  1.00  0.00     0.171 C 
HETATM   21  C23 UNK     1      20.127  -7.018  39.493  1.00  0.00     0.034 C 
ENDBRANCH  19  20
ENDBRANCH  17  19
ENDBRANCH   7   8
ENDBRANCH   1   7
BRANCH   2  22
HETATM   22  C6  UNK     1      31.131  -9.579  37.834  1.00  0.00     0.312 C 
BRANCH  22  23
HETATM   23  C8  UNK     1      32.108  -8.503  37.436  1.00  0.00    -0.008 A 
HETATM   24  C12 UNK     1      32.787  -8.547  36.219  1.00  0.00     0.045 A 
HETATM   25 Cl1  UNK     1      32.545  -9.840  35.101  1.00  0.00    -0.084 Cl
HETATM   26  C18 UNK     1      33.685  -7.533  35.885  1.00  0.00     0.066 A 
HETATM   27  C21 UNK     1      33.902  -6.475  36.768  1.00  0.00     0.118 A 
HETATM   28  C19 UNK     1      33.223  -6.432  37.985  1.00  0.00     0.043 A 
HETATM   29  F1  UNK     1      34.764  -5.501  36.448  1.00  0.00    -0.206 F 
HETATM   30  C13 UNK     1      32.325  -7.446  38.319  1.00  0.00     0.013 A 
ENDBRANCH  22  23
ENDBRANCH   2  22
TORSDOF 6
ENDMDL
MODEL 4
REMARK VINA RESULT:      -8.4     13.869     16.042
REMARK  6 active torsions:
REMARK  status: ('A' for Active; 'I' for Inactive)
REMARK    1  A    between atoms: C17_24  and  O2_4 
REMARK    2  A    between atoms: C22_29  and  O2_4 
REMARK    3  A    between atoms: C5_12  and  N1_6 
REMARK    4  A    between atoms: C6_13  and  N2_7 
REMARK    5  A    between atoms: C5_12  and  C7_14 
REMARK    6  A    between atoms: C6_13  and  C8_15 
ROOT
HETATM    1  N1  UNK     1      26.833  -8.807  36.789  1.00  0.00     0.096 N 
HETATM    2  N2  UNK     1      29.139  -7.210  36.089  1.00  0.00     0.096 N 
HETATM    3  C1  UNK     1      27.309  -7.731  37.666  1.00  0.00     0.303 C 
HETATM    4  C2  UNK     1      27.949  -9.375  36.022  1.00  0.00     0.303 C 
HETATM    5  C3  UNK     1      28.024  -6.643  36.856  1.00  0.00     0.303 C 
HETATM    6  C4  UNK     1      28.663  -8.287  35.212  1.00  0.00     0.303 C 
ENDROOT
BRANCH   1   7
HETATM    7  C5  UNK     1      26.154  -9.844  37.562  1.00  0.00     0.312 C 
BRANCH   7   8
HETATM    8  C7  UNK     1      25.081 -10.518  36.779  1.00  0.00    -0.011 A 
HETATM    9  C10 UNK     1      25.285 -11.717  36.214  1.00  0.00     0.092 A 
HETATM   10  C15 UNK     1      24.257 -12.421  35.431  1.00  0.00     0.288 A 
HETATM   11  O1  UNK     1      23.032 -11.784  35.295  1.00  0.00    -0.275 OA
HETATM   12  O3  UNK     1      24.480 -13.516  34.928  1.00  0.00    -0.260 OA
HETATM   13  C11 UNK     1      22.788 -10.524  35.878  1.00  0.00     0.090 A 
HETATM   14  C9  UNK     1      23.774  -9.868  36.616  1.00  0.00     0.009 A 
HETATM   15  C16 UNK     1      21.519  -9.978  35.675  1.00  0.00     0.041 A 
HETATM   16  C14 UNK     1      23.452  -8.618  37.162  1.00  0.00     0.051 A 
HETATM   17  C17 UNK     1      22.185  -8.057  36.967  1.00  0.00     0.069 A 
HETATM   18  C20 UNK     1      21.220  -8.736  36.225  1.00  0.00     0.039 A 
BRANCH  17  19
HETATM   19  O2  UNK     1      21.893  -6.840  37.506  1.00  0.00    -0.351 OA
BRANCH  19  20
HETATM   20  C22 UNK     1      21.821  -6.762  38.928  1.00  0.00     0.171 C 
HETATM   21  C23 UNK     1      20.437  -7.179  39.376  1.00  0.00     0.034 C 
ENDBRANCH  19  20
ENDBRANCH  17  19
ENDBRANCH   7   8
ENDBRANCH   1   7
BRANCH   2  22
HETATM   22  C6  UNK     1      29.817  -6.173  35.314  1.00  0.00     0.312 C 
BRANCH  22  23
HETATM   23  C8  UNK     1      31.250  -5.998  35.743  1.00  0.00    -0.008 A 
HETATM   24  C12 UNK     1      31.616  -5.063  36.710  1.00  0.00     0.045 A 
HETATM   25 Cl1  UNK     1      30.442  -4.051  37.469  1.00  0.00    -0.084 Cl
HETATM   26  C18 UNK     1      32.954  -4.930  37.080  1.00  0.00     0.066 A 
HETATM   27  C21 UNK     1      33.926  -5.734  36.484  1.00  0.00     0.118 A 
HETATM   28  C19 UNK     1      33.560  -6.668  35.516  1.00  0.00     0.043 A 
HETATM   29  F1  UNK     1      35.212  -5.606  36.839  1.00  0.00    -0.206 F 
HETATM   30  C13 UNK     1      32.222  -6.801  35.146  1.00  0.00     0.013 A 
ENDBRANCH  22  23
ENDBRANCH   2  22
TORSDOF 6
ENDMDL
MODEL 5
REMARK VINA RESULT:      -8.3     13.267     15.682
REMARK  6 active torsions:
REMARK  status: ('A' for Active; 'I' for Inactive)
REMARK    1  A    between atoms: C17_24  and  O2_4 
REMARK    2  A    between atoms: C22_29  and  O2_4 
REMARK    3  A    between atoms: C5_12  and  N1_6 
REMARK    4  A    between atoms: C6_13  and  N2_7 
REMARK    5  A    between atoms: C5_12  and  C7_14 
REMARK    6  A    between atoms: C6_13  and  C8_15 
ROOT
HETATM    1  N1  UNK     1      27.121  -9.228  37.008  1.00  0.00     0.096 N 
HETATM    2  N2  UNK     1      29.542  -7.737  36.482  1.00  0.00     0.096 N 
HETATM    3  C1  UNK     1      27.089  -7.956  36.277  1.00  0.00     0.303 C 
HETATM    4  C2  UNK     1      28.250  -9.251  37.947  1.00  0.00     0.303 C 
HETATM    5  C3  UNK     1      28.413  -7.713  35.544  1.00  0.00     0.303 C 
HETATM    6  C4  UNK     1      29.574  -9.010  37.214  1.00  0.00     0.303 C 
ENDROOT
BRANCH   1   7
HETATM    7  C5  UNK     1      25.859  -9.457  37.707  1.00  0.00     0.312 C 
BRANCH   7   8
HETATM    8  C7  UNK     1      24.883 -10.212  36.873  1.00  0.00    -0.011 A 
HETATM    9  C10 UNK     1      25.201 -11.400  36.339  1.00  0.00     0.092 A 
HETATM   10  C15 UNK     1      24.271 -12.182  35.508  1.00  0.00     0.288 A 
HETATM   11  O1  UNK     1      23.017 -11.633  35.291  1.00  0.00    -0.275 OA
HETATM   12  O3  UNK     1      24.597 -13.266  35.037  1.00  0.00    -0.260 OA
HETATM   13  C11 UNK     1      22.654 -10.386  35.839  1.00  0.00     0.090 A 
HETATM   14  C9  UNK     1      23.546  -9.655  36.623  1.00  0.00     0.009 A 
HETATM   15  C16 UNK     1      21.365  -9.930  35.553  1.00  0.00     0.041 A 
HETATM   16  C14 UNK     1      23.109  -8.424  37.130  1.00  0.00     0.051 A 
HETATM   17  C17 UNK     1      21.821  -7.953  36.852  1.00  0.00     0.069 A 
HETATM   18  C20 UNK     1      20.950  -8.705  36.065  1.00  0.00     0.039 A 
BRANCH  17  19
HETATM   19  O2  UNK     1      21.415  -6.753  37.354  1.00  0.00    -0.351 OA
BRANCH  19  20
HETATM   20  C22 UNK     1      20.096  -6.688  37.891  1.00  0.00     0.171 C 
HETATM   21  C23 UNK     1      20.134  -7.103  39.346  1.00  0.00     0.034 C 
ENDBRANCH  19  20
ENDBRANCH  17  19
ENDBRANCH   7   8
ENDBRANCH   1   7
BRANCH   2  22
HETATM   22  C6  UNK     1      30.805  -7.510  35.782  1.00  0.00     0.312 C 
BRANCH  22  23
HETATM   23  C8  UNK     1      31.293  -6.095  35.951  1.00  0.00    -0.008 A 
HETATM   24  C12 UNK     1      32.287  -5.562  35.131  1.00  0.00     0.045 A 
HETATM   25 Cl1  UNK     1      33.012  -6.498  33.875  1.00  0.00    -0.084 Cl
HETATM   26  C18 UNK     1      32.715  -4.247  35.319  1.00  0.00     0.066 A 
HETATM   27  C21 UNK     1      32.147  -3.467  36.326  1.00  0.00     0.118 A 
HETATM   28  C19 UNK     1      31.154  -4.001  37.147  1.00  0.00     0.043 A 
HETATM   29  F1  UNK     1      32.558  -2.204  36.507  1.00  0.00    -0.206 F 
HETATM   30  C13 UNK     1      30.727  -5.315  36.959  1.00  0.00     0.013 A 
ENDBRANCH  22  23
ENDBRANCH   2  22
TORSDOF 6
ENDMDL
MODEL 6
REMARK VINA RESULT:      -8.3     12.956     15.763
REMARK  6 active torsions:
REMARK  status: ('A' for Active; 'I' for Inactive)
REMARK    1  A    between atoms: C17_24  and  O2_4 
REMARK    2  A    between atoms: C22_29  and  O2_4 
REMARK    3  A    between atoms: C5_12  and  N1_6 
REMARK    4  A    between atoms: C6_13  and  N2_7 
REMARK    5  A    between atoms: C5_12  and  C7_14 
REMARK    6  A    between atoms: C6_13  and  C8_15 
ROOT
HETATM    1  N1  UNK     1      25.613  -8.344  38.338  1.00  0.00     0.096 N 
HETATM    2  N2  UNK     1      28.488  -8.239  38.047  1.00  0.00     0.096 N 
HETATM    3  C1  UNK     1      26.335  -7.067  38.363  1.00  0.00     0.303 C 
HETATM    4  C2  UNK     1      26.470  -9.427  38.837  1.00  0.00     0.303 C 
HETATM    5  C3  UNK     1      27.631  -7.156  37.549  1.00  0.00     0.303 C 
HETATM    6  C4  UNK     1      27.765  -9.517  38.022  1.00  0.00     0.303 C 
ENDROOT
BRANCH   1   7
HETATM    7  C5  UNK     1      24.379  -8.258  39.115  1.00  0.00     0.312 C 
BRANCH   7   8
HETATM    8  C7  UNK     1      23.226  -7.800  38.292  1.00  0.00    -0.011 A 
HETATM    9  C10 UNK     1      22.601  -6.644  38.558  1.00  0.00     0.092 A 
HETATM   10  C15 UNK     1      21.458  -6.150  37.773  1.00  0.00     0.288 A 
HETATM   11  O1  UNK     1      21.037  -6.944  36.717  1.00  0.00    -0.275 OA
HETATM   12  O3  UNK     1      20.911  -5.087  38.046  1.00  0.00    -0.260 OA
HETATM   13  C11 UNK     1      21.674  -8.164  36.414  1.00  0.00     0.090 A 
HETATM   14  C9  UNK     1      22.756  -8.620  37.167  1.00  0.00     0.009 A 
HETATM   15  C16 UNK     1      21.165  -8.881  35.328  1.00  0.00     0.041 A 
HETATM   16  C14 UNK     1      23.333  -9.844  36.801  1.00  0.00     0.051 A 
HETATM   17  C17 UNK     1      22.834 -10.574  35.717  1.00  0.00     0.069 A 
HETATM   18  C20 UNK     1      21.752 -10.093  34.981  1.00  0.00     0.039 A 
BRANCH  17  19
HETATM   19  O2  UNK     1      23.409 -11.762  35.378  1.00  0.00    -0.351 OA
BRANCH  19  20
HETATM   20  C22 UNK     1      24.671 -12.063  35.970  1.00  0.00     0.171 C 
HETATM   21  C23 UNK     1      24.736 -13.547  36.263  1.00  0.00     0.034 C 
ENDBRANCH  19  20
ENDBRANCH  17  19
ENDBRANCH   7   8
ENDBRANCH   1   7
BRANCH   2  22
HETATM   22  C6  UNK     1      29.721  -8.326  37.267  1.00  0.00     0.312 C 
BRANCH  22  23
HETATM   23  C8  UNK     1      30.410  -6.991  37.157  1.00  0.00    -0.008 A 
HETATM   24  C12 UNK     1      30.578  -6.354  35.927  1.00  0.00     0.045 A 
HETATM   25 Cl1  UNK     1      30.005  -7.065  34.463  1.00  0.00    -0.084 Cl
HETATM   26  C18 UNK     1      31.223  -5.119  35.864  1.00  0.00     0.066 A 
HETATM   27  C21 UNK     1      31.698  -4.520  37.032  1.00  0.00     0.118 A 
HETATM   28  C19 UNK     1      31.530  -5.157  38.261  1.00  0.00     0.043 A 
HETATM   29  F1  UNK     1      32.317  -3.333  36.972  1.00  0.00    -0.206 F 
HETATM   30  C13 UNK     1      30.885  -6.393  38.323  1.00  0.00     0.013 A 
ENDBRANCH  22  23
ENDBRANCH   2  22
TORSDOF 6
ENDMDL
MODEL 7
REMARK VINA RESULT:      -8.3     23.220     25.322
REMARK  6 active torsions:
REMARK  status: ('A' for Active; 'I' for Inactive)
REMARK    1  A    between atoms: C17_24  and  O2_4 
REMARK    2  A    between atoms: C22_29  and  O2_4 
REMARK    3  A    between atoms: C5_12  and  N1_6 
REMARK    4  A    between atoms: C6_13  and  N2_7 
REMARK    5  A    between atoms: C5_12  and  C7_14 
REMARK    6  A    between atoms: C6_13  and  C8_15 
ROOT
HETATM    1  N1  UNK     1      11.882   6.294   7.403  1.00  0.00     0.096 N 
HETATM    2  N2  UNK     1       9.075   6.391   8.089  1.00  0.00     0.096 N 
HETATM    3  C1  UNK     1      11.443   6.545   8.781  1.00  0.00     0.303 C 
HETATM    4  C2  UNK     1      10.881   6.785   6.448  1.00  0.00     0.303 C 
HETATM    5  C3  UNK     1      10.076   5.901   9.044  1.00  0.00     0.303 C 
HETATM    6  C4  UNK     1       9.515   6.141   6.711  1.00  0.00     0.303 C 
ENDROOT
BRANCH   1   7
HETATM    7  C5  UNK     1      13.184   6.910   7.154  1.00  0.00     0.312 C 
BRANCH   7   8
HETATM    8  C7  UNK     1      14.156   6.634   8.249  1.00  0.00    -0.011 A 
HETATM    9  C10 UNK     1      14.554   5.384   8.523  1.00  0.00     0.092 A 
HETATM   10  C15 UNK     1      15.510   5.062   9.594  1.00  0.00     0.288 A 
HETATM   11  O1  UNK     1      16.002   6.129  10.331  1.00  0.00    -0.275 OA
HETATM   12  O3  UNK     1      15.852   3.906   9.816  1.00  0.00    -0.260 OA
HETATM   13  C11 UNK     1      15.602   7.454  10.066  1.00  0.00     0.090 A 
HETATM   14  C9  UNK     1      14.693   7.743   9.049  1.00  0.00     0.009 A 
HETATM   15  C16 UNK     1      16.161   8.448  10.873  1.00  0.00     0.041 A 
HETATM   16  C14 UNK     1      14.345   9.087   8.850  1.00  0.00     0.051 A 
HETATM   17  C17 UNK     1      14.896  10.094   9.650  1.00  0.00     0.069 A 
HETATM   18  C20 UNK     1      15.803   9.775  10.660  1.00  0.00     0.039 A 
BRANCH  17  19
HETATM   19  O2  UNK     1      14.545  11.393   9.441  1.00  0.00    -0.351 OA
BRANCH  19  20
HETATM   20  C22 UNK     1      15.556  12.265   8.940  1.00  0.00     0.171 C 
HETATM   21  C23 UNK     1      15.688  12.061   7.446  1.00  0.00     0.034 C 
ENDBRANCH  19  20
ENDBRANCH  17  19
ENDBRANCH   7   8
ENDBRANCH   1   7
BRANCH   2  22
HETATM   22  C6  UNK     1       7.774   5.773   8.338  1.00  0.00     0.312 C 
BRANCH  22  23
HETATM   23  C8  UNK     1       7.219   6.158   9.684  1.00  0.00    -0.008 A 
HETATM   24  C12 UNK     1       6.808   5.196  10.607  1.00  0.00     0.045 A 
HETATM   25 Cl1  UNK     1       6.914   3.510  10.254  1.00  0.00    -0.084 Cl
HETATM   26  C18 UNK     1       6.298   5.591  11.844  1.00  0.00     0.066 A 
HETATM   27  C21 UNK     1       6.199   6.947  12.157  1.00  0.00     0.118 A 
HETATM   28  C19 UNK     1       6.609   7.908  11.233  1.00  0.00     0.043 A 
HETATM   29  F1  UNK     1       5.709   7.326  13.345  1.00  0.00    -0.206 F 
HETATM   30  C13 UNK     1       7.120   7.513   9.997  1.00  0.00     0.013 A 
ENDBRANCH  22  23
ENDBRANCH   2  22
TORSDOF 6
ENDMDL
MODEL 8
REMARK VINA RESULT:      -8.2     15.592     16.942
REMARK  6 active torsions:
REMARK  status: ('A' for Active; 'I' for Inactive)
REMARK    1  A    between atoms: C17_24  and  O2_4 
REMARK    2  A    between atoms: C22_29  and  O2_4 
REMARK    3  A    between atoms: C5_12  and  N1_6 
REMARK    4  A    between atoms: C6_13  and  N2_7 
REMARK    5  A    between atoms: C5_12  and  C7_14 
REMARK    6  A    between atoms: C6_13  and  C8_15 
ROOT
HETATM    1  N1  UNK     1      30.263  -6.658  35.130  1.00  0.00     0.096 N 
HETATM    2  N2  UNK     1      30.319  -6.621  32.239  1.00  0.00     0.096 N 
HETATM    3  C1  UNK     1      31.154  -5.751  34.397  1.00  0.00     0.303 C 
HETATM    4  C2  UNK     1      30.013  -7.875  34.347  1.00  0.00     0.303 C 
HETATM    5  C3  UNK     1      30.570  -5.405  33.022  1.00  0.00     0.303 C 
HETATM    6  C4  UNK     1      29.428  -7.529  32.973  1.00  0.00     0.303 C 
ENDROOT
BRANCH   1   7
HETATM    7  C5  UNK     1      30.822  -6.989  36.439  1.00  0.00     0.312 C 
BRANCH   7   8
HETATM    8  C7  UNK     1      29.984  -6.471  37.556  1.00  0.00    -0.011 A 
HETATM    9  C10 UNK     1      30.253  -5.291  38.134  1.00  0.00     0.092 A 
HETATM   10  C15 UNK     1      29.455  -4.739  39.240  1.00  0.00     0.288 A 
HETATM   11  O1  UNK     1      28.382  -5.501  39.676  1.00  0.00    -0.275 OA
HETATM   12  O3  UNK     1      29.731  -3.656  39.744  1.00  0.00    -0.260 OA
HETATM   13  C11 UNK     1      28.075  -6.745  39.088  1.00  0.00     0.090 A 
HETATM   14  C9  UNK     1      28.842  -7.257  38.041  1.00  0.00     0.009 A 
HETATM   15  C16 UNK     1      26.972  -7.427  39.608  1.00  0.00     0.041 A 
HETATM   16  C14 UNK     1      28.471  -8.500  37.511  1.00  0.00     0.051 A 
HETATM   17  C17 UNK     1      27.370  -9.196  38.022  1.00  0.00     0.069 A 
HETATM   18  C20 UNK     1      26.621  -8.659  39.069  1.00  0.00     0.039 A 
BRANCH  17  19
HETATM   19  O2  UNK     1      27.026 -10.403  37.493  1.00  0.00    -0.351 OA
BRANCH  19  20
HETATM   20  C22 UNK     1      26.089 -10.397  36.419  1.00  0.00     0.171 C 
HETATM   21  C23 UNK     1      25.379 -11.734  36.376  1.00  0.00     0.034 C 
ENDBRANCH  19  20
ENDBRANCH  17  19
ENDBRANCH   7   8
ENDBRANCH   1   7
BRANCH   2  22
HETATM   22  C6  UNK     1      29.758  -6.289  30.931  1.00  0.00     0.312 C 
BRANCH  22  23
HETATM   23  C8  UNK     1      29.350  -7.522  30.167  1.00  0.00    -0.008 A 
HETATM   24  C12 UNK     1      28.009  -7.869  30.001  1.00  0.00     0.045 A 
HETATM   25 Cl1  UNK     1      26.743  -6.902  30.665  1.00  0.00    -0.084 Cl
HETATM   26  C18 UNK     1      27.670  -9.019  29.288  1.00  0.00     0.066 A 
HETATM   27  C21 UNK     1      28.672  -9.821  28.741  1.00  0.00     0.118 A 
HETATM   28  C19 UNK     1      30.012  -9.473  28.908  1.00  0.00     0.043 A 
HETATM   29  F1  UNK     1      28.347 -10.925  28.056  1.00  0.00    -0.206 F 
HETATM   30  C13 UNK     1      30.351  -8.323  29.621  1.00  0.00     0.013 A 
ENDBRANCH  22  23
ENDBRANCH   2  22
TORSDOF 6
ENDMDL
MODEL 9
REMARK VINA RESULT:      -8.1     14.895     17.400
REMARK  6 active torsions:
REMARK  status: ('A' for Active; 'I' for Inactive)
REMARK    1  A    between atoms: C17_24  and  O2_4 
REMARK    2  A    between atoms: C22_29  and  O2_4 
REMARK    3  A    between atoms: C5_12  and  N1_6 
REMARK    4  A    between atoms: C6_13  and  N2_7 
REMARK    5  A    between atoms: C5_12  and  C7_14 
REMARK    6  A    between atoms: C6_13  and  C8_15 
ROOT
HETATM    1  N1  UNK     1      31.029  -9.748  36.249  1.00  0.00     0.096 N 
HETATM    2  N2  UNK     1      30.668  -8.715  33.573  1.00  0.00     0.096 N 
HETATM    3  C1  UNK     1      29.707  -9.336  35.764  1.00  0.00     0.303 C 
HETATM    4  C2  UNK     1      32.084  -8.974  35.582  1.00  0.00     0.303 C 
HETATM    5  C3  UNK     1      29.613  -9.487  34.241  1.00  0.00     0.303 C 
HETATM    6  C4  UNK     1      31.991  -9.126  34.060  1.00  0.00     0.303 C 
ENDROOT
BRANCH   1   7
HETATM    7  C5  UNK     1      31.118  -9.602  37.701  1.00  0.00     0.312 C 
BRANCH   7   8
HETATM    8  C7  UNK     1      29.984  -8.811  38.256  1.00  0.00    -0.011 A 
HETATM    9  C10 UNK     1      28.863  -9.412  38.680  1.00  0.00     0.092 A 
HETATM   10  C15 UNK     1      27.717  -8.673  39.235  1.00  0.00     0.288 A 
HETATM   11  O1  UNK     1      27.841  -7.295  39.310  1.00  0.00    -0.275 OA
HETATM   12  O3  UNK     1      26.707  -9.257  39.613  1.00  0.00    -0.260 OA
HETATM   13  C11 UNK     1      29.008  -6.635  38.872  1.00  0.00     0.090 A 
HETATM   14  C9  UNK     1      30.085  -7.348  38.346  1.00  0.00     0.009 A 
HETATM   15  C16 UNK     1      29.021  -5.244  38.994  1.00  0.00     0.041 A 
HETATM   16  C14 UNK     1      31.208  -6.618  37.933  1.00  0.00     0.051 A 
HETATM   17  C17 UNK     1      31.236  -5.224  38.048  1.00  0.00     0.069 A 
HETATM   18  C20 UNK     1      30.145  -4.538  38.577  1.00  0.00     0.039 A 
BRANCH  17  19
HETATM   19  O2  UNK     1      32.337  -4.533  37.640  1.00  0.00    -0.351 OA
BRANCH  19  20
HETATM   20  C22 UNK     1      32.171  -3.638  36.542  1.00  0.00     0.171 C 
HETATM   21  C23 UNK     1      32.500  -4.367  35.257  1.00  0.00     0.034 C 
ENDBRANCH  19  20
ENDBRANCH  17  19
ENDBRANCH   7   8
ENDBRANCH   1   7
BRANCH   2  22
HETATM   22  C6  UNK     1      30.580  -8.863  32.122  1.00  0.00     0.312 C 
BRANCH  22  23
HETATM   23  C8  UNK     1      29.372  -8.163  31.558  1.00  0.00    -0.008 A 
HETATM   24  C12 UNK     1      29.224  -6.778  31.641  1.00  0.00     0.045 A 
HETATM   25 Cl1  UNK     1      30.421  -5.792  32.398  1.00  0.00    -0.084 Cl
HETATM   26  C18 UNK     1      28.090  -6.165  31.108  1.00  0.00     0.066 A 
HETATM   27  C21 UNK     1      27.105  -6.937  30.491  1.00  0.00     0.118 A 
HETATM   28  C19 UNK     1      27.253  -8.321  30.409  1.00  0.00     0.043 A 
HETATM   29  F1  UNK     1      26.016  -6.348  29.980  1.00  0.00    -0.206 F 
HETATM   30  C13 UNK     1      28.387  -8.934  30.942  1.00  0.00     0.013 A 
ENDBRANCH  22  23
ENDBRANCH   2  22
TORSDOF 6
ENDMDL
MODEL 10
REMARK VINA RESULT:      -8.1      2.997      4.321
REMARK  6 active torsions:
REMARK  status: ('A' for Active; 'I' for Inactive)
REMARK    1  A    between atoms: C17_24  and  O2_4 
REMARK    2  A    between atoms: C22_29  and  O2_4 
REMARK    3  A    between atoms: C5_12  and  N1_6 
REMARK    4  A    between atoms: C6_13  and  N2_7 
REMARK    5  A    between atoms: C5_12  and  C7_14 
REMARK    6  A    between atoms: C6_13  and  C8_15 
ROOT
HETATM    1  N1  UNK     1      17.235   6.222  33.120  1.00  0.00     0.096 N 
HETATM    2  N2  UNK     1      15.700   8.672  33.155  1.00  0.00     0.096 N 
HETATM    3  C1  UNK     1      16.751   6.800  34.380  1.00  0.00     0.303 C 
HETATM    4  C2  UNK     1      17.461   7.278  32.126  1.00  0.00     0.303 C 
HETATM    5  C3  UNK     1      15.474   7.617  34.151  1.00  0.00     0.303 C 
HETATM    6  C4  UNK     1      16.185   8.094  31.896  1.00  0.00     0.303 C 
ENDROOT
BRANCH   1   7
HETATM    7  C5  UNK     1      18.452   5.446  33.340  1.00  0.00     0.312 C 
BRANCH   7   8
HETATM    8  C7  UNK     1      18.386   4.102  32.700  1.00  0.00    -0.011 A 
HETATM    9  C10 UNK     1      18.306   3.973  31.368  1.00  0.00     0.092 A 
HETATM   10  C15 UNK     1      18.238   2.668  30.691  1.00  0.00     0.288 A 
HETATM   11  O1  UNK     1      18.261   1.543  31.501  1.00  0.00    -0.275 OA
HETATM   12  O3  UNK     1      18.166   2.588  29.470  1.00  0.00    -0.260 OA
HETATM   13  C11 UNK     1      18.344   1.648  32.905  1.00  0.00     0.090 A 
HETATM   14  C9  UNK     1      18.407   2.892  33.533  1.00  0.00     0.009 A 
HETATM   15  C16 UNK     1      18.360   0.448  33.621  1.00  0.00     0.041 A 
HETATM   16  C14 UNK     1      18.488   2.910  34.932  1.00  0.00     0.051 A 
HETATM   17  C17 UNK     1      18.503   1.717  35.663  1.00  0.00     0.069 A 
HETATM   18  C20 UNK     1      18.439   0.488  35.008  1.00  0.00     0.039 A 
BRANCH  17  19
HETATM   19  O2  UNK     1      18.581   1.757  37.023  1.00  0.00    -0.351 OA
BRANCH  19  20
HETATM   20  C22 UNK     1      17.644   0.965  37.749  1.00  0.00     0.171 C 
HETATM   21  C23 UNK     1      16.249   1.500  37.500  1.00  0.00     0.034 C 
ENDBRANCH  19  20
ENDBRANCH  17  19
ENDBRANCH   7   8
ENDBRANCH   1   7
BRANCH   2  22
HETATM   22  C6  UNK     1      14.480   9.448  32.935  1.00  0.00     0.312 C 
BRANCH  22  23
HETATM   23  C8  UNK     1      14.627  10.870  33.406  1.00  0.00    -0.008 A 
HETATM   24  C12 UNK     1      13.578  11.785  33.310  1.00  0.00     0.045 A 
HETATM   25 Cl1  UNK     1      12.052  11.333  32.643  1.00  0.00    -0.084 Cl
HETATM   26  C18 UNK     1      13.752  13.095  33.757  1.00  0.00     0.066 A 
HETATM   27  C21 UNK     1      14.975  13.489  34.301  1.00  0.00     0.118 A 
HETATM   28  C19 UNK     1      16.024  12.575  34.396  1.00  0.00     0.043 A 
HETATM   29  F1  UNK     1      15.143  14.747  34.730  1.00  0.00    -0.206 F 
HETATM   30  C13 UNK     1      15.850  11.265  33.949  1.00  0.00     0.013 A 
ENDBRANCH  22  23
ENDBRANCH   2  22
TORSDOF 6
ENDMDL
