MODEL 1
REMARK VINA RESULT:      -8.7      0.000      0.000
REMARK  6 active torsions:
REMARK  status: ('A' for Active; 'I' for Inactive)
REMARK    1  A    between atoms: C21_28  and  O3_3 
REMARK    2  A    between atoms: C23_30  and  O3_3 
REMARK       I    between atoms: C11_18  and  N1_5 
REMARK    3  A    between atoms: C8_15  and  N2_6 
REMARK    4  A    between atoms: C13_20  and  N3_7 
REMARK    5  A    between atoms: C11_18  and  C8_15 
REMARK    6  A    between atoms: C13_20  and  C14_21 
ROOT
HETATM    1  N2  UNK     1      26.239  -8.382  38.310  1.00  0.00     0.100 N 
HETATM    2  N3  UNK     1      23.776  -9.390  37.180  1.00  0.00     0.096 N 
HETATM    3  C6  UNK     1      26.194  -9.671  37.608  1.00  0.00     0.303 C 
HETATM    4  C7  UNK     1      24.940  -8.092  38.931  1.00  0.00     0.303 C 
HETATM    5  C9  UNK     1      25.074  -9.682  36.561  1.00  0.00     0.303 C 
HETATM    6  C10 UNK     1      23.821  -8.102  37.884  1.00  0.00     0.303 C 
ENDROOT
BRANCH   2   7
HETATM    7  C13 UNK     1      22.710  -9.398  36.180  1.00  0.00     0.312 C 
BRANCH   7   8
HETATM    8  C14 UNK     1      21.358  -9.479  36.798  1.00  0.00    -0.011 A 
HETATM    9  C15 UNK     1      20.458  -8.319  36.746  1.00  0.00     0.009 A 
HETATM   10  C17 UNK     1      19.197  -8.425  37.336  1.00  0.00     0.090 A 
HETATM   11  C18 UNK     1      20.790  -7.102  36.137  1.00  0.00     0.051 A 
HETATM   12  O2  UNK     1      18.786  -9.614  37.969  1.00  0.00    -0.275 OA
HETATM   13  C20 UNK     1      18.281  -7.372  37.331  1.00  0.00     0.041 A 
HETATM   14  C19 UNK     1      19.613 -10.726  38.032  1.00  0.00     0.288 A 
HETATM   15  C16 UNK     1      20.940 -10.598  37.407  1.00  0.00     0.092 A 
HETATM   16  O4  UNK     1      19.266 -11.765  38.581  1.00  0.00    -0.260 OA
HETATM   17  C22 UNK     1      18.630  -6.172  36.721  1.00  0.00     0.039 A 
HETATM   18  C21 UNK     1      19.882  -6.037  36.123  1.00  0.00     0.069 A 
BRANCH  18  19
HETATM   19  O3  UNK     1      20.224  -4.863  35.525  1.00  0.00    -0.351 OA
BRANCH  19  20
HETATM   20  C23 UNK     1      19.929  -3.662  36.236  1.00  0.00     0.171 C 
HETATM   21  C24 UNK     1      20.232  -2.475  35.347  1.00  0.00     0.034 C 
ENDBRANCH  19  20
ENDBRANCH  18  19
ENDBRANCH   7   8
ENDBRANCH   2   7
BRANCH   1  22
HETATM   22  C8  UNK     1      27.305  -8.372  39.309  1.00  0.00     0.374 C 
BRANCH  22  23
HETATM   23  C11 UNK     1      28.285  -7.254  39.060  1.00  0.00     0.248 C 
HETATM   24  O1  UNK     1      28.001  -6.113  39.432  1.00  0.00    -0.271 OA
HETATM   25  N1  UNK     1      29.481  -7.595  38.419  1.00  0.00    -0.346 N 
HETATM   26  C1  UNK     1      29.763  -8.919  37.819  1.00  0.00     0.083 C 
HETATM   27  C3  UNK     1      30.470  -6.541  38.163  1.00  0.00     0.126 C 
HETATM   28  C2  UNK     1      31.204  -9.367  38.112  1.00  0.00     0.025 C 
HETATM   29  C12 UNK     1      29.451  -8.917  36.320  1.00  0.00     0.032 C 
HETATM   30  C4  UNK     1      32.237  -8.292  37.790  1.00  0.00     0.004 C 
HETATM   31  C5  UNK     1      31.887  -6.991  38.500  1.00  0.00     0.020 C 
ENDBRANCH  22  23
ENDBRANCH   1  22
TORSDOF 6
ENDMDL
MODEL 2
REMARK VINA RESULT:      -8.5     32.666     34.509
REMARK  6 active torsions:
REMARK  status: ('A' for Active; 'I' for Inactive)
REMARK    1  A    between atoms: C21_28  and  O3_3 
REMARK    2  A    between atoms: C23_30  and  O3_3 
REMARK       I    between atoms: C11_18  and  N1_5 
REMARK    3  A    between atoms: C8_15  and  N2_6 
REMARK    4  A    between atoms: C13_20  and  N3_7 
REMARK    5  A    between atoms: C11_18  and  C8_15 
REMARK    6  A    between atoms: C13_20  and  C14_21 
ROOT
HETATM    1  N2  UNK     1      12.051   6.151   7.468  1.00  0.00     0.100 N 
HETATM    2  N3  UNK     1       9.259   6.156   8.218  1.00  0.00     0.096 N 
HETATM    3  C6  UNK     1      11.641   6.136   8.878  1.00  0.00     0.303 C 
HETATM    4  C7  UNK     1      11.043   6.835   6.649  1.00  0.00     0.303 C 
HETATM    5  C9  UNK     1      10.268   5.473   9.039  1.00  0.00     0.303 C 
HETATM    6  C10 UNK     1       9.670   6.172   6.809  1.00  0.00     0.303 C 
ENDROOT
BRANCH   2   7
HETATM    7  C13 UNK     1       7.951   5.521   8.371  1.00  0.00     0.312 C 
BRANCH   7   8
HETATM    8  C14 UNK     1       7.268   5.935   9.627  1.00  0.00    -0.011 A 
HETATM    9  C15 UNK     1       6.498   4.952  10.401  1.00  0.00     0.009 A 
HETATM   10  C17 UNK     1       5.868   5.370  11.575  1.00  0.00     0.090 A 
HETATM   11  C18 UNK     1       6.356   3.608  10.031  1.00  0.00     0.051 A 
HETATM   12  O2  UNK     1       5.963   6.705  12.016  1.00  0.00    -0.275 OA
HETATM   13  C20 UNK     1       5.118   4.501  12.369  1.00  0.00     0.041 A 
HETATM   14  C19 UNK     1       6.683   7.654  11.308  1.00  0.00     0.288 A 
HETATM   15  C16 UNK     1       7.341   7.198  10.072  1.00  0.00     0.092 A 
HETATM   16  O4  UNK     1       6.772   8.817  11.683  1.00  0.00    -0.260 OA
HETATM   17  C22 UNK     1       4.988   3.171  11.984  1.00  0.00     0.039 A 
HETATM   18  C21 UNK     1       5.607   2.725  10.817  1.00  0.00     0.069 A 
BRANCH  18  19
HETATM   19  O3  UNK     1       5.482   1.422  10.440  1.00  0.00    -0.351 OA
BRANCH  19  20
HETATM   20  C23 UNK     1       5.135   1.172   9.079  1.00  0.00     0.171 C 
HETATM   21  C24 UNK     1       4.740  -0.282   8.930  1.00  0.00     0.034 C 
ENDBRANCH  19  20
ENDBRANCH  18  19
ENDBRANCH   7   8
ENDBRANCH   2   7
BRANCH   1  22
HETATM   22  C8  UNK     1      13.359   6.783   7.315  1.00  0.00     0.374 C 
BRANCH  22  23
HETATM   23  C11 UNK     1      14.351   6.251   8.320  1.00  0.00     0.248 C 
HETATM   24  O1  UNK     1      14.596   5.042   8.338  1.00  0.00    -0.271 OA
HETATM   25  N1  UNK     1      14.945   7.185   9.175  1.00  0.00    -0.346 N 
HETATM   26  C1  UNK     1      14.539   8.605   9.279  1.00  0.00     0.083 C 
HETATM   27  C3  UNK     1      15.924   6.715  10.163  1.00  0.00     0.126 C 
HETATM   28  C2  UNK     1      15.763   9.527   9.394  1.00  0.00     0.025 C 
HETATM   29  C12 UNK     1      13.552   8.807  10.431  1.00  0.00     0.032 C 
HETATM   30  C4  UNK     1      16.751   9.071  10.463  1.00  0.00     0.004 C 
HETATM   31  C5  UNK     1      17.149   7.619  10.232  1.00  0.00     0.020 C 
ENDBRANCH  22  23
ENDBRANCH   1  22
TORSDOF 6
ENDMDL
MODEL 3
REMARK VINA RESULT:      -8.5      2.514      4.927
REMARK  6 active torsions:
REMARK  status: ('A' for Active; 'I' for Inactive)
REMARK    1  A    between atoms: C21_28  and  O3_3 
REMARK    2  A    between atoms: C23_30  and  O3_3 
REMARK       I    between atoms: C11_18  and  N1_5 
REMARK    3  A    between atoms: C8_15  and  N2_6 
REMARK    4  A    between atoms: C13_20  and  N3_7 
REMARK    5  A    between atoms: C11_18  and  C8_15 
REMARK    6  A    between atoms: C13_20  and  C14_21 
ROOT
HETATM    1  N2  UNK     1      28.774  -7.919  37.514  1.00  0.00     0.100 N 
HETATM    2  N3  UNK     1      25.936  -8.100  38.033  1.00  0.00     0.096 N 
HETATM    3  C6  UNK     1      27.919  -6.725  37.503  1.00  0.00     0.303 C 
HETATM    4  C7  UNK     1      28.001  -9.104  37.122  1.00  0.00     0.303 C 
HETATM    5  C9  UNK     1      26.707  -6.913  38.423  1.00  0.00     0.303 C 
HETATM    6  C10 UNK     1      26.790  -9.294  38.042  1.00  0.00     0.303 C 
ENDROOT
BRANCH   2   7
HETATM    7  C13 UNK     1      24.782  -8.280  38.913  1.00  0.00     0.312 C 
BRANCH   7   8
HETATM    8  C14 UNK     1      23.508  -7.868  38.261  1.00  0.00    -0.011 A 
HETATM    9  C15 UNK     1      22.925  -8.700  37.200  1.00  0.00     0.009 A 
HETATM   10  C17 UNK     1      21.730  -8.288  36.608  1.00  0.00     0.090 A 
HETATM   11  C18 UNK     1      23.500  -9.892  36.740  1.00  0.00     0.051 A 
HETATM   12  O2  UNK     1      21.088  -7.101  37.013  1.00  0.00    -0.275 OA
HETATM   13  C20 UNK     1      21.109  -9.018  35.594  1.00  0.00     0.041 A 
HETATM   14  C19 UNK     1      21.613  -6.297  38.014  1.00  0.00     0.288 A 
HETATM   15  C16 UNK     1      22.875  -6.745  38.627  1.00  0.00     0.092 A 
HETATM   16  O4  UNK     1      21.063  -5.263  38.374  1.00  0.00    -0.260 OA
HETATM   17  C22 UNK     1      21.696 -10.199  35.151  1.00  0.00     0.039 A 
HETATM   18  C21 UNK     1      22.889 -10.636  35.724  1.00  0.00     0.069 A 
BRANCH  18  19
HETATM   19  O3  UNK     1      23.464 -11.793  35.292  1.00  0.00    -0.351 OA
BRANCH  19  20
HETATM   20  C23 UNK     1      24.668 -12.199  35.940  1.00  0.00     0.171 C 
HETATM   21  C24 UNK     1      24.685 -13.709  36.047  1.00  0.00     0.034 C 
ENDBRANCH  19  20
ENDBRANCH  18  19
ENDBRANCH   7   8
ENDBRANCH   2   7
BRANCH   1  22
HETATM   22  C8  UNK     1      29.928  -7.738  36.636  1.00  0.00     0.374 C 
BRANCH  22  23
HETATM   23  C11 UNK     1      31.213  -7.661  37.422  1.00  0.00     0.248 C 
HETATM   24  O1  UNK     1      31.433  -8.503  38.296  1.00  0.00    -0.271 OA
HETATM   25  N1  UNK     1      32.091  -6.622  37.094  1.00  0.00    -0.346 N 
HETATM   26  C1  UNK     1      31.768  -5.510  36.171  1.00  0.00     0.083 C 
HETATM   27  C3  UNK     1      33.359  -6.513  37.826  1.00  0.00     0.126 C 
HETATM   28  C2  UNK     1      32.960  -5.182  35.257  1.00  0.00     0.025 C 
HETATM   29  C12 UNK     1      31.277  -4.284  36.944  1.00  0.00     0.032 C 
HETATM   30  C4  UNK     1      34.266  -5.009  36.025  1.00  0.00     0.004 C 
HETATM   31  C5  UNK     1      34.534  -6.229  36.898  1.00  0.00     0.020 C 
ENDBRANCH  22  23
ENDBRANCH   1  22
TORSDOF 6
ENDMDL
MODEL 4
REMARK VINA RESULT:      -8.3      2.815      4.313
REMARK  6 active torsions:
REMARK  status: ('A' for Active; 'I' for Inactive)
REMARK    1  A    between atoms: C21_28  and  O3_3 
REMARK    2  A    between atoms: C23_30  and  O3_3 
REMARK       I    between atoms: C11_18  and  N1_5 
REMARK    3  A    between atoms: C8_15  and  N2_6 
REMARK    4  A    between atoms: C13_20  and  N3_7 
REMARK    5  A    between atoms: C11_18  and  C8_15 
REMARK    6  A    between atoms: C13_20  and  C14_21 
ROOT
HETATM    1  N2  UNK     1      29.920  -8.555  36.942  1.00  0.00     0.100 N 
HETATM    2  N3  UNK     1      27.144  -9.339  37.137  1.00  0.00     0.096 N 
HETATM    3  C6  UNK     1      29.047  -8.568  35.761  1.00  0.00     0.303 C 
HETATM    4  C7  UNK     1      29.478  -9.561  37.916  1.00  0.00     0.303 C 
HETATM    5  C9  UNK     1      27.585  -8.335  36.161  1.00  0.00     0.303 C 
HETATM    6  C10 UNK     1      28.017  -9.327  38.317  1.00  0.00     0.303 C 
ENDROOT
BRANCH   2   7
HETATM    7  C13 UNK     1      25.751  -9.112  37.520  1.00  0.00     0.312 C 
BRANCH   7   8
HETATM    8  C14 UNK     1      24.815 -10.017  36.797  1.00  0.00    -0.011 A 
HETATM    9  C15 UNK     1      23.418  -9.613  36.590  1.00  0.00     0.009 A 
HETATM   10  C17 UNK     1      22.564 -10.482  35.909  1.00  0.00     0.090 A 
HETATM   11  C18 UNK     1      22.885  -8.397  37.038  1.00  0.00     0.051 A 
HETATM   12  O2  UNK     1      23.022 -11.724  35.426  1.00  0.00    -0.275 OA
HETATM   13  C20 UNK     1      21.223 -10.176  35.669  1.00  0.00     0.041 A 
HETATM   14  C19 UNK     1      24.336 -12.132  35.605  1.00  0.00     0.288 A 
HETATM   15  C16 UNK     1      25.223 -11.204  36.326  1.00  0.00     0.092 A 
HETATM   16  O4  UNK     1      24.745 -13.210  35.189  1.00  0.00    -0.260 OA
HETATM   17  C22 UNK     1      20.713  -8.964  36.122  1.00  0.00     0.039 A 
HETATM   18  C21 UNK     1      21.542  -8.075  36.804  1.00  0.00     0.069 A 
BRANCH  18  19
HETATM   19  O3  UNK     1      21.044  -6.887  37.247  1.00  0.00    -0.351 OA
BRANCH  19  20
HETATM   20  C23 UNK     1      19.823  -6.931  37.984  1.00  0.00     0.171 C 
HETATM   21  C24 UNK     1      20.122  -7.345  39.409  1.00  0.00     0.034 C 
ENDBRANCH  19  20
ENDBRANCH  18  19
ENDBRANCH   7   8
ENDBRANCH   2   7
BRANCH   1  22
HETATM   22  C8  UNK     1      31.312  -8.780  36.560  1.00  0.00     0.374 C 
BRANCH  22  23
HETATM   23  C11 UNK     1      32.245  -7.862  37.310  1.00  0.00     0.248 C 
HETATM   24  O1  UNK     1      32.402  -8.028  38.522  1.00  0.00    -0.271 OA
HETATM   25  N1  UNK     1      32.891  -6.871  36.563  1.00  0.00    -0.346 N 
HETATM   26  C1  UNK     1      32.587  -6.555  35.149  1.00  0.00     0.083 C 
HETATM   27  C3  UNK     1      33.817  -5.962  37.249  1.00  0.00     0.126 C 
HETATM   28  C2  UNK     1      33.873  -6.294  34.348  1.00  0.00     0.025 C 
HETATM   29  C12 UNK     1      31.598  -5.391  35.051  1.00  0.00     0.032 C 
HETATM   30  C4  UNK     1      34.807  -5.302  35.033  1.00  0.00     0.004 C 
HETATM   31  C5  UNK     1      35.102  -5.749  36.459  1.00  0.00     0.020 C 
ENDBRANCH  22  23
ENDBRANCH   1  22
TORSDOF 6
ENDMDL
MODEL 5
REMARK VINA RESULT:      -8.2      6.191      9.202
REMARK  6 active torsions:
REMARK  status: ('A' for Active; 'I' for Inactive)
REMARK    1  A    between atoms: C21_28  and  O3_3 
REMARK    2  A    between atoms: C23_30  and  O3_3 
REMARK       I    between atoms: C11_18  and  N1_5 
REMARK    3  A    between atoms: C8_15  and  N2_6 
REMARK    4  A    between atoms: C13_20  and  N3_7 
REMARK    5  A    between atoms: C11_18  and  C8_15 
REMARK    6  A    between atoms: C13_20  and  C14_21 
ROOT
HETATM    1  N2  UNK     1      31.310  -9.776  33.319  1.00  0.00     0.100 N 
HETATM    2  N3  UNK     1      31.023  -9.143  36.126  1.00  0.00     0.096 N 
HETATM    3  C6  UNK     1      32.461  -9.355  34.127  1.00  0.00     0.303 C 
HETATM    4  C7  UNK     1      30.073  -9.186  33.846  1.00  0.00     0.303 C 
HETATM    5  C9  UNK     1      32.261  -9.731  35.600  1.00  0.00     0.303 C 
HETATM    6  C10 UNK     1      29.871  -9.563  35.317  1.00  0.00     0.303 C 
ENDROOT
BRANCH   2   7
HETATM    7  C13 UNK     1      30.832  -9.505  37.529  1.00  0.00     0.312 C 
BRANCH   7   8
HETATM    8  C14 UNK     1      29.781  -8.679  38.185  1.00  0.00    -0.011 A 
HETATM    9  C15 UNK     1      29.971  -7.230  38.328  1.00  0.00     0.009 A 
HETATM   10  C17 UNK     1      28.968  -6.482  38.948  1.00  0.00     0.090 A 
HETATM   11  C18 UNK     1      31.107  -6.544  37.877  1.00  0.00     0.051 A 
HETATM   12  O2  UNK     1      27.794  -7.095  39.429  1.00  0.00    -0.275 OA
HETATM   13  C20 UNK     1      29.068  -5.101  39.124  1.00  0.00     0.041 A 
HETATM   14  C19 UNK     1      27.587  -8.461  39.307  1.00  0.00     0.288 A 
HETATM   15  C16 UNK     1      28.654  -9.235  38.652  1.00  0.00     0.092 A 
HETATM   16  O4  UNK     1      26.570  -9.004  39.722  1.00  0.00    -0.260 OA
HETATM   17  C22 UNK     1      30.203  -4.439  38.670  1.00  0.00     0.039 A 
HETATM   18  C21 UNK     1      31.221  -5.159  38.046  1.00  0.00     0.069 A 
BRANCH  18  19
HETATM   19  O3  UNK     1      32.333  -4.512  37.600  1.00  0.00    -0.351 OA
BRANCH  19  20
HETATM   20  C23 UNK     1      32.164  -3.612  36.507  1.00  0.00     0.171 C 
HETATM   21  C24 UNK     1      32.524  -4.324  35.221  1.00  0.00     0.034 C 
ENDBRANCH  19  20
ENDBRANCH  18  19
ENDBRANCH   7   8
ENDBRANCH   2   7
BRANCH   1  22
HETATM   22  C8  UNK     1      31.501  -9.416  31.916  1.00  0.00     0.374 C 
BRANCH  22  23
HETATM   23  C11 UNK     1      30.263  -9.697  31.101  1.00  0.00     0.248 C 
HETATM   24  O1  UNK     1      29.932 -10.867  30.897  1.00  0.00    -0.271 OA
HETATM   25  N1  UNK     1      29.553  -8.587  30.630  1.00  0.00    -0.346 N 
HETATM   26  C1  UNK     1      30.027  -7.187  30.723  1.00  0.00     0.083 C 
HETATM   27  C3  UNK     1      28.336  -8.811  29.841  1.00  0.00     0.126 C 
HETATM   28  C2  UNK     1      28.881  -6.237  31.106  1.00  0.00     0.025 C 
HETATM   29  C12 UNK     1      30.725  -6.760  29.429  1.00  0.00     0.032 C 
HETATM   30  C4  UNK     1      27.637  -6.429  30.245  1.00  0.00     0.004 C 
HETATM   31  C5  UNK     1      27.200  -7.888  30.264  1.00  0.00     0.020 C 
ENDBRANCH  22  23
ENDBRANCH   1  22
TORSDOF 6
ENDMDL
MODEL 6
REMARK VINA RESULT:      -8.2      6.972     12.220
REMARK  6 active torsions:
REMARK  status: ('A' for Active; 'I' for Inactive)
REMARK    1  A    between atoms: C21_28  and  O3_3 
REMARK    2  A    between atoms: C23_30  and  O3_3 
REMARK       I    between atoms: C11_18  and  N1_5 
REMARK    3  A    between atoms: C8_15  and  N2_6 
REMARK    4  A    between atoms: C13_20  and  N3_7 
REMARK    5  A    between atoms: C11_18  and  C8_15 
REMARK    6  A    between atoms: C13_20  and  C14_21 
ROOT
HETATM    1  N2  UNK     1      18.554  -1.672  36.290  1.00  0.00     0.100 N 
HETATM    2  N3  UNK     1      17.954   0.787  34.893  1.00  0.00     0.096 N 
HETATM    3  C6  UNK     1      19.247  -1.313  35.046  1.00  0.00     0.303 C 
HETATM    4  C7  UNK     1      17.204  -1.095  36.309  1.00  0.00     0.303 C 
HETATM    5  C9  UNK     1      19.303   0.209  34.873  1.00  0.00     0.303 C 
HETATM    6  C10 UNK     1      17.260   0.427  36.136  1.00  0.00     0.303 C 
ENDROOT
BRANCH   2   7
HETATM    7  C13 UNK     1      18.009   2.239  34.731  1.00  0.00     0.312 C 
BRANCH   7   8
HETATM    8  C14 UNK     1      18.193   2.639  33.308  1.00  0.00    -0.011 A 
HETATM    9  C15 UNK     1      18.336   4.059  32.959  1.00  0.00     0.009 A 
HETATM   10  C17 UNK     1      18.507   4.403  31.617  1.00  0.00     0.090 A 
HETATM   11  C18 UNK     1      18.310   5.098  33.898  1.00  0.00     0.051 A 
HETATM   12  O2  UNK     1      18.545   3.417  30.611  1.00  0.00    -0.275 OA
HETATM   13  C20 UNK     1      18.650   5.727  31.199  1.00  0.00     0.041 A 
HETATM   14  C19 UNK     1      18.415   2.069  30.911  1.00  0.00     0.288 A 
HETATM   15  C16 UNK     1      18.234   1.723  32.330  1.00  0.00     0.092 A 
HETATM   16  O4  UNK     1      18.446   1.204  30.044  1.00  0.00    -0.260 OA
HETATM   17  C22 UNK     1      18.621   6.745  32.147  1.00  0.00     0.039 A 
HETATM   18  C21 UNK     1      18.452   6.431  33.495  1.00  0.00     0.069 A 
BRANCH  18  19
HETATM   19  O3  UNK     1      18.425   7.426  34.424  1.00  0.00    -0.351 OA
BRANCH  19  20
HETATM   20  C23 UNK     1      18.737   8.743  33.972  1.00  0.00     0.171 C 
HETATM   21  C24 UNK     1      20.080   9.152  34.536  1.00  0.00     0.034 C 
ENDBRANCH  19  20
ENDBRANCH  18  19
ENDBRANCH   7   8
ENDBRANCH   2   7
BRANCH   1  22
HETATM   22  C8  UNK     1      18.500  -3.123  36.454  1.00  0.00     0.374 C 
BRANCH  22  23
HETATM   23  C11 UNK     1      19.707  -3.640  37.196  1.00  0.00     0.248 C 
HETATM   24  O1  UNK     1      20.526  -2.834  37.646  1.00  0.00    -0.271 OA
HETATM   25  N1  UNK     1      19.815  -5.028  37.337  1.00  0.00    -0.346 N 
HETATM   26  C1  UNK     1      18.935  -6.010  36.662  1.00  0.00     0.083 C 
HETATM   27  C3  UNK     1      20.967  -5.577  38.061  1.00  0.00     0.126 C 
HETATM   28  C2  UNK     1      18.555  -7.159  37.610  1.00  0.00     0.025 C 
HETATM   29  C12 UNK     1      19.574  -6.515  35.367  1.00  0.00     0.032 C 
HETATM   30  C4  UNK     1      19.761  -7.769  38.317  1.00  0.00     0.004 C 
HETATM   31  C5  UNK     1      20.564  -6.686  39.025  1.00  0.00     0.020 C 
ENDBRANCH  22  23
ENDBRANCH   1  22
TORSDOF 6
ENDMDL
MODEL 7
REMARK VINA RESULT:      -8.1      3.874      5.359
REMARK  6 active torsions:
REMARK  status: ('A' for Active; 'I' for Inactive)
REMARK    1  A    between atoms: C21_28  and  O3_3 
REMARK    2  A    between atoms: C23_30  and  O3_3 
REMARK       I    between atoms: C11_18  and  N1_5 
REMARK    3  A    between atoms: C8_15  and  N2_6 
REMARK    4  A    between atoms: C13_20  and  N3_7 
REMARK    5  A    between atoms: C11_18  and  C8_15 
REMARK    6  A    between atoms: C13_20  and  C14_21 
ROOT
HETATM    1  N2  UNK     1      29.120  -7.259  35.645  1.00  0.00     0.100 N 
HETATM    2  N3  UNK     1      26.849  -8.716  36.683  1.00  0.00     0.096 N 
HETATM    3  C6  UNK     1      28.240  -6.674  36.665  1.00  0.00     0.303 C 
HETATM    4  C7  UNK     1      28.372  -8.205  34.806  1.00  0.00     0.303 C 
HETATM    5  C9  UNK     1      27.594  -7.769  37.521  1.00  0.00     0.303 C 
HETATM    6  C10 UNK     1      27.727  -9.301  35.662  1.00  0.00     0.303 C 
ENDROOT
BRANCH   2   7
HETATM    7  C13 UNK     1      26.237  -9.762  37.501  1.00  0.00     0.312 C 
BRANCH   7   8
HETATM    8  C14 UNK     1      25.152 -10.481  36.776  1.00  0.00    -0.011 A 
HETATM    9  C15 UNK     1      23.825  -9.865  36.645  1.00  0.00     0.009 A 
HETATM   10  C17 UNK     1      22.829 -10.563  35.960  1.00  0.00     0.090 A 
HETATM   11  C18 UNK     1      23.494  -8.608  37.169  1.00  0.00     0.051 A 
HETATM   12  O2  UNK     1      23.081 -11.833  35.403  1.00  0.00    -0.275 OA
HETATM   13  C20 UNK     1      21.542 -10.051  35.789  1.00  0.00     0.041 A 
HETATM   14  C19 UNK     1      24.325 -12.438  35.509  1.00  0.00     0.288 A 
HETATM   15  C16 UNK     1      25.364 -11.689  36.235  1.00  0.00     0.092 A 
HETATM   16  O4  UNK     1      24.555 -13.542  35.028  1.00  0.00    -0.260 OA
HETATM   17  C22 UNK     1      21.233  -8.802  36.317  1.00  0.00     0.039 A 
HETATM   18  C21 UNK     1      22.208  -8.081  37.005  1.00  0.00     0.069 A 
BRANCH  18  19
HETATM   19  O3  UNK     1      21.907  -6.858  37.522  1.00  0.00    -0.351 OA
BRANCH  19  20
HETATM   20  C23 UNK     1      20.530  -6.580  37.769  1.00  0.00     0.171 C 
HETATM   21  C24 UNK     1      20.269  -6.665  39.258  1.00  0.00     0.034 C 
ENDBRANCH  19  20
ENDBRANCH  18  19
ENDBRANCH   7   8
ENDBRANCH   2   7
BRANCH   1  22
HETATM   22  C8  UNK     1      29.733  -6.215  34.828  1.00  0.00     0.374 C 
BRANCH  22  23
HETATM   23  C11 UNK     1      30.712  -6.793  33.836  1.00  0.00     0.248 C 
HETATM   24  O1  UNK     1      31.716  -7.375  34.254  1.00  0.00    -0.271 OA
HETATM   25  N1  UNK     1      30.403  -6.636  32.481  1.00  0.00    -0.346 N 
HETATM   26  C1  UNK     1      29.296  -5.798  31.964  1.00  0.00     0.083 C 
HETATM   27  C3  UNK     1      31.321  -7.191  31.479  1.00  0.00     0.126 C 
HETATM   28  C2  UNK     1      28.566  -6.495  30.805  1.00  0.00     0.025 C 
HETATM   29  C12 UNK     1      29.800  -4.406  31.577  1.00  0.00     0.032 C 
HETATM   30  C4  UNK     1      29.517  -7.019  29.734  1.00  0.00     0.004 C 
HETATM   31  C5  UNK     1      30.580  -7.913  30.360  1.00  0.00     0.020 C 
ENDBRANCH  22  23
ENDBRANCH   1  22
TORSDOF 6
ENDMDL
MODEL 8
REMARK VINA RESULT:      -8.1      5.236      8.820
REMARK  6 active torsions:
REMARK  status: ('A' for Active; 'I' for Inactive)
REMARK    1  A    between atoms: C21_28  and  O3_3 
REMARK    2  A    between atoms: C23_30  and  O3_3 
REMARK       I    between atoms: C11_18  and  N1_5 
REMARK    3  A    between atoms: C8_15  and  N2_6 
REMARK    4  A    between atoms: C13_20  and  N3_7 
REMARK    5  A    between atoms: C11_18  and  C8_15 
REMARK    6  A    between atoms: C13_20  and  C14_21 
ROOT
HETATM    1  N2  UNK     1      31.564  -7.515  33.566  1.00  0.00     0.100 N 
HETATM    2  N3  UNK     1      31.613  -7.337  36.452  1.00  0.00     0.096 N 
HETATM    3  C6  UNK     1      32.719  -7.989  34.340  1.00  0.00     0.303 C 
HETATM    4  C7  UNK     1      30.888  -6.421  34.274  1.00  0.00     0.303 C 
HETATM    5  C9  UNK     1      32.290  -8.430  35.745  1.00  0.00     0.303 C 
HETATM    6  C10 UNK     1      30.459  -6.862  35.678  1.00  0.00     0.303 C 
ENDROOT
BRANCH   2   7
HETATM    7  C13 UNK     1      31.202  -7.760  37.789  1.00  0.00     0.312 C 
BRANCH   7   8
HETATM    8  C14 UNK     1      30.110  -6.909  38.338  1.00  0.00    -0.011 A 
HETATM    9  C15 UNK     1      28.739  -7.430  38.408  1.00  0.00     0.009 A 
HETATM   10  C17 UNK     1      27.737  -6.608  38.927  1.00  0.00     0.090 A 
HETATM   11  C18 UNK     1      28.370  -8.712  37.981  1.00  0.00     0.051 A 
HETATM   12  O2  UNK     1      28.025  -5.305  39.378  1.00  0.00    -0.275 OA
HETATM   13  C20 UNK     1      26.408  -7.024  39.029  1.00  0.00     0.041 A 
HETATM   14  C19 UNK     1      29.310  -4.787  39.327  1.00  0.00     0.288 A 
HETATM   15  C16 UNK     1      30.355  -5.665  38.776  1.00  0.00     0.092 A 
HETATM   16  O4  UNK     1      29.572  -3.654  39.717  1.00  0.00    -0.260 OA
HETATM   17  C22 UNK     1      26.063  -8.301  38.600  1.00  0.00     0.039 A 
HETATM   18  C21 UNK     1      27.042  -9.145  38.077  1.00  0.00     0.069 A 
BRANCH  18  19
HETATM   19  O3  UNK     1      26.705 -10.396  37.657  1.00  0.00    -0.351 OA
BRANCH  19  20
HETATM   20  C23 UNK     1      26.153 -10.513  36.347  1.00  0.00     0.171 C 
HETATM   21  C24 UNK     1      25.284 -11.750  36.287  1.00  0.00     0.034 C 
ENDBRANCH  19  20
ENDBRANCH  18  19
ENDBRANCH   7   8
ENDBRANCH   2   7
BRANCH   1  22
HETATM   22  C8  UNK     1      31.974  -7.094  32.229  1.00  0.00     0.374 C 
BRANCH  22  23
HETATM   23  C11 UNK     1      31.212  -7.835  31.159  1.00  0.00     0.248 C 
HETATM   24  O1  UNK     1      31.748  -8.793  30.596  1.00  0.00    -0.271 OA
HETATM   25  N1  UNK     1      29.918  -7.385  30.879  1.00  0.00    -0.346 N 
HETATM   26  C1  UNK     1      29.326  -6.141  31.424  1.00  0.00     0.083 C 
HETATM   27  C3  UNK     1      29.134  -8.082  29.852  1.00  0.00     0.126 C 
HETATM   28  C2  UNK     1      27.860  -6.355  31.832  1.00  0.00     0.025 C 
HETATM   29  C12 UNK     1      29.490  -4.982  30.437  1.00  0.00     0.032 C 
HETATM   30  C4  UNK     1      27.032  -7.025  30.741  1.00  0.00     0.004 C 
HETATM   31  C5  UNK     1      27.695  -8.321  30.293  1.00  0.00     0.020 C 
ENDBRANCH  22  23
ENDBRANCH   1  22
TORSDOF 6
ENDMDL
MODEL 9
REMARK VINA RESULT:      -8.1      5.323     10.026
REMARK  6 active torsions:
REMARK  status: ('A' for Active; 'I' for Inactive)
REMARK    1  A    between atoms: C21_28  and  O3_3 
REMARK    2  A    between atoms: C23_30  and  O3_3 
REMARK       I    between atoms: C11_18  and  N1_5 
REMARK    3  A    between atoms: C8_15  and  N2_6 
REMARK    4  A    between atoms: C13_20  and  N3_7 
REMARK    5  A    between atoms: C11_18  and  C8_15 
REMARK    6  A    between atoms: C13_20  and  C14_21 
ROOT
HETATM    1  N2  UNK     1      19.726  -3.586  36.493  1.00  0.00     0.100 N 
HETATM    2  N3  UNK     1      18.932  -1.609  34.539  1.00  0.00     0.096 N 
HETATM    3  C6  UNK     1      20.117  -3.708  35.083  1.00  0.00     0.303 C 
HETATM    4  C7  UNK     1      18.451  -2.867  36.610  1.00  0.00     0.303 C 
HETATM    5  C9  UNK     1      20.206  -2.328  34.421  1.00  0.00     0.303 C 
HETATM    6  C10 UNK     1      18.539  -1.488  35.949  1.00  0.00     0.303 C 
ENDROOT
BRANCH   2   7
HETATM    7  C13 UNK     1      19.019  -0.292  33.910  1.00  0.00     0.312 C 
BRANCH   7   8
HETATM    8  C14 UNK     1      19.296  -0.384  32.449  1.00  0.00    -0.011 A 
HETATM    9  C15 UNK     1      18.991   0.755  31.573  1.00  0.00     0.009 A 
HETATM   10  C17 UNK     1      19.260   0.639  30.208  1.00  0.00     0.090 A 
HETATM   11  C18 UNK     1      18.440   1.961  32.026  1.00  0.00     0.051 A 
HETATM   12  O2  UNK     1      19.814  -0.541  29.673  1.00  0.00    -0.275 OA
HETATM   13  C20 UNK     1      19.002   1.672  29.306  1.00  0.00     0.041 A 
HETATM   14  C19 UNK     1      20.114  -1.631  30.476  1.00  0.00     0.288 A 
HETATM   15  C16 UNK     1      19.822  -1.493  31.913  1.00  0.00     0.092 A 
HETATM   16  O4  UNK     1      20.596  -2.662  30.020  1.00  0.00    -0.260 OA
HETATM   17  C22 UNK     1      18.455   2.862  29.776  1.00  0.00     0.039 A 
HETATM   18  C21 UNK     1      18.176   3.007  31.134  1.00  0.00     0.069 A 
BRANCH  18  19
HETATM   19  O3  UNK     1      17.641   4.172  31.595  1.00  0.00    -0.351 OA
BRANCH  19  20
HETATM   20  C23 UNK     1      18.496   5.019  32.359  1.00  0.00     0.171 C 
HETATM   21  C24 UNK     1      19.044   6.107  31.460  1.00  0.00     0.034 C 
ENDBRANCH  19  20
ENDBRANCH  18  19
ENDBRANCH   7   8
ENDBRANCH   2   7
BRANCH   1  22
HETATM   22  C8  UNK     1      19.640  -4.901  37.123  1.00  0.00     0.374 C 
BRANCH  22  23
HETATM   23  C11 UNK     1      20.997  -5.390  37.567  1.00  0.00     0.248 C 
HETATM   24  O1  UNK     1      21.959  -4.620  37.515  1.00  0.00    -0.271 OA
HETATM   25  N1  UNK     1      21.072  -6.709  38.026  1.00  0.00    -0.346 N 
HETATM   26  C1  UNK     1      19.968  -7.693  37.938  1.00  0.00     0.083 C 
HETATM   27  C3  UNK     1      22.369  -7.227  38.478  1.00  0.00     0.126 C 
HETATM   28  C2  UNK     1      19.865  -8.530  39.223  1.00  0.00     0.025 C 
HETATM   29  C12 UNK     1      20.115  -8.566  36.688  1.00  0.00     0.032 C 
HETATM   30  C4  UNK     1      21.203  -9.117  39.658  1.00  0.00     0.004 C 
HETATM   31  C5  UNK     1      22.251  -8.018  39.775  1.00  0.00     0.020 C 
ENDBRANCH  22  23
ENDBRANCH   1  22
TORSDOF 6
ENDMDL
MODEL 10
REMARK VINA RESULT:      -8.1     31.315     35.550
REMARK  6 active torsions:
REMARK  status: ('A' for Active; 'I' for Inactive)
REMARK    1  A    between atoms: C21_28  and  O3_3 
REMARK    2  A    between atoms: C23_30  and  O3_3 
REMARK       I    between atoms: C11_18  and  N1_5 
REMARK    3  A    between atoms: C8_15  and  N2_6 
REMARK    4  A    between atoms: C13_20  and  N3_7 
REMARK    5  A    between atoms: C11_18  and  C8_15 
REMARK    6  A    between atoms: C13_20  and  C14_21 
ROOT
HETATM    1  N2  UNK     1      14.968   8.604   9.819  1.00  0.00     0.100 N 
HETATM    2  N3  UNK     1      16.735  10.824   9.265  1.00  0.00     0.096 N 
HETATM    3  C6  UNK     1      16.426   8.463   9.927  1.00  0.00     0.303 C 
HETATM    4  C7  UNK     1      14.625   9.620   8.816  1.00  0.00     0.303 C 
HETATM    5  C9  UNK     1      17.079   9.808  10.267  1.00  0.00     0.303 C 
HETATM    6  C10 UNK     1      15.277  10.964   9.156  1.00  0.00     0.303 C 
ENDROOT
BRANCH   2   7
HETATM    7  C13 UNK     1      17.356  12.106   9.592  1.00  0.00     0.312 C 
BRANCH   7   8
HETATM    8  C14 UNK     1      18.568  12.370   8.769  1.00  0.00    -0.011 A 
HETATM    9  C15 UNK     1      19.898  12.338   9.391  1.00  0.00     0.009 A 
HETATM   10  C17 UNK     1      21.016  12.590   8.593  1.00  0.00     0.090 A 
HETATM   11  C18 UNK     1      20.117  12.068  10.748  1.00  0.00     0.051 A 
HETATM   12  O2  UNK     1      20.882  12.870   7.219  1.00  0.00    -0.275 OA
HETATM   13  C20 UNK     1      22.315  12.579   9.104  1.00  0.00     0.041 A 
HETATM   14  C19 UNK     1      19.639  12.906   6.604  1.00  0.00     0.288 A 
HETATM   15  C16 UNK     1      18.471  12.639   7.459  1.00  0.00     0.092 A 
HETATM   16  O4  UNK     1      19.511  13.148   5.409  1.00  0.00    -0.260 OA
HETATM   17  C22 UNK     1      22.511  12.309  10.454  1.00  0.00     0.039 A 
HETATM   18  C21 UNK     1      21.414  12.053  11.275  1.00  0.00     0.069 A 
BRANCH  18  19
HETATM   19  O3  UNK     1      21.605  11.787  12.597  1.00  0.00    -0.351 OA
BRANCH  19  20
HETATM   20  C23 UNK     1      20.912  12.613  13.531  1.00  0.00     0.171 C 
HETATM   21  C24 UNK     1      21.196  12.118  14.932  1.00  0.00     0.034 C 
ENDBRANCH  19  20
ENDBRANCH  18  19
ENDBRANCH   7   8
ENDBRANCH   2   7
BRANCH   1  22
HETATM   22  C8  UNK     1      14.346   7.322   9.494  1.00  0.00     0.374 C 
BRANCH  22  23
HETATM   23  C11 UNK     1      12.861   7.346   9.761  1.00  0.00     0.248 C 
HETATM   24  O1  UNK     1      12.443   7.913  10.773  1.00  0.00    -0.271 OA
HETATM   25  N1  UNK     1      12.042   6.719   8.817  1.00  0.00    -0.346 N 
HETATM   26  C1  UNK     1      12.537   5.893   7.691  1.00  0.00     0.083 C 
HETATM   27  C3  UNK     1      10.589   6.725   9.028  1.00  0.00     0.126 C 
HETATM   28  C2  UNK     1      11.746   6.175   6.404  1.00  0.00     0.025 C 
HETATM   29  C12 UNK     1      12.532   4.408   8.061  1.00  0.00     0.032 C 
HETATM   30  C4  UNK     1      10.236   6.122   6.612  1.00  0.00     0.004 C 
HETATM   31  C5  UNK     1       9.825   7.047   7.750  1.00  0.00     0.020 C 
ENDBRANCH  22  23
ENDBRANCH   1  22
TORSDOF 6
ENDMDL
