MODEL 1
REMARK VINA RESULT:      -9.2      0.000      0.000
REMARK  6 active torsions:
REMARK  status: ('A' for Active; 'I' for Inactive)
REMARK    1  A    between atoms: C5_11  and  N1_5 
REMARK       I    between atoms: C6_12  and  N1_5 
REMARK    2  A    between atoms: C14_20  and  N2_6 
REMARK    3  A    between atoms: C1_7  and  C6_12 
REMARK    4  A    between atoms: C1_7  and  C2_8 
REMARK    5  A    between atoms: C3_9  and  C4_10 
REMARK    6  A    between atoms: C22_28  and  C8_14 
ROOT
HETATM    1  C1  UNK     1      18.363   4.869  33.408  1.00  0.00     0.043 C 
HETATM    2  C3  UNK     1      17.955   5.759  34.354  1.00  0.00     0.029 C 
ENDROOT
BRANCH   1   3
HETATM    3  C6  UNK     1      18.132   3.409  33.779  1.00  0.00     0.257 C 
HETATM    4  O1  UNK     1      17.788   2.589  32.932  1.00  0.00    -0.267 OA
HETATM    5  N1  UNK     1      18.354   3.165  35.129  1.00  0.00    -0.323 N 
HETATM    6  H2  UNK     1      18.639   3.933  35.729  1.00  0.00     0.169 HD
BRANCH   5   7
HETATM    7  C5  UNK     1      18.233   1.929  35.812  1.00  0.00     0.035 A 
HETATM    8  C12 UNK     1      17.470   1.867  36.966  1.00  0.00     0.029 A 
HETATM    9  C16 UNK     1      17.350   0.651  37.638  1.00  0.00     0.003 A 
HETATM   10  C15 UNK     1      17.994  -0.484  37.146  1.00  0.00     0.015 A 
HETATM   11  C8  UNK     1      18.757  -0.404  35.982  1.00  0.00     0.011 A 
HETATM   12  C7  UNK     1      18.877   0.813  35.310  1.00  0.00     0.044 A 
BRANCH  11  13
HETATM   13  C22 UNK     1      19.428  -1.588  35.470  1.00  0.00     0.155 C 
HETATM   14  O2  UNK     1      19.763  -1.679  34.272  1.00  0.00    -0.293 OA
HETATM   15  C23 UNK     1      19.741  -2.757  36.397  1.00  0.00     0.096 C 
ENDBRANCH  11  13
ENDBRANCH   5   7
ENDBRANCH   1   3
BRANCH   1  16
HETATM   16  C2  UNK     1      18.997   5.262  32.159  1.00  0.00    -0.021 A 
HETATM   17  C10 UNK     1      20.377   5.456  32.109  1.00  0.00     0.012 A 
HETATM   18  C18 UNK     1      20.985   5.833  30.911  1.00  0.00     0.001 A 
HETATM   19  C21 UNK     1      20.213   6.015  29.765  1.00  0.00     0.000 A 
HETATM   20  C19 UNK     1      18.833   5.821  29.814  1.00  0.00     0.001 A 
HETATM   21  C11 UNK     1      18.225   5.444  31.012  1.00  0.00     0.012 A 
ENDBRANCH   1  16
BRANCH   2  22
HETATM   22  C4  UNK     1      18.103   7.220  34.264  1.00  0.00    -0.033 A 
HETATM   23  C13 UNK     1      19.335   7.796  34.534  1.00  0.00     0.011 A 
HETATM   24  C17 UNK     1      19.477   9.182  34.449  1.00  0.00     0.003 A 
HETATM   25  C20 UNK     1      18.384   9.974  34.096  1.00  0.00     0.036 A 
HETATM   26  C14 UNK     1      17.151   9.382  33.828  1.00  0.00     0.103 A 
HETATM   27  C9  UNK     1      17.009   7.996  33.912  1.00  0.00     0.047 A 
BRANCH  26  28
HETATM   28  N2  UNK     1      16.039  10.189  33.468  1.00  0.00    -0.116 N 
HETATM   29  O3  UNK     1      15.834  11.255  34.097  1.00  0.00    -0.532 OA
HETATM   30  O4  UNK     1      15.293   9.814  32.531  1.00  0.00    -0.532 OA
ENDBRANCH  26  28
ENDBRANCH   2  22
TORSDOF 6
ENDMDL
MODEL 2
REMARK VINA RESULT:      -8.9     18.201     21.698
REMARK  6 active torsions:
REMARK  status: ('A' for Active; 'I' for Inactive)
REMARK    1  A    between atoms: C5_11  and  N1_5 
REMARK       I    between atoms: C6_12  and  N1_5 
REMARK    2  A    between atoms: C14_20  and  N2_6 
REMARK    3  A    between atoms: C1_7  and  C6_12 
REMARK    4  A    between atoms: C1_7  and  C2_8 
REMARK    5  A    between atoms: C3_9  and  C4_10 
REMARK    6  A    between atoms: C22_28  and  C8_14 
ROOT
HETATM    1  C1  UNK     1      19.115  -2.193  14.412  1.00  0.00     0.043 C 
HETATM    2  C3  UNK     1      19.255  -1.510  13.243  1.00  0.00     0.029 C 
ENDROOT
BRANCH   1   3
HETATM    3  C6  UNK     1      18.688  -1.332  15.595  1.00  0.00     0.257 C 
HETATM    4  O1  UNK     1      17.814  -1.711  16.370  1.00  0.00    -0.267 OA
HETATM    5  N1  UNK     1      19.391  -0.135  15.658  1.00  0.00    -0.323 N 
HETATM    6  H2  UNK     1      20.096   0.061  14.954  1.00  0.00     0.169 HD
BRANCH   5   7
HETATM    7  C5  UNK     1      19.252   0.896  16.621  1.00  0.00     0.035 A 
HETATM    8  C12 UNK     1      19.384   2.215  16.222  1.00  0.00     0.029 A 
HETATM    9  C16 UNK     1      19.247   3.230  17.168  1.00  0.00     0.003 A 
HETATM   10  C15 UNK     1      18.978   2.911  18.499  1.00  0.00     0.015 A 
HETATM   11  C8  UNK     1      18.847   1.577  18.883  1.00  0.00     0.011 A 
HETATM   12  C7  UNK     1      18.985   0.562  17.937  1.00  0.00     0.044 A 
BRANCH  11  13
HETATM   13  C22 UNK     1      18.567   1.244  20.271  1.00  0.00     0.155 C 
HETATM   14  O2  UNK     1      17.562   0.580  20.591  1.00  0.00    -0.293 OA
HETATM   15  C23 UNK     1      19.509   1.707  21.378  1.00  0.00     0.096 C 
ENDBRANCH  11  13
ENDBRANCH   5   7
ENDBRANCH   1   3
BRANCH   1  16
HETATM   16  C2  UNK     1      19.378  -3.618  14.544  1.00  0.00    -0.021 A 
HETATM   17  C10 UNK     1      20.677  -4.068  14.773  1.00  0.00     0.012 A 
HETATM   18  C18 UNK     1      20.929  -5.435  14.899  1.00  0.00     0.001 A 
HETATM   19  C21 UNK     1      19.882  -6.349  14.797  1.00  0.00     0.000 A 
HETATM   20  C19 UNK     1      18.582  -5.899  14.568  1.00  0.00     0.001 A 
HETATM   21  C11 UNK     1      18.330  -4.533  14.442  1.00  0.00     0.012 A 
ENDBRANCH   1  16
BRANCH   2  22
HETATM   22  C4  UNK     1      19.698  -2.093  11.967  1.00  0.00    -0.033 A 
HETATM   23  C13 UNK     1      20.925  -1.722  11.440  1.00  0.00     0.011 A 
HETATM   24  C17 UNK     1      21.346  -2.275  10.230  1.00  0.00     0.003 A 
HETATM   25  C20 UNK     1      20.535  -3.193   9.563  1.00  0.00     0.036 A 
HETATM   26  C14 UNK     1      19.303  -3.557  10.105  1.00  0.00     0.103 A 
HETATM   27  C9  UNK     1      18.881  -3.004  11.314  1.00  0.00     0.047 A 
BRANCH  26  28
HETATM   28  N2  UNK     1      18.477  -4.491   9.424  1.00  0.00    -0.116 N 
HETATM   29  O3  UNK     1      17.231  -4.401   9.544  1.00  0.00    -0.532 OA
HETATM   30  O4  UNK     1      19.016  -5.381   8.722  1.00  0.00    -0.532 OA
ENDBRANCH  26  28
ENDBRANCH   2  22
TORSDOF 6
ENDMDL
MODEL 3
REMARK VINA RESULT:      -8.9      5.126     12.652
REMARK  6 active torsions:
REMARK  status: ('A' for Active; 'I' for Inactive)
REMARK    1  A    between atoms: C5_11  and  N1_5 
REMARK       I    between atoms: C6_12  and  N1_5 
REMARK    2  A    between atoms: C14_20  and  N2_6 
REMARK    3  A    between atoms: C1_7  and  C6_12 
REMARK    4  A    between atoms: C1_7  and  C2_8 
REMARK    5  A    between atoms: C3_9  and  C4_10 
REMARK    6  A    between atoms: C22_28  and  C8_14 
ROOT
HETATM    1  C1  UNK     1      20.227  -4.402  36.921  1.00  0.00     0.043 C 
HETATM    2  C3  UNK     1      21.201  -4.632  37.843  1.00  0.00     0.029 C 
ENDROOT
BRANCH   1   3
HETATM    3  C6  UNK     1      20.064  -2.938  36.531  1.00  0.00     0.257 C 
HETATM    4  O1  UNK     1      20.909  -2.368  35.846  1.00  0.00    -0.267 OA
HETATM    5  N1  UNK     1      18.893  -2.384  37.035  1.00  0.00    -0.323 N 
HETATM    6  H2  UNK     1      18.271  -2.966  37.589  1.00  0.00     0.169 HD
BRANCH   5   7
HETATM    7  C5  UNK     1      18.426  -1.056  36.868  1.00  0.00     0.035 A 
HETATM    8  C12 UNK     1      17.876  -0.393  37.952  1.00  0.00     0.029 A 
HETATM    9  C16 UNK     1      17.418   0.914  37.789  1.00  0.00     0.003 A 
HETATM   10  C15 UNK     1      17.518   1.538  36.545  1.00  0.00     0.015 A 
HETATM   11  C8  UNK     1      18.075   0.855  35.465  1.00  0.00     0.011 A 
HETATM   12  C7  UNK     1      18.533  -0.452  35.628  1.00  0.00     0.044 A 
BRANCH  11  13
HETATM   13  C22 UNK     1      18.178   1.506  34.168  1.00  0.00     0.155 C 
HETATM   14  O2  UNK     1      18.217   0.846  33.111  1.00  0.00    -0.293 OA
HETATM   15  C23 UNK     1      18.242   3.026  34.073  1.00  0.00     0.096 C 
ENDBRANCH  11  13
ENDBRANCH   5   7
ENDBRANCH   1   3
BRANCH   1  16
HETATM   16  C2  UNK     1      19.385  -5.451  36.368  1.00  0.00    -0.021 A 
HETATM   17  C10 UNK     1      19.880  -6.292  35.372  1.00  0.00     0.012 A 
HETATM   18  C18 UNK     1      19.072  -7.298  34.842  1.00  0.00     0.001 A 
HETATM   19  C21 UNK     1      17.769  -7.464  35.311  1.00  0.00     0.000 A 
HETATM   20  C19 UNK     1      17.273  -6.625  36.307  1.00  0.00     0.001 A 
HETATM   21  C11 UNK     1      18.081  -5.619  36.837  1.00  0.00     0.012 A 
ENDBRANCH   1  16
BRANCH   2  22
HETATM   22  C4  UNK     1      21.532  -5.944  38.420  1.00  0.00    -0.033 A 
HETATM   23  C13 UNK     1      20.598  -6.593  39.214  1.00  0.00     0.011 A 
HETATM   24  C17 UNK     1      20.911  -7.838  39.761  1.00  0.00     0.003 A 
HETATM   25  C20 UNK     1      22.154  -8.418  39.507  1.00  0.00     0.036 A 
HETATM   26  C14 UNK     1      23.083  -7.755  38.707  1.00  0.00     0.103 A 
HETATM   27  C9  UNK     1      22.771  -6.510  38.160  1.00  0.00     0.047 A 
BRANCH  26  28
HETATM   28  N2  UNK     1      24.348  -8.347  38.449  1.00  0.00    -0.116 N 
HETATM   29  O3  UNK     1      25.181  -8.433  39.384  1.00  0.00    -0.532 OA
HETATM   30  O4  UNK     1      24.598  -8.768  37.293  1.00  0.00    -0.532 OA
ENDBRANCH  26  28
ENDBRANCH   2  22
TORSDOF 6
ENDMDL
MODEL 4
REMARK VINA RESULT:      -8.9     17.383     21.180
REMARK  6 active torsions:
REMARK  status: ('A' for Active; 'I' for Inactive)
REMARK    1  A    between atoms: C5_11  and  N1_5 
REMARK       I    between atoms: C6_12  and  N1_5 
REMARK    2  A    between atoms: C14_20  and  N2_6 
REMARK    3  A    between atoms: C1_7  and  C6_12 
REMARK    4  A    between atoms: C1_7  and  C2_8 
REMARK    5  A    between atoms: C3_9  and  C4_10 
REMARK    6  A    between atoms: C22_28  and  C8_14 
ROOT
HETATM    1  C1  UNK     1      18.819  -2.460  15.195  1.00  0.00     0.043 C 
HETATM    2  C3  UNK     1      18.552  -3.737  15.585  1.00  0.00     0.029 C 
ENDROOT
BRANCH   1   3
HETATM    3  C6  UNK     1      18.483  -1.402  16.238  1.00  0.00     0.257 C 
HETATM    4  O1  UNK     1      17.606  -1.595  17.075  1.00  0.00    -0.267 OA
HETATM    5  N1  UNK     1      19.268  -0.263  16.106  1.00  0.00    -0.323 N 
HETATM    6  H2  UNK     1      19.966  -0.227  15.369  1.00  0.00     0.169 HD
BRANCH   5   7
HETATM    7  C5  UNK     1      19.225   0.910  16.902  1.00  0.00     0.035 A 
HETATM    8  C12 UNK     1      19.438   2.140  16.303  1.00  0.00     0.029 A 
HETATM    9  C16 UNK     1      19.396   3.294  17.085  1.00  0.00     0.003 A 
HETATM   10  C15 UNK     1      19.140   3.200  18.453  1.00  0.00     0.015 A 
HETATM   11  C8  UNK     1      18.927   1.954  19.039  1.00  0.00     0.011 A 
HETATM   12  C7  UNK     1      18.970   0.799  18.257  1.00  0.00     0.044 A 
BRANCH  11  13
HETATM   13  C22 UNK     1      18.661   1.856  20.465  1.00  0.00     0.155 C 
HETATM   14  O2  UNK     1      17.514   1.629  20.899  1.00  0.00    -0.293 OA
HETATM   15  C23 UNK     1      19.792   2.033  21.473  1.00  0.00     0.096 C 
ENDBRANCH  11  13
ENDBRANCH   5   7
ENDBRANCH   1   3
BRANCH   1  16
HETATM   16  C2  UNK     1      19.348  -2.119  13.884  1.00  0.00    -0.021 A 
HETATM   17  C10 UNK     1      20.696  -2.338  13.598  1.00  0.00     0.012 A 
HETATM   18  C18 UNK     1      21.204  -2.010  12.340  1.00  0.00     0.001 A 
HETATM   19  C21 UNK     1      20.364  -1.466  11.369  1.00  0.00     0.000 A 
HETATM   20  C19 UNK     1      19.017  -1.247  11.654  1.00  0.00     0.001 A 
HETATM   21  C11 UNK     1      18.509  -1.574  12.912  1.00  0.00     0.012 A 
ENDBRANCH   1  16
BRANCH   2  22
HETATM   22  C4  UNK     1      18.741  -4.936  14.754  1.00  0.00    -0.033 A 
HETATM   23  C13 UNK     1      17.662  -5.459  14.059  1.00  0.00     0.011 A 
HETATM   24  C17 UNK     1      17.841  -6.596  13.270  1.00  0.00     0.003 A 
HETATM   25  C20 UNK     1      19.097  -7.196  13.187  1.00  0.00     0.036 A 
HETATM   26  C14 UNK     1      20.174  -6.660  13.892  1.00  0.00     0.103 A 
HETATM   27  C9  UNK     1      19.996  -5.523  14.680  1.00  0.00     0.047 A 
BRANCH  26  28
HETATM   28  N2  UNK     1      21.453  -7.272  13.806  1.00  0.00    -0.116 N 
HETATM   29  O3  UNK     1      22.096  -7.486  14.863  1.00  0.00    -0.532 OA
HETATM   30  O4  UNK     1      21.905  -7.581  12.677  1.00  0.00    -0.532 OA
ENDBRANCH  26  28
ENDBRANCH   2  22
TORSDOF 6
ENDMDL
MODEL 5
REMARK VINA RESULT:      -8.7      1.415      1.764
REMARK  6 active torsions:
REMARK  status: ('A' for Active; 'I' for Inactive)
REMARK    1  A    between atoms: C5_11  and  N1_5 
REMARK       I    between atoms: C6_12  and  N1_5 
REMARK    2  A    between atoms: C14_20  and  N2_6 
REMARK    3  A    between atoms: C1_7  and  C6_12 
REMARK    4  A    between atoms: C1_7  and  C2_8 
REMARK    5  A    between atoms: C3_9  and  C4_10 
REMARK    6  A    between atoms: C22_28  and  C8_14 
ROOT
HETATM    1  C1  UNK     1      18.120   4.679  33.298  1.00  0.00     0.043 C 
HETATM    2  C3  UNK     1      17.410   5.515  34.105  1.00  0.00     0.029 C 
ENDROOT
BRANCH   1   3
HETATM    3  C6  UNK     1      18.073   3.214  33.715  1.00  0.00     0.257 C 
HETATM    4  O1  UNK     1      17.926   2.325  32.880  1.00  0.00    -0.267 OA
HETATM    5  N1  UNK     1      18.211   3.050  35.087  1.00  0.00    -0.323 N 
HETATM    6  H2  UNK     1      18.330   3.871  35.673  1.00  0.00     0.169 HD
BRANCH   5   7
HETATM    7  C5  UNK     1      18.214   1.832  35.814  1.00  0.00     0.035 A 
HETATM    8  C12 UNK     1      17.586   1.781  37.047  1.00  0.00     0.029 A 
HETATM    9  C16 UNK     1      17.587   0.583  37.762  1.00  0.00     0.003 A 
HETATM   10  C15 UNK     1      18.214  -0.544  37.232  1.00  0.00     0.015 A 
HETATM   11  C8  UNK     1      18.841  -0.474  35.989  1.00  0.00     0.011 A 
HETATM   12  C7  UNK     1      18.840   0.724  35.274  1.00  0.00     0.044 A 
BRANCH  11  13
HETATM   13  C22 UNK     1      19.496  -1.650  35.438  1.00  0.00     0.155 C 
HETATM   14  O2  UNK     1      19.838  -1.702  34.240  1.00  0.00    -0.293 OA
HETATM   15  C23 UNK     1      19.781  -2.858  36.324  1.00  0.00     0.096 C 
ENDBRANCH  11  13
ENDBRANCH   5   7
ENDBRANCH   1   3
BRANCH   1  16
HETATM   16  C2  UNK     1      18.890   5.136  32.152  1.00  0.00    -0.021 A 
HETATM   17  C10 UNK     1      20.225   5.507  32.311  1.00  0.00     0.012 A 
HETATM   18  C18 UNK     1      20.963   5.945  31.211  1.00  0.00     0.001 A 
HETATM   19  C21 UNK     1      20.366   6.011  29.952  1.00  0.00     0.000 A 
HETATM   20  C19 UNK     1      19.032   5.640  29.792  1.00  0.00     0.001 A 
HETATM   21  C11 UNK     1      18.294   5.202  30.892  1.00  0.00     0.012 A 
ENDBRANCH   1  16
BRANCH   2  22
HETATM   22  C4  UNK     1      17.328   6.976  33.952  1.00  0.00    -0.033 A 
HETATM   23  C13 UNK     1      16.127   7.552  33.568  1.00  0.00     0.011 A 
HETATM   24  C17 UNK     1      16.048   8.938  33.423  1.00  0.00     0.003 A 
HETATM   25  C20 UNK     1      17.171   9.729  33.663  1.00  0.00     0.036 A 
HETATM   26  C14 UNK     1      18.372   9.136  34.049  1.00  0.00     0.103 A 
HETATM   27  C9  UNK     1      18.452   7.751  34.194  1.00  0.00     0.047 A 
BRANCH  26  28
HETATM   28  N2  UNK     1      19.515   9.943  34.294  1.00  0.00    -0.116 N 
HETATM   29  O3  UNK     1      19.430  11.184  34.130  1.00  0.00    -0.532 OA
HETATM   30  O4  UNK     1      20.579   9.392  34.668  1.00  0.00    -0.532 OA
ENDBRANCH  26  28
ENDBRANCH   2  22
TORSDOF 6
ENDMDL
MODEL 6
REMARK VINA RESULT:      -8.7      2.284      3.195
REMARK  6 active torsions:
REMARK  status: ('A' for Active; 'I' for Inactive)
REMARK    1  A    between atoms: C5_11  and  N1_5 
REMARK       I    between atoms: C6_12  and  N1_5 
REMARK    2  A    between atoms: C14_20  and  N2_6 
REMARK    3  A    between atoms: C1_7  and  C6_12 
REMARK    4  A    between atoms: C1_7  and  C2_8 
REMARK    5  A    between atoms: C3_9  and  C4_10 
REMARK    6  A    between atoms: C22_28  and  C8_14 
ROOT
HETATM    1  C1  UNK     1      18.018   2.189  33.270  1.00  0.00     0.043 C 
HETATM    2  C3  UNK     1      17.939   3.411  33.865  1.00  0.00     0.029 C 
ENDROOT
BRANCH   1   3
HETATM    3  C6  UNK     1      17.697   1.020  34.193  1.00  0.00     0.257 C 
HETATM    4  O1  UNK     1      16.601   0.466  34.154  1.00  0.00    -0.267 OA
HETATM    5  N1  UNK     1      18.760   0.698  35.028  1.00  0.00    -0.323 N 
HETATM    6  H2  UNK     1      19.621   1.234  34.960  1.00  0.00     0.169 HD
BRANCH   5   7
HETATM    7  C5  UNK     1      18.809  -0.329  36.004  1.00  0.00     0.035 A 
HETATM    8  C12 UNK     1      18.175  -0.136  37.219  1.00  0.00     0.029 A 
HETATM    9  C16 UNK     1      18.222  -1.146  38.180  1.00  0.00     0.003 A 
HETATM   10  C15 UNK     1      18.902  -2.333  37.910  1.00  0.00     0.015 A 
HETATM   11  C8  UNK     1      19.535  -2.511  36.681  1.00  0.00     0.011 A 
HETATM   12  C7  UNK     1      19.488  -1.500  35.720  1.00  0.00     0.044 A 
BRANCH  11  13
HETATM   13  C22 UNK     1      20.245  -3.749  36.400  1.00  0.00     0.155 C 
HETATM   14  O2  UNK     1      20.335  -4.198  35.240  1.00  0.00    -0.293 OA
HETATM   15  C23 UNK     1      20.901  -4.533  37.532  1.00  0.00     0.096 C 
ENDBRANCH  11  13
ENDBRANCH   5   7
ENDBRANCH   1   3
BRANCH   1  16
HETATM   16  C2  UNK     1      18.405   1.999  31.881  1.00  0.00    -0.021 A 
HETATM   17  C10 UNK     1      17.988   2.909  30.910  1.00  0.00     0.012 A 
HETATM   18  C18 UNK     1      18.360   2.727  29.578  1.00  0.00     0.001 A 
HETATM   19  C21 UNK     1      19.150   1.635  29.218  1.00  0.00     0.000 A 
HETATM   20  C19 UNK     1      19.568   0.725  30.188  1.00  0.00     0.001 A 
HETATM   21  C11 UNK     1      19.196   0.908  31.520  1.00  0.00     0.012 A 
ENDBRANCH   1  16
BRANCH   2  22
HETATM   22  C4  UNK     1      18.242   4.694  33.212  1.00  0.00    -0.033 A 
HETATM   23  C13 UNK     1      19.556   5.129  33.144  1.00  0.00     0.011 A 
HETATM   24  C17 UNK     1      19.844   6.346  32.524  1.00  0.00     0.003 A 
HETATM   25  C20 UNK     1      18.813   7.113  31.982  1.00  0.00     0.036 A 
HETATM   26  C14 UNK     1      17.495   6.664  32.058  1.00  0.00     0.103 A 
HETATM   27  C9  UNK     1      17.207   5.447  32.677  1.00  0.00     0.047 A 
BRANCH  26  28
HETATM   28  N2  UNK     1      16.446   7.445  31.505  1.00  0.00    -0.116 N 
HETATM   29  O3  UNK     1      15.263   7.203  31.847  1.00  0.00    -0.532 OA
HETATM   30  O4  UNK     1      16.731   8.356  30.690  1.00  0.00    -0.532 OA
ENDBRANCH  26  28
ENDBRANCH   2  22
TORSDOF 6
ENDMDL
MODEL 7
REMARK VINA RESULT:      -8.7      5.036      7.583
REMARK  6 active torsions:
REMARK  status: ('A' for Active; 'I' for Inactive)
REMARK    1  A    between atoms: C5_11  and  N1_5 
REMARK       I    between atoms: C6_12  and  N1_5 
REMARK    2  A    between atoms: C14_20  and  N2_6 
REMARK    3  A    between atoms: C1_7  and  C6_12 
REMARK    4  A    between atoms: C1_7  and  C2_8 
REMARK    5  A    between atoms: C3_9  and  C4_10 
REMARK    6  A    between atoms: C22_28  and  C8_14 
ROOT
HETATM    1  C1  UNK     1      19.188  -1.277  34.036  1.00  0.00     0.043 C 
HETATM    2  C3  UNK     1      19.591  -0.846  32.809  1.00  0.00     0.029 C 
ENDROOT
BRANCH   1   3
HETATM    3  C6  UNK     1      19.857  -2.565  34.500  1.00  0.00     0.257 C 
HETATM    4  O1  UNK     1      20.715  -3.114  33.814  1.00  0.00    -0.267 OA
HETATM    5  N1  UNK     1      19.380  -2.994  35.732  1.00  0.00    -0.323 N 
HETATM    6  H2  UNK     1      18.665  -2.447  36.203  1.00  0.00     0.169 HD
BRANCH   5   7
HETATM    7  C5  UNK     1      19.777  -4.147  36.456  1.00  0.00     0.035 A 
HETATM    8  C12 UNK     1      20.833  -4.054  37.346  1.00  0.00     0.029 A 
HETATM    9  C16 UNK     1      21.224  -5.187  38.060  1.00  0.00     0.003 A 
HETATM   10  C15 UNK     1      20.551  -6.395  37.873  1.00  0.00     0.015 A 
HETATM   11  C8  UNK     1      19.490  -6.469  36.972  1.00  0.00     0.011 A 
HETATM   12  C7  UNK     1      19.099  -5.336  36.259  1.00  0.00     0.044 A 
BRANCH  11  13
HETATM   13  C22 UNK     1      18.789  -7.729  36.777  1.00  0.00     0.155 C 
HETATM   14  O2  UNK     1      18.031  -7.908  35.804  1.00  0.00    -0.293 OA
HETATM   15  C23 UNK     1      18.970  -8.872  37.771  1.00  0.00     0.096 C 
ENDBRANCH  11  13
ENDBRANCH   5   7
ENDBRANCH   1   3
BRANCH   1  16
HETATM   16  C2  UNK     1      18.182  -0.593  34.834  1.00  0.00    -0.021 A 
HETATM   17  C10 UNK     1      18.572   0.272  35.856  1.00  0.00     0.012 A 
HETATM   18  C18 UNK     1      17.607   0.927  36.621  1.00  0.00     0.001 A 
HETATM   19  C21 UNK     1      16.252   0.719  36.362  1.00  0.00     0.000 A 
HETATM   20  C19 UNK     1      15.862  -0.145  35.340  1.00  0.00     0.001 A 
HETATM   21  C11 UNK     1      16.827  -0.801  34.575  1.00  0.00     0.012 A 
ENDBRANCH   1  16
BRANCH   2  22
HETATM   22  C4  UNK     1      19.071   0.342  32.114  1.00  0.00    -0.033 A 
HETATM   23  C13 UNK     1      18.687   1.450  32.853  1.00  0.00     0.011 A 
HETATM   24  C17 UNK     1      18.194   2.577  32.194  1.00  0.00     0.003 A 
HETATM   25  C20 UNK     1      18.091   2.580  30.803  1.00  0.00     0.036 A 
HETATM   26  C14 UNK     1      18.480   1.459  30.071  1.00  0.00     0.103 A 
HETATM   27  C9  UNK     1      18.973   0.332  30.730  1.00  0.00     0.047 A 
BRANCH  26  28
HETATM   28  N2  UNK     1      18.374   1.464  28.655  1.00  0.00    -0.116 N 
HETATM   29  O3  UNK     1      18.769   0.461  28.013  1.00  0.00    -0.532 OA
HETATM   30  O4  UNK     1      17.889   2.472  28.085  1.00  0.00    -0.532 OA
ENDBRANCH  26  28
ENDBRANCH   2  22
TORSDOF 6
ENDMDL
MODEL 8
REMARK VINA RESULT:      -8.7      5.179     12.615
REMARK  6 active torsions:
REMARK  status: ('A' for Active; 'I' for Inactive)
REMARK    1  A    between atoms: C5_11  and  N1_5 
REMARK       I    between atoms: C6_12  and  N1_5 
REMARK    2  A    between atoms: C14_20  and  N2_6 
REMARK    3  A    between atoms: C1_7  and  C6_12 
REMARK    4  A    between atoms: C1_7  and  C2_8 
REMARK    5  A    between atoms: C3_9  and  C4_10 
REMARK    6  A    between atoms: C22_28  and  C8_14 
ROOT
HETATM    1  C1  UNK     1      20.219  -4.492  36.940  1.00  0.00     0.043 C 
HETATM    2  C3  UNK     1      21.160  -4.733  37.894  1.00  0.00     0.029 C 
ENDROOT
BRANCH   1   3
HETATM    3  C6  UNK     1      20.084  -3.026  36.548  1.00  0.00     0.257 C 
HETATM    4  O1  UNK     1      20.941  -2.473  35.865  1.00  0.00    -0.267 OA
HETATM    5  N1  UNK     1      18.921  -2.451  37.047  1.00  0.00    -0.323 N 
HETATM    6  H2  UNK     1      18.287  -3.020  37.600  1.00  0.00     0.169 HD
BRANCH   5   7
HETATM    7  C5  UNK     1      18.479  -1.114  36.877  1.00  0.00     0.035 A 
HETATM    8  C12 UNK     1      17.977  -0.426  37.968  1.00  0.00     0.029 A 
HETATM    9  C16 UNK     1      17.543   0.890  37.802  1.00  0.00     0.003 A 
HETATM   10  C15 UNK     1      17.619   1.495  36.547  1.00  0.00     0.015 A 
HETATM   11  C8  UNK     1      18.128   0.787  35.460  1.00  0.00     0.011 A 
HETATM   12  C7  UNK     1      18.562  -0.529  35.626  1.00  0.00     0.044 A 
BRANCH  11  13
HETATM   13  C22 UNK     1      18.206   1.419  34.152  1.00  0.00     0.155 C 
HETATM   14  O2  UNK     1      18.256   0.743  33.106  1.00  0.00    -0.293 OA
HETATM   15  C23 UNK     1      18.228   2.939  34.033  1.00  0.00     0.096 C 
ENDBRANCH  11  13
ENDBRANCH   5   7
ENDBRANCH   1   3
BRANCH   1  16
HETATM   16  C2  UNK     1      19.384  -5.532  36.358  1.00  0.00    -0.021 A 
HETATM   17  C10 UNK     1      18.081  -5.718  36.818  1.00  0.00     0.012 A 
HETATM   18  C18 UNK     1      17.280  -6.715  36.260  1.00  0.00     0.001 A 
HETATM   19  C21 UNK     1      17.783  -7.525  35.243  1.00  0.00     0.000 A 
HETATM   20  C19 UNK     1      19.086  -7.339  34.782  1.00  0.00     0.001 A 
HETATM   21  C11 UNK     1      19.887  -6.342  35.340  1.00  0.00     0.012 A 
ENDBRANCH   1  16
BRANCH   2  22
HETATM   22  C4  UNK     1      21.458  -6.050  38.479  1.00  0.00    -0.033 A 
HETATM   23  C13 UNK     1      22.730  -6.304  38.968  1.00  0.00     0.011 A 
HETATM   24  C17 UNK     1      23.013  -7.553  39.523  1.00  0.00     0.003 A 
HETATM   25  C20 UNK     1      22.021  -8.531  39.582  1.00  0.00     0.036 A 
HETATM   26  C14 UNK     1      20.746  -8.261  39.087  1.00  0.00     0.103 A 
HETATM   27  C9  UNK     1      20.462  -7.013  38.531  1.00  0.00     0.047 A 
BRANCH  26  28
HETATM   28  N2  UNK     1      19.736  -9.258  39.147  1.00  0.00    -0.116 N 
HETATM   29  O3  UNK     1      18.746  -9.167  38.382  1.00  0.00    -0.532 OA
HETATM   30  O4  UNK     1      19.861 -10.202  39.965  1.00  0.00    -0.532 OA
ENDBRANCH  26  28
ENDBRANCH   2  22
TORSDOF 6
ENDMDL
MODEL 9
REMARK VINA RESULT:      -8.6     17.542     21.167
REMARK  6 active torsions:
REMARK  status: ('A' for Active; 'I' for Inactive)
REMARK    1  A    between atoms: C5_11  and  N1_5 
REMARK       I    between atoms: C6_12  and  N1_5 
REMARK    2  A    between atoms: C14_20  and  N2_6 
REMARK    3  A    between atoms: C1_7  and  C6_12 
REMARK    4  A    between atoms: C1_7  and  C2_8 
REMARK    5  A    between atoms: C3_9  and  C4_10 
REMARK    6  A    between atoms: C22_28  and  C8_14 
ROOT
HETATM    1  C1  UNK     1      18.888  -2.543  15.227  1.00  0.00     0.043 C 
HETATM    2  C3  UNK     1      18.698  -3.835  15.613  1.00  0.00     0.029 C 
ENDROOT
BRANCH   1   3
HETATM    3  C6  UNK     1      18.487  -1.510  16.273  1.00  0.00     0.257 C 
HETATM    4  O1  UNK     1      17.524  -1.699  17.011  1.00  0.00    -0.267 OA
HETATM    5  N1  UNK     1      19.320  -0.398  16.263  1.00  0.00    -0.323 N 
HETATM    6  H2  UNK     1      20.089  -0.363  15.600  1.00  0.00     0.169 HD
BRANCH   5   7
HETATM    7  C5  UNK     1      19.239   0.747  17.096  1.00  0.00     0.035 A 
HETATM    8  C12 UNK     1      19.206   2.003  16.515  1.00  0.00     0.029 A 
HETATM    9  C16 UNK     1      19.126   3.130  17.334  1.00  0.00     0.003 A 
HETATM   10  C15 UNK     1      19.079   2.982  18.720  1.00  0.00     0.015 A 
HETATM   11  C8  UNK     1      19.113   1.709  19.287  1.00  0.00     0.011 A 
HETATM   12  C7  UNK     1      19.193   0.582  18.469  1.00  0.00     0.044 A 
BRANCH  11  13
HETATM   13  C22 UNK     1      19.064   1.556  20.733  1.00  0.00     0.155 C 
HETATM   14  O2  UNK     1      18.693   2.487  21.474  1.00  0.00    -0.293 OA
HETATM   15  C23 UNK     1      19.472   0.237  21.381  1.00  0.00     0.096 C 
ENDBRANCH  11  13
ENDBRANCH   5   7
ENDBRANCH   1   3
BRANCH   1  16
HETATM   16  C2  UNK     1      19.399  -2.166  13.918  1.00  0.00    -0.021 A 
HETATM   17  C10 UNK     1      18.529  -1.675  12.945  1.00  0.00     0.012 A 
HETATM   18  C18 UNK     1      19.019  -1.313  11.690  1.00  0.00     0.001 A 
HETATM   19  C21 UNK     1      20.379  -1.442  11.409  1.00  0.00     0.000 A 
HETATM   20  C19 UNK     1      21.250  -1.932  12.382  1.00  0.00     0.001 A 
HETATM   21  C11 UNK     1      20.759  -2.294  13.637  1.00  0.00     0.012 A 
ENDBRANCH   1  16
BRANCH   2  22
HETATM   22  C4  UNK     1      18.960  -5.018  14.779  1.00  0.00    -0.033 A 
HETATM   23  C13 UNK     1      20.246  -5.532  14.714  1.00  0.00     0.011 A 
HETATM   24  C17 UNK     1      20.496  -6.655  13.923  1.00  0.00     0.003 A 
HETATM   25  C20 UNK     1      19.456  -7.248  13.207  1.00  0.00     0.036 A 
HETATM   26  C14 UNK     1      18.168  -6.720  13.282  1.00  0.00     0.103 A 
HETATM   27  C9  UNK     1      17.918  -5.598  14.072  1.00  0.00     0.047 A 
BRANCH  26  28
HETATM   28  N2  UNK     1      17.110  -7.325  12.552  1.00  0.00    -0.116 N 
HETATM   29  O3  UNK     1      16.479  -8.277  13.072  1.00  0.00    -0.532 OA
HETATM   30  O4  UNK     1      16.836  -6.891  11.407  1.00  0.00    -0.532 OA
ENDBRANCH  26  28
ENDBRANCH   2  22
TORSDOF 6
ENDMDL
MODEL 10
REMARK VINA RESULT:      -8.5      3.180      8.452
REMARK  6 active torsions:
REMARK  status: ('A' for Active; 'I' for Inactive)
REMARK    1  A    between atoms: C5_11  and  N1_5 
REMARK       I    between atoms: C6_12  and  N1_5 
REMARK    2  A    between atoms: C14_20  and  N2_6 
REMARK    3  A    between atoms: C1_7  and  C6_12 
REMARK    4  A    between atoms: C1_7  and  C2_8 
REMARK    5  A    between atoms: C3_9  and  C4_10 
REMARK    6  A    between atoms: C22_28  and  C8_14 
ROOT
HETATM    1  C1  UNK     1      18.071   6.066  31.936  1.00  0.00     0.043 C 
HETATM    2  C3  UNK     1      17.328   4.925  31.923  1.00  0.00     0.029 C 
ENDROOT
BRANCH   1   3
HETATM    3  C6  UNK     1      17.254   7.346  32.067  1.00  0.00     0.257 C 
HETATM    4  O1  UNK     1      16.818   7.921  31.074  1.00  0.00    -0.267 OA
HETATM    5  N1  UNK     1      17.091   7.735  33.391  1.00  0.00    -0.323 N 
HETATM    6  H2  UNK     1      17.502   7.168  34.127  1.00  0.00     0.169 HD
BRANCH   5   7
HETATM    7  C5  UNK     1      16.391   8.869  33.876  1.00  0.00     0.035 A 
HETATM    8  C12 UNK     1      15.045   8.755  34.174  1.00  0.00     0.029 A 
HETATM    9  C16 UNK     1      14.356   9.870  34.652  1.00  0.00     0.003 A 
HETATM   10  C15 UNK     1      15.026  11.081  34.825  1.00  0.00     0.015 A 
HETATM   11  C8  UNK     1      16.382  11.178  34.519  1.00  0.00     0.011 A 
HETATM   12  C7  UNK     1      17.071  10.063  34.041  1.00  0.00     0.044 A 
BRANCH  11  13
HETATM   13  C22 UNK     1      17.080  12.442  34.699  1.00  0.00     0.155 C 
HETATM   14  O2  UNK     1      16.736  13.255  35.579  1.00  0.00    -0.293 OA
HETATM   15  C23 UNK     1      18.260  12.803  33.803  1.00  0.00     0.096 C 
ENDBRANCH  11  13
ENDBRANCH   5   7
ENDBRANCH   1   3
BRANCH   1  16
HETATM   16  C2  UNK     1      19.520   6.079  31.804  1.00  0.00    -0.021 A 
HETATM   17  C10 UNK     1      20.321   6.258  32.932  1.00  0.00     0.012 A 
HETATM   18  C18 UNK     1      21.710   6.271  32.806  1.00  0.00     0.001 A 
HETATM   19  C21 UNK     1      22.298   6.103  31.552  1.00  0.00     0.000 A 
HETATM   20  C19 UNK     1      21.497   5.923  30.424  1.00  0.00     0.001 A 
HETATM   21  C11 UNK     1      20.108   5.911  30.551  1.00  0.00     0.012 A 
ENDBRANCH   1  16
BRANCH   2  22
HETATM   22  C4  UNK     1      17.864   3.565  31.763  1.00  0.00    -0.033 A 
HETATM   23  C13 UNK     1      18.121   2.798  32.889  1.00  0.00     0.011 A 
HETATM   24  C17 UNK     1      18.629   1.507  32.737  1.00  0.00     0.003 A 
HETATM   25  C20 UNK     1      18.874   1.000  31.461  1.00  0.00     0.036 A 
HETATM   26  C14 UNK     1      18.611   1.782  30.338  1.00  0.00     0.103 A 
HETATM   27  C9  UNK     1      18.103   3.073  30.489  1.00  0.00     0.047 A 
BRANCH  26  28
HETATM   28  N2  UNK     1      18.861   1.265  29.039  1.00  0.00    -0.116 N 
HETATM   29  O3  UNK     1      19.705   0.345  28.903  1.00  0.00    -0.532 OA
HETATM   30  O4  UNK     1      18.232   1.741  28.063  1.00  0.00    -0.532 OA
ENDBRANCH  26  28
ENDBRANCH   2  22
TORSDOF 6
ENDMDL
