MODEL 1
REMARK VINA RESULT:      -9.4      0.000      0.000
REMARK  6 active torsions:
REMARK  status: ('A' for Active; 'I' for Inactive)
REMARK    1  A    between atoms: C2_8  and  O1_1 
REMARK    2  A    between atoms: C7_13  and  O1_1 
REMARK       I    between atoms: C22_28  and  N1_5 
REMARK    3  A    between atoms: N1_5  and  N2_6 
REMARK    4  A    between atoms: C1_7  and  C2_8 
REMARK    5  A    between atoms: C12_18  and  C21_27 
REMARK    6  A    between atoms: C16_22  and  C22_28 
ROOT
HETATM    1  O4  UNK     1      21.167  -3.385  31.781  1.00  0.00    -0.266 OA
HETATM    2  N1  UNK     1      20.206  -2.465  33.676  1.00  0.00    -0.243 N 
HETATM    3  C22 UNK     1      20.553  -2.477  32.338  1.00  0.00     0.271 C 
HETATM    4  H22 UNK     1      19.747  -1.685  34.137  1.00  0.00     0.192 HD
ENDROOT
BRANCH   2   5
HETATM    5  N2  UNK     1      20.558  -3.522  34.446  1.00  0.00    -0.183 NA
HETATM    6  C21 UNK     1      19.758  -3.741  35.439  1.00  0.00     0.156 C 
BRANCH   6   7
HETATM    7  C12 UNK     1      19.966  -4.834  36.389  1.00  0.00     0.056 A 
HETATM    8  C10 UNK     1      19.647  -6.248  36.092  1.00  0.00     0.198 A 
HETATM    9  O3  UNK     1      19.184  -6.599  35.016  1.00  0.00    -0.286 OA
HETATM   10  C5  UNK     1      19.923  -7.212  37.174  1.00  0.00     0.049 A 
HETATM   11  C6  UNK     1      20.451  -6.747  38.379  1.00  0.00     0.089 A 
HETATM   12  C9  UNK     1      19.658  -8.573  36.999  1.00  0.00     0.025 A 
HETATM   13  C11 UNK     1      20.719  -7.642  39.415  1.00  0.00     0.039 A 
HETATM   14  O2  UNK     1      20.730  -5.422  38.606  1.00  0.00    -0.321 OA
HETATM   15  C13 UNK     1      20.456  -9.001  39.242  1.00  0.00     0.009 A 
HETATM   16  C8  UNK     1      19.928  -9.465  38.037  1.00  0.00    -0.061 A 
HETATM   17  C20 UNK     1      19.649 -10.921  37.858  1.00  0.00     0.048 C 
HETATM   18  C19 UNK     1      20.470  -4.532  37.591  1.00  0.00     0.159 A 
ENDBRANCH   6   7
ENDBRANCH   2   5
BRANCH   3  19
HETATM   19  C16 UNK     1      20.155  -1.279  31.556  1.00  0.00     0.033 A 
HETATM   20  C17 UNK     1      19.280  -0.375  32.122  1.00  0.00     0.020 A 
HETATM   21  C14 UNK     1      18.906   0.751  31.388  1.00  0.00     0.038 A 
HETATM   22  C7  UNK     1      19.416   0.948  30.105  1.00  0.00     0.068 A 
HETATM   23  C15 UNK     1      20.299   0.019  29.556  1.00  0.00     0.038 A 
HETATM   24  C18 UNK     1      20.673  -1.107  30.290  1.00  0.00     0.020 A 
BRANCH  22  25
HETATM   25  O1  UNK     1      19.053   2.047  29.390  1.00  0.00    -0.351 OA
BRANCH  25  26
HETATM   26  C2  UNK     1      18.143   2.955  30.010  1.00  0.00     0.179 C 
BRANCH  26  27
HETATM   27  C1  UNK     1      18.919   4.048  30.749  1.00  0.00     0.002 C 
HETATM   28  C3  UNK     1      18.210   4.417  32.051  1.00  0.00     0.011 C 
HETATM   29  C4  UNK     1      19.103   5.290  29.875  1.00  0.00     0.011 C 
ENDBRANCH  26  27
ENDBRANCH  25  26
ENDBRANCH  22  25
ENDBRANCH   3  19
TORSDOF 6
ENDMDL
MODEL 2
REMARK VINA RESULT:      -9.1      2.409      2.990
REMARK  6 active torsions:
REMARK  status: ('A' for Active; 'I' for Inactive)
REMARK    1  A    between atoms: C2_8  and  O1_1 
REMARK    2  A    between atoms: C7_13  and  O1_1 
REMARK       I    between atoms: C22_28  and  N1_5 
REMARK    3  A    between atoms: N1_5  and  N2_6 
REMARK    4  A    between atoms: C1_7  and  C2_8 
REMARK    5  A    between atoms: C12_18  and  C21_27 
REMARK    6  A    between atoms: C16_22  and  C22_28 
ROOT
HETATM    1  O4  UNK     1      18.367  -0.458  37.418  1.00  0.00    -0.266 OA
HETATM    2  N1  UNK     1      18.930  -1.868  35.671  1.00  0.00    -0.243 N 
HETATM    3  C22 UNK     1      18.578  -0.651  36.223  1.00  0.00     0.271 C 
HETATM    4  H22 UNK     1      19.047  -2.028  34.675  1.00  0.00     0.192 HD
ENDROOT
BRANCH   2   5
HETATM    5  N2  UNK     1      19.057  -2.939  36.491  1.00  0.00    -0.183 NA
HETATM    6  C21 UNK     1      20.122  -3.642  36.278  1.00  0.00     0.156 C 
BRANCH   6   7
HETATM    7  C12 UNK     1      20.441  -4.839  37.056  1.00  0.00     0.056 A 
HETATM    8  C10 UNK     1      19.658  -6.093  36.988  1.00  0.00     0.198 A 
HETATM    9  O3  UNK     1      18.679  -6.211  36.265  1.00  0.00    -0.286 OA
HETATM   10  C5  UNK     1      20.131  -7.195  37.847  1.00  0.00     0.049 A 
HETATM   11  C6  UNK     1      21.255  -6.997  38.649  1.00  0.00     0.089 A 
HETATM   12  C9  UNK     1      19.464  -8.423  37.859  1.00  0.00     0.025 A 
HETATM   13  C11 UNK     1      21.718  -8.026  39.469  1.00  0.00     0.039 A 
HETATM   14  O2  UNK     1      21.948  -5.812  38.677  1.00  0.00    -0.321 OA
HETATM   15  C13 UNK     1      21.054  -9.253  39.483  1.00  0.00     0.009 A 
HETATM   16  C8  UNK     1      19.930  -9.451  38.680  1.00  0.00    -0.061 A 
HETATM   17  C20 UNK     1      19.225 -10.766  38.699  1.00  0.00     0.048 C 
HETATM   18  C19 UNK     1      21.499  -4.791  37.873  1.00  0.00     0.159 A 
ENDBRANCH   6   7
ENDBRANCH   2   5
BRANCH   3  19
HETATM   19  C16 UNK     1      18.435   0.476  35.266  1.00  0.00     0.033 A 
HETATM   20  C17 UNK     1      18.406   1.765  35.756  1.00  0.00     0.020 A 
HETATM   21  C14 UNK     1      18.272   2.824  34.858  1.00  0.00     0.038 A 
HETATM   22  C7  UNK     1      18.171   2.571  33.490  1.00  0.00     0.068 A 
HETATM   23  C15 UNK     1      18.203   1.257  33.020  1.00  0.00     0.038 A 
HETATM   24  C18 UNK     1      18.337   0.198  33.919  1.00  0.00     0.020 A 
BRANCH  22  25
HETATM   25  O1  UNK     1      18.042   3.603  32.614  1.00  0.00    -0.351 OA
BRANCH  25  26
HETATM   26  C2  UNK     1      18.220   4.921  33.131  1.00  0.00     0.179 C 
BRANCH  26  27
HETATM   27  C1  UNK     1      18.969   5.785  32.112  1.00  0.00     0.002 C 
HETATM   28  C3  UNK     1      19.322   4.962  30.874  1.00  0.00     0.011 C 
HETATM   29  C4  UNK     1      20.233   6.396  32.721  1.00  0.00     0.011 C 
ENDBRANCH  26  27
ENDBRANCH  25  26
ENDBRANCH  22  25
ENDBRANCH   3  19
TORSDOF 6
ENDMDL
MODEL 3
REMARK VINA RESULT:      -9.0      2.284     11.183
REMARK  6 active torsions:
REMARK  status: ('A' for Active; 'I' for Inactive)
REMARK    1  A    between atoms: C2_8  and  O1_1 
REMARK    2  A    between atoms: C7_13  and  O1_1 
REMARK       I    between atoms: C22_28  and  N1_5 
REMARK    3  A    between atoms: N1_5  and  N2_6 
REMARK    4  A    between atoms: C1_7  and  C2_8 
REMARK    5  A    between atoms: C12_18  and  C21_27 
REMARK    6  A    between atoms: C16_22  and  C22_28 
ROOT
HETATM    1  O4  UNK     1      20.439  -3.796  34.743  1.00  0.00    -0.266 OA
HETATM    2  N1  UNK     1      19.718  -2.397  36.441  1.00  0.00    -0.243 N 
HETATM    3  C22 UNK     1      20.060  -3.621  35.899  1.00  0.00     0.271 C 
HETATM    4  H22 UNK     1      19.353  -2.273  37.380  1.00  0.00     0.192 HD
ENDROOT
BRANCH   2   5
HETATM    5  N2  UNK     1      19.801  -1.295  35.656  1.00  0.00    -0.183 NA
HETATM    6  C21 UNK     1      18.662  -0.892  35.194  1.00  0.00     0.156 C 
BRANCH   6   7
HETATM    7  C12 UNK     1      18.538   0.279  34.326  1.00  0.00     0.056 A 
HETATM    8  C10 UNK     1      18.436   1.667  34.832  1.00  0.00     0.198 A 
HETATM    9  O3  UNK     1      18.449   1.926  36.027  1.00  0.00    -0.286 OA
HETATM   10  C5  UNK     1      18.316   2.720  33.806  1.00  0.00     0.049 A 
HETATM   11  C6  UNK     1      18.306   2.357  32.458  1.00  0.00     0.089 A 
HETATM   12  C9  UNK     1      18.213   4.063  34.175  1.00  0.00     0.025 A 
HETATM   13  C11 UNK     1      18.193   3.337  31.472  1.00  0.00     0.039 A 
HETATM   14  O2  UNK     1      18.403   1.054  32.039  1.00  0.00    -0.321 OA
HETATM   15  C13 UNK     1      18.090   4.680  31.838  1.00  0.00     0.009 A 
HETATM   16  C8  UNK     1      18.101   5.041  33.186  1.00  0.00    -0.061 A 
HETATM   17  C20 UNK     1      17.991   6.479  33.571  1.00  0.00     0.048 C 
HETATM   18  C19 UNK     1      18.515   0.080  33.003  1.00  0.00     0.159 A 
ENDBRANCH   6   7
ENDBRANCH   2   5
BRANCH   3  19
HETATM   19  C16 UNK     1      19.926  -4.790  36.806  1.00  0.00     0.033 A 
HETATM   20  C17 UNK     1      18.828  -5.614  36.673  1.00  0.00     0.020 A 
HETATM   21  C14 UNK     1      18.702  -6.712  37.524  1.00  0.00     0.038 A 
HETATM   22  C7  UNK     1      19.677  -6.962  38.489  1.00  0.00     0.068 A 
HETATM   23  C15 UNK     1      20.779  -6.113  38.603  1.00  0.00     0.038 A 
HETATM   24  C18 UNK     1      20.904  -5.015  37.752  1.00  0.00     0.020 A 
BRANCH  22  25
HETATM   25  O1  UNK     1      19.556  -8.034  39.318  1.00  0.00    -0.351 OA
BRANCH  25  26
HETATM   26  C2  UNK     1      20.496  -9.094  39.152  1.00  0.00     0.179 C 
BRANCH  26  27
HETATM   27  C1  UNK     1      20.356  -9.701  37.753  1.00  0.00     0.002 C 
HETATM   28  C3  UNK     1      19.749 -11.101  37.838  1.00  0.00     0.011 C 
HETATM   29  C4  UNK     1      21.703  -9.750  37.029  1.00  0.00     0.011 C 
ENDBRANCH  26  27
ENDBRANCH  25  26
ENDBRANCH  22  25
ENDBRANCH   3  19
TORSDOF 6
ENDMDL
MODEL 4
REMARK VINA RESULT:      -8.9      5.925     10.118
REMARK  6 active torsions:
REMARK  status: ('A' for Active; 'I' for Inactive)
REMARK    1  A    between atoms: C2_8  and  O1_1 
REMARK    2  A    between atoms: C7_13  and  O1_1 
REMARK       I    between atoms: C22_28  and  N1_5 
REMARK    3  A    between atoms: N1_5  and  N2_6 
REMARK    4  A    between atoms: C1_7  and  C2_8 
REMARK    5  A    between atoms: C12_18  and  C21_27 
REMARK    6  A    between atoms: C16_22  and  C22_28 
ROOT
HETATM    1  O4  UNK     1      19.896   6.878  32.909  1.00  0.00    -0.266 OA
HETATM    2  N1  UNK     1      17.968   5.771  32.262  1.00  0.00    -0.243 N 
HETATM    3  C22 UNK     1      18.670   6.804  32.854  1.00  0.00     0.271 C 
HETATM    4  H22 UNK     1      16.956   5.693  32.272  1.00  0.00     0.192 HD
ENDROOT
BRANCH   2   5
HETATM    5  N2  UNK     1      18.664   4.755  31.696  1.00  0.00    -0.183 NA
HETATM    6  C21 UNK     1      17.957   3.697  31.465  1.00  0.00     0.156 C 
BRANCH   6   7
HETATM    7  C12 UNK     1      18.523   2.491  30.860  1.00  0.00     0.056 A 
HETATM    8  C10 UNK     1      18.950   1.307  31.639  1.00  0.00     0.198 A 
HETATM    9  O3  UNK     1      18.854   1.260  32.857  1.00  0.00    -0.286 OA
HETATM   10  C5  UNK     1      19.498   0.184  30.856  1.00  0.00     0.049 A 
HETATM   11  C6  UNK     1      19.581   0.301  29.468  1.00  0.00     0.089 A 
HETATM   12  C9  UNK     1      19.931  -0.982  31.492  1.00  0.00     0.025 A 
HETATM   13  C11 UNK     1      20.097  -0.749  28.708  1.00  0.00     0.039 A 
HETATM   14  O2  UNK     1      19.172   1.422  28.790  1.00  0.00    -0.321 OA
HETATM   15  C13 UNK     1      20.529  -1.915  29.341  1.00  0.00     0.009 A 
HETATM   16  C8  UNK     1      20.446  -2.031  30.729  1.00  0.00    -0.061 A 
HETATM   17  C20 UNK     1      20.910  -3.281  31.400  1.00  0.00     0.048 C 
HETATM   18  C19 UNK     1      18.662   2.463  29.530  1.00  0.00     0.159 A 
ENDBRANCH   6   7
ENDBRANCH   2   5
BRANCH   3  19
HETATM   19  C16 UNK     1      17.847   7.873  33.474  1.00  0.00     0.033 A 
HETATM   20  C17 UNK     1      16.556   7.579  33.861  1.00  0.00     0.020 A 
HETATM   21  C14 UNK     1      15.782   8.583  34.444  1.00  0.00     0.038 A 
HETATM   22  C7  UNK     1      16.317   9.858  34.627  1.00  0.00     0.068 A 
HETATM   23  C15 UNK     1      17.626  10.129  34.227  1.00  0.00     0.038 A 
HETATM   24  C18 UNK     1      18.399   9.125  33.644  1.00  0.00     0.020 A 
BRANCH  22  25
HETATM   25  O1  UNK     1      15.563  10.837  35.197  1.00  0.00    -0.351 OA
BRANCH  25  26
HETATM   26  C2  UNK     1      14.156  10.613  35.273  1.00  0.00     0.179 C 
BRANCH  26  27
HETATM   27  C1  UNK     1      13.412  11.697  34.488  1.00  0.00     0.002 C 
HETATM   28  C3  UNK     1      12.962  11.158  33.132  1.00  0.00     0.011 C 
HETATM   29  C4  UNK     1      14.279  12.944  34.303  1.00  0.00     0.011 C 
ENDBRANCH  26  27
ENDBRANCH  25  26
ENDBRANCH  22  25
ENDBRANCH   3  19
TORSDOF 6
ENDMDL
MODEL 5
REMARK VINA RESULT:      -8.9      2.437      3.208
REMARK  6 active torsions:
REMARK  status: ('A' for Active; 'I' for Inactive)
REMARK    1  A    between atoms: C2_8  and  O1_1 
REMARK    2  A    between atoms: C7_13  and  O1_1 
REMARK       I    between atoms: C22_28  and  N1_5 
REMARK    3  A    between atoms: N1_5  and  N2_6 
REMARK    4  A    between atoms: C1_7  and  C2_8 
REMARK    5  A    between atoms: C12_18  and  C21_27 
REMARK    6  A    between atoms: C16_22  and  C22_28 
ROOT
HETATM    1  O4  UNK     1      18.341  -1.473  36.906  1.00  0.00    -0.266 OA
HETATM    2  N1  UNK     1      20.183  -1.807  35.545  1.00  0.00    -0.243 N 
HETATM    3  C22 UNK     1      19.072  -1.114  35.986  1.00  0.00     0.271 C 
HETATM    4  H22 UNK     1      20.747  -1.529  34.747  1.00  0.00     0.192 HD
ENDROOT
BRANCH   2   5
HETATM    5  N2  UNK     1      20.507  -2.971  36.159  1.00  0.00    -0.183 NA
HETATM    6  C21 UNK     1      19.922  -4.010  35.660  1.00  0.00     0.156 C 
BRANCH   6   7
HETATM    7  C12 UNK     1      20.137  -5.360  36.183  1.00  0.00     0.056 A 
HETATM    8  C10 UNK     1      20.544  -6.508  35.342  1.00  0.00     0.198 A 
HETATM    9  O3  UNK     1      20.731  -6.400  34.139  1.00  0.00    -0.286 OA
HETATM   10  C5  UNK     1      20.712  -7.793  36.046  1.00  0.00     0.049 A 
HETATM   11  C6  UNK     1      20.484  -7.850  37.422  1.00  0.00     0.089 A 
HETATM   12  C9  UNK     1      21.095  -8.942  35.348  1.00  0.00     0.025 A 
HETATM   13  C11 UNK     1      20.637  -9.056  38.106  1.00  0.00     0.039 A 
HETATM   14  O2  UNK     1      20.107  -6.754  38.158  1.00  0.00    -0.321 OA
HETATM   15  C13 UNK     1      21.019 -10.203  37.411  1.00  0.00     0.009 A 
HETATM   16  C8  UNK     1      21.248 -10.146  36.035  1.00  0.00    -0.061 A 
HETATM   17  C20 UNK     1      21.656 -11.378  35.298  1.00  0.00     0.048 C 
HETATM   18  C19 UNK     1      19.953  -5.561  37.492  1.00  0.00     0.159 A 
ENDBRANCH   6   7
ENDBRANCH   2   5
BRANCH   3  19
HETATM   19  C16 UNK     1      18.762   0.142  35.255  1.00  0.00     0.033 A 
HETATM   20  C17 UNK     1      18.479   0.075  33.907  1.00  0.00     0.020 A 
HETATM   21  C14 UNK     1      18.186   1.254  33.221  1.00  0.00     0.038 A 
HETATM   22  C7  UNK     1      18.183   2.473  33.897  1.00  0.00     0.068 A 
HETATM   23  C15 UNK     1      18.473   2.513  35.262  1.00  0.00     0.038 A 
HETATM   24  C18 UNK     1      18.765   1.334  35.948  1.00  0.00     0.020 A 
BRANCH  22  25
HETATM   25  O1  UNK     1      17.896   3.622  33.229  1.00  0.00    -0.351 OA
BRANCH  25  26
HETATM   26  C2  UNK     1      18.532   4.816  33.685  1.00  0.00     0.179 C 
BRANCH  26  27
HETATM   27  C1  UNK     1      18.866   5.717  32.493  1.00  0.00     0.002 C 
HETATM   28  C3  UNK     1      19.049   4.880  31.228  1.00  0.00     0.011 C 
HETATM   29  C4  UNK     1      20.118   6.554  32.762  1.00  0.00     0.011 C 
ENDBRANCH  26  27
ENDBRANCH  25  26
ENDBRANCH  22  25
ENDBRANCH   3  19
TORSDOF 6
ENDMDL
MODEL 6
REMARK VINA RESULT:      -8.7      2.587      3.488
REMARK  6 active torsions:
REMARK  status: ('A' for Active; 'I' for Inactive)
REMARK    1  A    between atoms: C2_8  and  O1_1 
REMARK    2  A    between atoms: C7_13  and  O1_1 
REMARK       I    between atoms: C22_28  and  N1_5 
REMARK    3  A    between atoms: N1_5  and  N2_6 
REMARK    4  A    between atoms: C1_7  and  C2_8 
REMARK    5  A    between atoms: C12_18  and  C21_27 
REMARK    6  A    between atoms: C16_22  and  C22_28 
ROOT
HETATM    1  O4  UNK     1      18.143  -0.313  37.448  1.00  0.00    -0.266 OA
HETATM    2  N1  UNK     1      18.659  -1.754  35.710  1.00  0.00    -0.243 N 
HETATM    3  C22 UNK     1      18.369  -0.519  36.257  1.00  0.00     0.271 C 
HETATM    4  H22 UNK     1      18.789  -1.920  34.717  1.00  0.00     0.192 HD
ENDROOT
BRANCH   2   5
HETATM    5  N2  UNK     1      18.703  -2.831  36.531  1.00  0.00    -0.183 NA
HETATM    6  C21 UNK     1      19.419  -3.809  36.079  1.00  0.00     0.156 C 
BRANCH   6   7
HETATM    7  C12 UNK     1      19.592  -5.062  36.814  1.00  0.00     0.056 A 
HETATM    8  C10 UNK     1      20.798  -5.385  37.608  1.00  0.00     0.198 A 
HETATM    9  O3  UNK     1      21.742  -4.613  37.703  1.00  0.00    -0.286 OA
HETATM   10  C5  UNK     1      20.794  -6.698  38.281  1.00  0.00     0.049 A 
HETATM   11  C6  UNK     1      19.686  -7.533  38.134  1.00  0.00     0.089 A 
HETATM   12  C9  UNK     1      21.883  -7.103  39.057  1.00  0.00     0.025 A 
HETATM   13  C11 UNK     1      19.662  -8.778  38.761  1.00  0.00     0.039 A 
HETATM   14  O2  UNK     1      18.589  -7.187  37.384  1.00  0.00    -0.321 OA
HETATM   15  C13 UNK     1      20.748  -9.185  39.536  1.00  0.00     0.009 A 
HETATM   16  C8  UNK     1      21.855  -8.349  39.684  1.00  0.00    -0.061 A 
HETATM   17  C20 UNK     1      23.015  -8.790  40.515  1.00  0.00     0.048 C 
HETATM   18  C19 UNK     1      18.603  -5.961  36.761  1.00  0.00     0.159 A 
ENDBRANCH   6   7
ENDBRANCH   2   5
BRANCH   3  19
HETATM   19  C16 UNK     1      18.315   0.616  35.299  1.00  0.00     0.033 A 
HETATM   20  C17 UNK     1      18.312   1.904  35.793  1.00  0.00     0.020 A 
HETATM   21  C14 UNK     1      18.263   2.969  34.894  1.00  0.00     0.038 A 
HETATM   22  C7  UNK     1      18.218   2.724  33.522  1.00  0.00     0.068 A 
HETATM   23  C15 UNK     1      18.222   1.411  33.049  1.00  0.00     0.038 A 
HETATM   24  C18 UNK     1      18.271   0.346  33.947  1.00  0.00     0.020 A 
BRANCH  22  25
HETATM   25  O1  UNK     1      18.171   3.763  32.646  1.00  0.00    -0.351 OA
BRANCH  25  26
HETATM   26  C2  UNK     1      18.370   5.072  33.178  1.00  0.00     0.179 C 
BRANCH  26  27
HETATM   27  C1  UNK     1      19.146   5.931  32.174  1.00  0.00     0.002 C 
HETATM   28  C3  UNK     1      19.458   5.125  30.914  1.00  0.00     0.011 C 
HETATM   29  C4  UNK     1      20.436   6.477  32.789  1.00  0.00     0.011 C 
ENDBRANCH  26  27
ENDBRANCH  25  26
ENDBRANCH  22  25
ENDBRANCH   3  19
TORSDOF 6
ENDMDL
MODEL 7
REMARK VINA RESULT:      -8.7      2.477     10.889
REMARK  6 active torsions:
REMARK  status: ('A' for Active; 'I' for Inactive)
REMARK    1  A    between atoms: C2_8  and  O1_1 
REMARK    2  A    between atoms: C7_13  and  O1_1 
REMARK       I    between atoms: C22_28  and  N1_5 
REMARK    3  A    between atoms: N1_5  and  N2_6 
REMARK    4  A    between atoms: C1_7  and  C2_8 
REMARK    5  A    between atoms: C12_18  and  C21_27 
REMARK    6  A    between atoms: C16_22  and  C22_28 
ROOT
HETATM    1  O4  UNK     1      21.133  -3.225  36.430  1.00  0.00    -0.266 OA
HETATM    2  N1  UNK     1      18.829  -3.000  36.373  1.00  0.00    -0.243 N 
HETATM    3  C22 UNK     1      20.007  -3.712  36.502  1.00  0.00     0.271 C 
HETATM    4  H22 UNK     1      17.906  -3.423  36.379  1.00  0.00     0.192 HD
ENDROOT
BRANCH   2   5
HETATM    5  N2  UNK     1      18.901  -1.666  36.150  1.00  0.00    -0.183 NA
HETATM    6  C21 UNK     1      18.374  -1.290  35.030  1.00  0.00     0.156 C 
BRANCH   6   7
HETATM    7  C12 UNK     1      18.351   0.109  34.603  1.00  0.00     0.056 A 
HETATM    8  C10 UNK     1      18.471   0.537  33.191  1.00  0.00     0.198 A 
HETATM    9  O3  UNK     1      18.598  -0.265  32.277  1.00  0.00    -0.286 OA
HETATM   10  C5  UNK     1      18.427   1.991  32.953  1.00  0.00     0.049 A 
HETATM   11  C6  UNK     1      18.281   2.854  34.040  1.00  0.00     0.089 A 
HETATM   12  C9  UNK     1      18.532   2.503  31.657  1.00  0.00     0.025 A 
HETATM   13  C11 UNK     1      18.238   4.233  33.836  1.00  0.00     0.039 A 
HETATM   14  O2  UNK     1      18.175   2.408  35.334  1.00  0.00    -0.321 OA
HETATM   15  C13 UNK     1      18.342   4.746  32.543  1.00  0.00     0.009 A 
HETATM   16  C8  UNK     1      18.488   3.883  31.456  1.00  0.00    -0.061 A 
HETATM   17  C20 UNK     1      18.598   4.438  30.075  1.00  0.00     0.048 C 
HETATM   18  C19 UNK     1      18.216   1.049  35.545  1.00  0.00     0.159 A 
ENDBRANCH   6   7
ENDBRANCH   2   5
BRANCH   3  19
HETATM   19  C16 UNK     1      19.858  -5.174  36.723  1.00  0.00     0.033 A 
HETATM   20  C17 UNK     1      19.370  -5.956  35.697  1.00  0.00     0.020 A 
HETATM   21  C14 UNK     1      19.230  -7.328  35.904  1.00  0.00     0.038 A 
HETATM   22  C7  UNK     1      19.581  -7.888  37.132  1.00  0.00     0.068 A 
HETATM   23  C15 UNK     1      20.072  -7.074  38.154  1.00  0.00     0.038 A 
HETATM   24  C18 UNK     1      20.212  -5.702  37.947  1.00  0.00     0.020 A 
BRANCH  22  25
HETATM   25  O1  UNK     1      19.447  -9.227  37.334  1.00  0.00    -0.351 OA
BRANCH  25  26
HETATM   26  C2  UNK     1      20.646  -9.984  37.492  1.00  0.00     0.179 C 
BRANCH  26  27
HETATM   27  C1  UNK     1      21.558  -9.775  36.280  1.00  0.00     0.002 C 
HETATM   28  C3  UNK     1      21.724 -11.083  35.506  1.00  0.00     0.011 C 
HETATM   29  C4  UNK     1      22.925  -9.229  36.698  1.00  0.00     0.011 C 
ENDBRANCH  26  27
ENDBRANCH  25  26
ENDBRANCH  22  25
ENDBRANCH   3  19
TORSDOF 6
ENDMDL
MODEL 8
REMARK VINA RESULT:      -8.6      1.118      1.942
REMARK  6 active torsions:
REMARK  status: ('A' for Active; 'I' for Inactive)
REMARK    1  A    between atoms: C2_8  and  O1_1 
REMARK    2  A    between atoms: C7_13  and  O1_1 
REMARK       I    between atoms: C22_28  and  N1_5 
REMARK    3  A    between atoms: N1_5  and  N2_6 
REMARK    4  A    between atoms: C1_7  and  C2_8 
REMARK    5  A    between atoms: C12_18  and  C21_27 
REMARK    6  A    between atoms: C16_22  and  C22_28 
ROOT
HETATM    1  O4  UNK     1      21.000  -3.488  32.252  1.00  0.00    -0.266 OA
HETATM    2  N1  UNK     1      20.039  -2.670  34.194  1.00  0.00    -0.243 N 
HETATM    3  C22 UNK     1      20.407  -2.601  32.864  1.00  0.00     0.271 C 
HETATM    4  H22 UNK     1      19.599  -1.909  34.702  1.00  0.00     0.192 HD
ENDROOT
BRANCH   2   5
HETATM    5  N2  UNK     1      20.344  -3.790  34.893  1.00  0.00    -0.183 NA
HETATM    6  C21 UNK     1      19.469  -4.104  35.792  1.00  0.00     0.156 C 
BRANCH   6   7
HETATM    7  C12 UNK     1      19.616  -5.277  36.654  1.00  0.00     0.056 A 
HETATM    8  C10 UNK     1      20.836  -5.569  37.439  1.00  0.00     0.198 A 
HETATM    9  O3  UNK     1      21.815  -4.837  37.416  1.00  0.00    -0.286 OA
HETATM   10  C5  UNK     1      20.801  -6.800  38.251  1.00  0.00     0.049 A 
HETATM   11  C6  UNK     1      19.653  -7.593  38.233  1.00  0.00     0.089 A 
HETATM   12  C9  UNK     1      21.900  -7.170  39.030  1.00  0.00     0.025 A 
HETATM   13  C11 UNK     1      19.598  -8.761  38.994  1.00  0.00     0.039 A 
HETATM   14  O2  UNK     1      18.544  -7.278  37.487  1.00  0.00    -0.321 OA
HETATM   15  C13 UNK     1      20.695  -9.132  39.772  1.00  0.00     0.009 A 
HETATM   16  C8  UNK     1      21.843  -8.338  39.790  1.00  0.00    -0.061 A 
HETATM   17  C20 UNK     1      23.012  -8.741  40.625  1.00  0.00     0.048 C 
HETATM   18  C19 UNK     1      18.588  -6.129  36.733  1.00  0.00     0.159 A 
ENDBRANCH   6   7
ENDBRANCH   2   5
BRANCH   3  19
HETATM   19  C16 UNK     1      20.061  -1.338  32.162  1.00  0.00     0.033 A 
HETATM   20  C17 UNK     1      19.065  -0.539  32.682  1.00  0.00     0.020 A 
HETATM   21  C14 UNK     1      18.740   0.647  32.024  1.00  0.00     0.038 A 
HETATM   22  C7  UNK     1      19.418   1.008  30.860  1.00  0.00     0.068 A 
HETATM   23  C15 UNK     1      20.423   0.181  30.355  1.00  0.00     0.038 A 
HETATM   24  C18 UNK     1      20.748  -1.004  31.013  1.00  0.00     0.020 A 
BRANCH  22  25
HETATM   25  O1  UNK     1      19.103   2.165  30.219  1.00  0.00    -0.351 OA
BRANCH  25  26
HETATM   26  C2  UNK     1      17.886   2.807  30.597  1.00  0.00     0.179 C 
BRANCH  26  27
HETATM   27  C1  UNK     1      18.180   4.215  31.121  1.00  0.00     0.002 C 
HETATM   28  C3  UNK     1      19.478   4.748  30.518  1.00  0.00     0.011 C 
HETATM   29  C4  UNK     1      18.257   4.236  32.649  1.00  0.00     0.011 C 
ENDBRANCH  26  27
ENDBRANCH  25  26
ENDBRANCH  22  25
ENDBRANCH   3  19
TORSDOF 6
ENDMDL
MODEL 9
REMARK VINA RESULT:      -8.6      5.807     10.110
REMARK  6 active torsions:
REMARK  status: ('A' for Active; 'I' for Inactive)
REMARK    1  A    between atoms: C2_8  and  O1_1 
REMARK    2  A    between atoms: C7_13  and  O1_1 
REMARK       I    between atoms: C22_28  and  N1_5 
REMARK    3  A    between atoms: N1_5  and  N2_6 
REMARK    4  A    between atoms: C1_7  and  C2_8 
REMARK    5  A    between atoms: C12_18  and  C21_27 
REMARK    6  A    between atoms: C16_22  and  C22_28 
ROOT
HETATM    1  O4  UNK     1      19.498   6.367  32.863  1.00  0.00    -0.266 OA
HETATM    2  N1  UNK     1      17.518   5.170  32.935  1.00  0.00    -0.243 N 
HETATM    3  C22 UNK     1      18.285   6.314  33.052  1.00  0.00     0.271 C 
HETATM    4  H22 UNK     1      16.526   5.127  33.147  1.00  0.00     0.192 HD
ENDROOT
BRANCH   2   5
HETATM    5  N2  UNK     1      18.130   4.012  32.589  1.00  0.00    -0.183 NA
HETATM    6  C21 UNK     1      17.952   3.671  31.354  1.00  0.00     0.156 C 
BRANCH   6   7
HETATM    7  C12 UNK     1      18.528   2.453  30.784  1.00  0.00     0.056 A 
HETATM    8  C10 UNK     1      18.927   1.280  31.594  1.00  0.00     0.198 A 
HETATM    9  O3  UNK     1      18.796   1.253  32.809  1.00  0.00    -0.286 OA
HETATM   10  C5  UNK     1      19.492   0.142  30.844  1.00  0.00     0.049 A 
HETATM   11  C6  UNK     1      19.615   0.236  29.457  1.00  0.00     0.089 A 
HETATM   12  C9  UNK     1      19.900  -1.016  31.511  1.00  0.00     0.025 A 
HETATM   13  C11 UNK     1      20.147  -0.828  28.730  1.00  0.00     0.039 A 
HETATM   14  O2  UNK     1      19.231   1.349  28.751  1.00  0.00    -0.321 OA
HETATM   15  C13 UNK     1      20.555  -1.986  29.393  1.00  0.00     0.009 A 
HETATM   16  C8  UNK     1      20.431  -2.079  30.780  1.00  0.00    -0.061 A 
HETATM   17  C20 UNK     1      20.870  -3.321  31.483  1.00  0.00     0.048 C 
HETATM   18  C19 UNK     1      18.705   2.404  29.459  1.00  0.00     0.159 A 
ENDBRANCH   6   7
ENDBRANCH   2   5
BRANCH   3  19
HETATM   19  C16 UNK     1      17.555   7.544  33.455  1.00  0.00     0.033 A 
HETATM   20  C17 UNK     1      18.255   8.727  33.563  1.00  0.00     0.020 A 
HETATM   21  C14 UNK     1      17.571   9.882  33.941  1.00  0.00     0.038 A 
HETATM   22  C7  UNK     1      16.202   9.829  34.202  1.00  0.00     0.068 A 
HETATM   23  C15 UNK     1      15.517   8.618  34.084  1.00  0.00     0.038 A 
HETATM   24  C18 UNK     1      16.202   7.463  33.707  1.00  0.00     0.020 A 
BRANCH  22  25
HETATM   25  O1  UNK     1      15.534  10.955  34.569  1.00  0.00    -0.351 OA
BRANCH  25  26
HETATM   26  C2  UNK     1      14.242  10.785  35.152  1.00  0.00     0.179 C 
BRANCH  26  27
HETATM   27  C1  UNK     1      14.119  11.651  36.409  1.00  0.00     0.002 C 
HETATM   28  C3  UNK     1      12.694  12.184  36.550  1.00  0.00     0.011 C 
HETATM   29  C4  UNK     1      15.120  12.808  36.388  1.00  0.00     0.011 C 
ENDBRANCH  26  27
ENDBRANCH  25  26
ENDBRANCH  22  25
ENDBRANCH   3  19
TORSDOF 6
ENDMDL
MODEL 10
REMARK VINA RESULT:      -8.4      1.566      1.884
REMARK  6 active torsions:
REMARK  status: ('A' for Active; 'I' for Inactive)
REMARK    1  A    between atoms: C2_8  and  O1_1 
REMARK    2  A    between atoms: C7_13  and  O1_1 
REMARK       I    between atoms: C22_28  and  N1_5 
REMARK    3  A    between atoms: N1_5  and  N2_6 
REMARK    4  A    between atoms: C1_7  and  C2_8 
REMARK    5  A    between atoms: C12_18  and  C21_27 
REMARK    6  A    between atoms: C16_22  and  C22_28 
ROOT
HETATM    1  O4  UNK     1      20.200  -2.315  32.023  1.00  0.00    -0.266 OA
HETATM    2  N1  UNK     1      19.744  -1.970  34.267  1.00  0.00    -0.243 N 
HETATM    3  C22 UNK     1      19.769  -1.609  32.933  1.00  0.00     0.271 C 
HETATM    4  H22 UNK     1      19.436  -1.357  35.016  1.00  0.00     0.192 HD
ENDROOT
BRANCH   2   5
HETATM    5  N2  UNK     1      20.225  -3.187  34.618  1.00  0.00    -0.183 NA
HETATM    6  C21 UNK     1      19.757  -3.635  35.737  1.00  0.00     0.156 C 
BRANCH   6   7
HETATM    7  C12 UNK     1      20.153  -4.930  36.292  1.00  0.00     0.056 A 
HETATM    8  C10 UNK     1      20.375  -6.140  35.469  1.00  0.00     0.198 A 
HETATM    9  O3  UNK     1      20.241  -6.134  34.254  1.00  0.00    -0.286 OA
HETATM   10  C5  UNK     1      20.770  -7.356  36.204  1.00  0.00     0.049 A 
HETATM   11  C6  UNK     1      20.906  -7.297  37.592  1.00  0.00     0.089 A 
HETATM   12  C9  UNK     1      21.005  -8.554  35.524  1.00  0.00     0.025 A 
HETATM   13  C11 UNK     1      21.278  -8.435  38.306  1.00  0.00     0.039 A 
HETATM   14  O2  UNK     1      20.688  -6.148  38.311  1.00  0.00    -0.321 OA
HETATM   15  C13 UNK     1      21.513  -9.632  37.629  1.00  0.00     0.009 A 
HETATM   16  C8  UNK     1      21.378  -9.691  36.242  1.00  0.00    -0.061 A 
HETATM   17  C20 UNK     1      21.631 -10.974  35.523  1.00  0.00     0.048 C 
HETATM   18  C19 UNK     1      20.321  -5.020  37.616  1.00  0.00     0.159 A 
ENDBRANCH   6   7
ENDBRANCH   2   5
BRANCH   3  19
HETATM   19  C16 UNK     1      19.247  -0.254  32.620  1.00  0.00     0.033 A 
HETATM   20  C17 UNK     1      18.593   0.452  33.608  1.00  0.00     0.020 A 
HETATM   21  C14 UNK     1      18.103   1.724  33.315  1.00  0.00     0.038 A 
HETATM   22  C7  UNK     1      18.277   2.263  32.040  1.00  0.00     0.068 A 
HETATM   23  C15 UNK     1      18.942   1.527  31.058  1.00  0.00     0.038 A 
HETATM   24  C18 UNK     1      19.432   0.255  31.352  1.00  0.00     0.020 A 
BRANCH  22  25
HETATM   25  O1  UNK     1      17.801   3.504  31.754  1.00  0.00    -0.351 OA
BRANCH  25  26
HETATM   26  C2  UNK     1      18.669   4.386  31.044  1.00  0.00     0.179 C 
BRANCH  26  27
HETATM   27  C1  UNK     1      18.535   5.808  31.597  1.00  0.00     0.002 C 
HETATM   28  C3  UNK     1      19.843   6.250  32.251  1.00  0.00     0.011 C 
HETATM   29  C4  UNK     1      17.381   5.910  32.596  1.00  0.00     0.011 C 
ENDBRANCH  26  27
ENDBRANCH  25  26
ENDBRANCH  22  25
ENDBRANCH   3  19
TORSDOF 6
ENDMDL
