MODEL 1
REMARK VINA RESULT:     -10.6      0.000      0.000
REMARK  5 active torsions:
REMARK  status: ('A' for Active; 'I' for Inactive)
REMARK    1  A    between atoms: C5_12  and  N1_5 
REMARK    2  A    between atoms: C6_13  and  N2_6 
REMARK    3  A    between atoms: C17_24  and  N3_7 
REMARK       I    between atoms: C9_16  and  N3_7 
REMARK    4  A    between atoms: C5_12  and  C7_14 
REMARK    5  A    between atoms: C6_13  and  C9_16 
ROOT
HETATM    1  N1  UNK     1      19.264  -3.229  36.071  1.00  0.00     0.096 N 
HETATM    2  N2  UNK     1      18.432  -0.601  35.199  1.00  0.00     0.100 N 
HETATM    3  C1  UNK     1      20.143  -2.383  35.255  1.00  0.00     0.303 C 
HETATM    4  C2  UNK     1      18.371  -2.400  36.892  1.00  0.00     0.303 C 
HETATM    5  C3  UNK     1      19.323  -1.430  34.378  1.00  0.00     0.303 C 
HETATM    6  C4  UNK     1      17.552  -1.447  36.016  1.00  0.00     0.303 C 
ENDROOT
BRANCH   1   7
HETATM    7  C5  UNK     1      20.047  -4.135  36.910  1.00  0.00     0.312 C 
BRANCH   7   8
HETATM    8  C7  UNK     1      20.103  -5.513  36.348  1.00  0.00    -0.011 A 
HETATM    9  C10 UNK     1      20.237  -5.721  35.031  1.00  0.00     0.092 A 
HETATM   10  C13 UNK     1      20.296  -7.065  34.431  1.00  0.00     0.288 A 
HETATM   11  O1  UNK     1      20.208  -8.139  35.302  1.00  0.00    -0.275 OA
HETATM   12  O3  UNK     1      20.419  -7.216  33.220  1.00  0.00    -0.260 OA
HETATM   13  C11 UNK     1      20.068  -7.953  36.691  1.00  0.00     0.090 A 
HETATM   14  C8  UNK     1      20.011  -6.674  37.245  1.00  0.00     0.006 A 
HETATM   15  C14 UNK     1      19.988  -9.108  37.472  1.00  0.00     0.045 A 
HETATM   16  C12 UNK     1      19.870  -6.573  38.636  1.00  0.00     0.015 A 
HETATM   17  C16 UNK     1      19.789  -7.721  39.432  1.00  0.00     0.007 A 
HETATM   18  C15 UNK     1      19.848  -8.986  38.850  1.00  0.00    -0.059 A 
HETATM   19  C19 UNK     1      19.761 -10.207  39.704  1.00  0.00     0.048 C 
ENDBRANCH   7   8
ENDBRANCH   1   7
BRANCH   2  20
HETATM   20  C6  UNK     1      17.650   0.306  34.362  1.00  0.00     0.375 C 
BRANCH  20  21
HETATM   21  C9  UNK     1      18.298   1.681  34.364  1.00  0.00     0.250 C 
HETATM   22  O2  UNK     1      19.097   2.033  35.225  1.00  0.00    -0.271 OA
HETATM   23  N3  UNK     1      17.854   2.425  33.273  1.00  0.00    -0.325 N 
HETATM   24  H15 UNK     1      17.194   1.969  32.650  1.00  0.00     0.169 HD
BRANCH  23  25
HETATM   25  C17 UNK     1      18.220   3.745  32.923  1.00  0.00     0.042 A 
HETATM   26  C18 UNK     1      18.529   4.080  31.604  1.00  0.00    -0.013 A 
HETATM   27  C21 UNK     1      18.885   5.389  31.281  1.00  0.00     0.042 A 
HETATM   28  C22 UNK     1      18.473   3.024  30.542  1.00  0.00     0.052 C 
HETATM   29 Cl1  UNK     1      19.275   5.845  29.662  1.00  0.00    -0.084 Cl
HETATM   30  C24 UNK     1      18.933   6.365  32.278  1.00  0.00     0.024 A 
HETATM   31  C23 UNK     1      18.624   6.030  33.597  1.00  0.00     0.004 A 
HETATM   32  C20 UNK     1      18.267   4.721  33.918  1.00  0.00     0.030 A 
ENDBRANCH  23  25
ENDBRANCH  20  21
ENDBRANCH   2  20
TORSDOF 5
ENDMDL
MODEL 2
REMARK VINA RESULT:     -10.3      1.514      1.751
REMARK  5 active torsions:
REMARK  status: ('A' for Active; 'I' for Inactive)
REMARK    1  A    between atoms: C5_12  and  N1_5 
REMARK    2  A    between atoms: C6_13  and  N2_6 
REMARK    3  A    between atoms: C17_24  and  N3_7 
REMARK       I    between atoms: C9_16  and  N3_7 
REMARK    4  A    between atoms: C5_12  and  C7_14 
REMARK    5  A    between atoms: C6_13  and  C9_16 
ROOT
HETATM    1  N1  UNK     1      19.465  -2.800  35.889  1.00  0.00     0.096 N 
HETATM    2  N2  UNK     1      18.585  -0.171  35.068  1.00  0.00     0.100 N 
HETATM    3  C1  UNK     1      20.054  -2.128  34.724  1.00  0.00     0.303 C 
HETATM    4  C2  UNK     1      18.998  -1.811  36.870  1.00  0.00     0.303 C 
HETATM    5  C3  UNK     1      19.051  -1.158  34.088  1.00  0.00     0.303 C 
HETATM    6  C4  UNK     1      17.996  -0.842  36.233  1.00  0.00     0.303 C 
ENDROOT
BRANCH   1   7
HETATM    7  C5  UNK     1      20.424  -3.721  36.496  1.00  0.00     0.312 C 
BRANCH   7   8
HETATM    8  C7  UNK     1      19.781  -4.990  36.938  1.00  0.00    -0.011 A 
HETATM    9  C10 UNK     1      18.546  -5.319  36.537  1.00  0.00     0.092 A 
HETATM   10  C13 UNK     1      17.871  -6.562  36.948  1.00  0.00     0.288 A 
HETATM   11  O1  UNK     1      18.581  -7.406  37.788  1.00  0.00    -0.275 OA
HETATM   12  O3  UNK     1      16.739  -6.829  36.560  1.00  0.00    -0.260 OA
HETATM   13  C11 UNK     1      19.881  -7.088  38.226  1.00  0.00     0.090 A 
HETATM   14  C8  UNK     1      20.508  -5.906  37.829  1.00  0.00     0.006 A 
HETATM   15  C14 UNK     1      20.500  -8.012  39.070  1.00  0.00     0.045 A 
HETATM   16  C12 UNK     1      21.802  -5.662  38.309  1.00  0.00     0.015 A 
HETATM   17  C16 UNK     1      22.435  -6.580  39.155  1.00  0.00     0.007 A 
HETATM   18  C15 UNK     1      21.785  -7.752  39.535  1.00  0.00    -0.059 A 
HETATM   19  C19 UNK     1      22.466  -8.725  40.438  1.00  0.00     0.048 C 
ENDBRANCH   7   8
ENDBRANCH   1   7
BRANCH   2  20
HETATM   20  C6  UNK     1      17.628   0.752  34.461  1.00  0.00     0.375 C 
BRANCH  20  21
HETATM   21  C9  UNK     1      18.225   2.149  34.427  1.00  0.00     0.250 C 
HETATM   22  O2  UNK     1      18.941   2.584  35.322  1.00  0.00    -0.271 OA
HETATM   23  N3  UNK     1      17.842   2.808  33.260  1.00  0.00    -0.325 N 
HETATM   24  H15 UNK     1      17.249   2.289  32.618  1.00  0.00     0.169 HD
BRANCH  23  25
HETATM   25  C17 UNK     1      18.187   4.118  32.856  1.00  0.00     0.042 A 
HETATM   26  C18 UNK     1      18.643   4.376  31.562  1.00  0.00    -0.013 A 
HETATM   27  C21 UNK     1      18.976   5.676  31.186  1.00  0.00     0.042 A 
HETATM   28  C22 UNK     1      18.770   3.246  30.587  1.00  0.00     0.052 C 
HETATM   29 Cl1  UNK     1      19.545   6.038  29.597  1.00  0.00    -0.084 Cl
HETATM   30  C24 UNK     1      18.854   6.721  32.103  1.00  0.00     0.024 A 
HETATM   31  C23 UNK     1      18.397   6.464  33.396  1.00  0.00     0.004 A 
HETATM   32  C20 UNK     1      18.064   5.163  33.772  1.00  0.00     0.030 A 
ENDBRANCH  23  25
ENDBRANCH  20  21
ENDBRANCH   2  20
TORSDOF 5
ENDMDL
MODEL 3
REMARK VINA RESULT:     -10.0      6.399     12.925
REMARK  5 active torsions:
REMARK  status: ('A' for Active; 'I' for Inactive)
REMARK    1  A    between atoms: C5_12  and  N1_5 
REMARK    2  A    between atoms: C6_13  and  N2_6 
REMARK    3  A    between atoms: C17_24  and  N3_7 
REMARK       I    between atoms: C9_16  and  N3_7 
REMARK    4  A    between atoms: C5_12  and  C7_14 
REMARK    5  A    between atoms: C6_13  and  C9_16 
ROOT
HETATM    1  N1  UNK     1      18.234   6.147  32.126  1.00  0.00     0.096 N 
HETATM    2  N2  UNK     1      18.928   4.144  30.160  1.00  0.00     0.100 N 
HETATM    3  C1  UNK     1      18.128   4.714  32.427  1.00  0.00     0.303 C 
HETATM    4  C2  UNK     1      19.291   6.386  31.133  1.00  0.00     0.303 C 
HETATM    5  C3  UNK     1      17.871   3.905  31.150  1.00  0.00     0.303 C 
HETATM    6  C4  UNK     1      19.035   5.576  29.858  1.00  0.00     0.303 C 
ENDROOT
BRANCH   1   7
HETATM    7  C5  UNK     1      18.482   6.916  33.343  1.00  0.00     0.312 C 
BRANCH   7   8
HETATM    8  C7  UNK     1      17.359   7.841  33.663  1.00  0.00    -0.011 A 
HETATM    9  C10 UNK     1      16.095   7.400  33.731  1.00  0.00     0.092 A 
HETATM   10  C13 UNK     1      14.953   8.276  34.043  1.00  0.00     0.288 A 
HETATM   11  O1  UNK     1      15.240   9.613  34.272  1.00  0.00    -0.275 OA
HETATM   12  O3  UNK     1      13.810   7.836  34.097  1.00  0.00    -0.260 OA
HETATM   13  C11 UNK     1      16.558  10.106  34.207  1.00  0.00     0.090 A 
HETATM   14  C8  UNK     1      17.630   9.264  33.910  1.00  0.00     0.006 A 
HETATM   15  C14 UNK     1      16.728  11.470  34.455  1.00  0.00     0.045 A 
HETATM   16  C12 UNK     1      18.910   9.832  33.864  1.00  0.00     0.015 A 
HETATM   17  C16 UNK     1      19.096  11.197  34.110  1.00  0.00     0.007 A 
HETATM   18  C15 UNK     1      18.007  12.014  34.405  1.00  0.00    -0.059 A 
HETATM   19  C19 UNK     1      18.212  13.469  34.666  1.00  0.00     0.048 C 
ENDBRANCH   7   8
ENDBRANCH   1   7
BRANCH   2  20
HETATM   20  C6  UNK     1      18.682   3.373  28.943  1.00  0.00     0.375 C 
BRANCH  20  21
HETATM   21  C9  UNK     1      18.520   1.905  29.298  1.00  0.00     0.250 C 
HETATM   22  O2  UNK     1      17.461   1.303  29.156  1.00  0.00    -0.271 OA
HETATM   23  N3  UNK     1      19.721   1.391  29.782  1.00  0.00    -0.325 N 
HETATM   24  H15 UNK     1      20.508   2.033  29.823  1.00  0.00     0.169 HD
BRANCH  23  25
HETATM   25  C17 UNK     1      19.982   0.070  30.218  1.00  0.00     0.042 A 
HETATM   26  C18 UNK     1      19.673  -0.332  31.517  1.00  0.00    -0.013 A 
HETATM   27  C21 UNK     1      19.938  -1.639  31.925  1.00  0.00     0.042 A 
HETATM   28  C22 UNK     1      19.055   0.650  32.466  1.00  0.00     0.052 C 
HETATM   29 Cl1  UNK     1      19.572  -2.177  33.524  1.00  0.00    -0.084 Cl
HETATM   30  C24 UNK     1      20.513  -2.545  31.032  1.00  0.00     0.024 A 
HETATM   31  C23 UNK     1      20.822  -2.143  29.733  1.00  0.00     0.004 A 
HETATM   32  C20 UNK     1      20.556  -0.835  29.326  1.00  0.00     0.030 A 
ENDBRANCH  23  25
ENDBRANCH  20  21
ENDBRANCH   2  20
TORSDOF 5
ENDMDL
MODEL 4
REMARK VINA RESULT:      -9.9      2.657      3.644
REMARK  5 active torsions:
REMARK  status: ('A' for Active; 'I' for Inactive)
REMARK    1  A    between atoms: C5_12  and  N1_5 
REMARK    2  A    between atoms: C6_13  and  N2_6 
REMARK    3  A    between atoms: C17_24  and  N3_7 
REMARK       I    between atoms: C9_16  and  N3_7 
REMARK    4  A    between atoms: C5_12  and  C7_14 
REMARK    5  A    between atoms: C6_13  and  C9_16 
ROOT
HETATM    1  N1  UNK     1      19.539  -4.144  36.587  1.00  0.00     0.096 N 
HETATM    2  N2  UNK     1      18.681  -1.561  35.611  1.00  0.00     0.100 N 
HETATM    3  C1  UNK     1      18.171  -3.660  36.812  1.00  0.00     0.303 C 
HETATM    4  C2  UNK     1      20.087  -3.576  35.349  1.00  0.00     0.303 C 
HETATM    5  C3  UNK     1      18.134  -2.127  36.850  1.00  0.00     0.303 C 
HETATM    6  C4  UNK     1      20.049  -2.045  35.386  1.00  0.00     0.303 C 
ENDROOT
BRANCH   1   7
HETATM    7  C5  UNK     1      19.573  -5.604  36.548  1.00  0.00     0.312 C 
BRANCH   7   8
HETATM    8  C7  UNK     1      20.830  -6.153  37.129  1.00  0.00    -0.011 A 
HETATM    9  C10 UNK     1      21.536  -5.462  38.034  1.00  0.00     0.092 A 
HETATM   10  C13 UNK     1      22.783  -5.965  38.634  1.00  0.00     0.288 A 
HETATM   11  O1  UNK     1      23.214  -7.215  38.219  1.00  0.00    -0.275 OA
HETATM   12  O3  UNK     1      23.403  -5.303  39.460  1.00  0.00    -0.260 OA
HETATM   13  C11 UNK     1      22.493  -7.966  37.270  1.00  0.00     0.090 A 
HETATM   14  C8  UNK     1      21.313  -7.477  36.708  1.00  0.00     0.006 A 
HETATM   15  C14 UNK     1      23.021  -9.212  36.926  1.00  0.00     0.045 A 
HETATM   16  C12 UNK     1      20.655  -8.284  35.771  1.00  0.00     0.015 A 
HETATM   17  C16 UNK     1      21.172  -9.535  35.417  1.00  0.00     0.007 A 
HETATM   18  C15 UNK     1      22.353  -9.998  35.994  1.00  0.00    -0.059 A 
HETATM   19  C19 UNK     1      22.899 -11.333  35.611  1.00  0.00     0.048 C 
ENDBRANCH   7   8
ENDBRANCH   1   7
BRANCH   2  20
HETATM   20  C6  UNK     1      18.646  -0.101  35.649  1.00  0.00     0.375 C 
BRANCH  20  21
HETATM   21  C9  UNK     1      18.027   0.423  34.363  1.00  0.00     0.250 C 
HETATM   22  O2  UNK     1      16.824   0.625  34.243  1.00  0.00    -0.271 OA
HETATM   23  N3  UNK     1      19.015   0.628  33.402  1.00  0.00    -0.325 N 
HETATM   24  H15 UNK     1      19.970   0.416  33.678  1.00  0.00     0.169 HD
BRANCH  23  25
HETATM   25  C17 UNK     1      18.849   1.106  32.081  1.00  0.00     0.042 A 
HETATM   26  C18 UNK     1      19.199   0.320  30.983  1.00  0.00    -0.013 A 
HETATM   27  C21 UNK     1      19.025   0.811  29.689  1.00  0.00     0.042 A 
HETATM   28  C22 UNK     1      19.760  -1.052  31.206  1.00  0.00     0.052 C 
HETATM   29 Cl1  UNK     1      19.445  -0.128  28.303  1.00  0.00    -0.084 Cl
HETATM   30  C24 UNK     1      18.500   2.090  29.493  1.00  0.00     0.024 A 
HETATM   31  C23 UNK     1      18.150   2.876  30.592  1.00  0.00     0.004 A 
HETATM   32  C20 UNK     1      18.325   2.383  31.885  1.00  0.00     0.030 A 
ENDBRANCH  23  25
ENDBRANCH  20  21
ENDBRANCH   2  20
TORSDOF 5
ENDMDL
MODEL 5
REMARK VINA RESULT:      -9.8      1.889      2.816
REMARK  5 active torsions:
REMARK  status: ('A' for Active; 'I' for Inactive)
REMARK    1  A    between atoms: C5_12  and  N1_5 
REMARK    2  A    between atoms: C6_13  and  N2_6 
REMARK    3  A    between atoms: C17_24  and  N3_7 
REMARK       I    between atoms: C9_16  and  N3_7 
REMARK    4  A    between atoms: C5_12  and  C7_14 
REMARK    5  A    between atoms: C6_13  and  C9_16 
ROOT
HETATM    1  N1  UNK     1      19.524  -3.586  36.482  1.00  0.00     0.096 N 
HETATM    2  N2  UNK     1      18.945  -0.789  36.033  1.00  0.00     0.100 N 
HETATM    3  C1  UNK     1      20.552  -2.666  35.980  1.00  0.00     0.303 C 
HETATM    4  C2  UNK     1      18.552  -2.865  37.314  1.00  0.00     0.303 C 
HETATM    5  C3  UNK     1      19.915  -1.509  35.200  1.00  0.00     0.303 C 
HETATM    6  C4  UNK     1      17.917  -1.709  36.535  1.00  0.00     0.303 C 
ENDROOT
BRANCH   1   7
HETATM    7  C5  UNK     1      20.132  -4.686  37.229  1.00  0.00     0.312 C 
BRANCH   7   8
HETATM    8  C7  UNK     1      20.162  -5.950  36.442  1.00  0.00    -0.011 A 
HETATM    9  C10 UNK     1      20.379  -5.940  35.120  1.00  0.00     0.092 A 
HETATM   10  C13 UNK     1      20.417  -7.164  34.302  1.00  0.00     0.288 A 
HETATM   11  O1  UNK     1      20.216  -8.363  34.967  1.00  0.00    -0.275 OA
HETATM   12  O3  UNK     1      20.619  -7.115  33.093  1.00  0.00    -0.260 OA
HETATM   13  C11 UNK     1      19.987  -8.406  36.356  1.00  0.00     0.090 A 
HETATM   14  C8  UNK     1      19.952  -7.238  37.119  1.00  0.00     0.006 A 
HETATM   15  C14 UNK     1      19.797  -9.669  36.920  1.00  0.00     0.045 A 
HETATM   16  C12 UNK     1      19.717  -7.365  38.494  1.00  0.00     0.015 A 
HETATM   17  C16 UNK     1      19.526  -8.625  39.073  1.00  0.00     0.007 A 
HETATM   18  C15 UNK     1      19.565  -9.775  38.287  1.00  0.00    -0.059 A 
HETATM   19  C19 UNK     1      19.360 -11.114  38.911  1.00  0.00     0.048 C 
ENDBRANCH   7   8
ENDBRANCH   1   7
BRANCH   2  20
HETATM   20  C6  UNK     1      18.338   0.312  35.288  1.00  0.00     0.375 C 
BRANCH  20  21
HETATM   21  C9  UNK     1      18.148  -0.103  33.839  1.00  0.00     0.250 C 
HETATM   22  O2  UNK     1      17.294  -0.912  33.490  1.00  0.00    -0.271 OA
HETATM   23  N3  UNK     1      19.058   0.565  33.023  1.00  0.00    -0.325 N 
HETATM   24  H15 UNK     1      19.692   1.212  33.483  1.00  0.00     0.169 HD
BRANCH  23  25
HETATM   25  C17 UNK     1      19.203   0.454  31.620  1.00  0.00     0.042 A 
HETATM   26  C18 UNK     1      18.651   1.406  30.762  1.00  0.00    -0.013 A 
HETATM   27  C21 UNK     1      18.808   1.277  29.383  1.00  0.00     0.042 A 
HETATM   28  C22 UNK     1      17.892   2.564  31.336  1.00  0.00     0.052 C 
HETATM   29 Cl1  UNK     1      18.140   2.432  28.287  1.00  0.00    -0.084 Cl
HETATM   30  C24 UNK     1      19.517   0.195  28.859  1.00  0.00     0.024 A 
HETATM   31  C23 UNK     1      20.070  -0.757  29.717  1.00  0.00     0.004 A 
HETATM   32  C20 UNK     1      19.913  -0.627  31.097  1.00  0.00     0.030 A 
ENDBRANCH  23  25
ENDBRANCH  20  21
ENDBRANCH   2  20
TORSDOF 5
ENDMDL
MODEL 6
REMARK VINA RESULT:      -9.8      6.489     12.565
REMARK  5 active torsions:
REMARK  status: ('A' for Active; 'I' for Inactive)
REMARK    1  A    between atoms: C5_12  and  N1_5 
REMARK    2  A    between atoms: C6_13  and  N2_6 
REMARK    3  A    between atoms: C17_24  and  N3_7 
REMARK       I    between atoms: C9_16  and  N3_7 
REMARK    4  A    between atoms: C5_12  and  C7_14 
REMARK    5  A    between atoms: C6_13  and  C9_16 
ROOT
HETATM    1  N1  UNK     1      18.324   5.747  32.848  1.00  0.00     0.096 N 
HETATM    2  N2  UNK     1      18.830   4.101  30.525  1.00  0.00     0.100 N 
HETATM    3  C1  UNK     1      18.207   4.286  32.909  1.00  0.00     0.303 C 
HETATM    4  C2  UNK     1      19.312   6.141  31.835  1.00  0.00     0.303 C 
HETATM    5  C3  UNK     1      17.841   3.709  31.537  1.00  0.00     0.303 C 
HETATM    6  C4  UNK     1      18.948   5.563  30.463  1.00  0.00     0.303 C 
ENDROOT
BRANCH   1   7
HETATM    7  C5  UNK     1      18.676   6.296  34.156  1.00  0.00     0.312 C 
BRANCH   7   8
HETATM    8  C7  UNK     1      18.607   7.783  34.180  1.00  0.00    -0.011 A 
HETATM    9  C10 UNK     1      19.703   8.526  34.383  1.00  0.00     0.092 A 
HETATM   10  C13 UNK     1      19.683   9.998  34.414  1.00  0.00     0.288 A 
HETATM   11  O1  UNK     1      18.453  10.608  34.219  1.00  0.00    -0.275 OA
HETATM   12  O3  UNK     1      20.707  10.645  34.603  1.00  0.00    -0.260 OA
HETATM   13  C11 UNK     1      17.283   9.854  34.003  1.00  0.00     0.090 A 
HETATM   14  C8  UNK     1      17.317   8.459  33.977  1.00  0.00     0.006 A 
HETATM   15  C14 UNK     1      16.101  10.573  33.819  1.00  0.00     0.045 A 
HETATM   16  C12 UNK     1      16.110   7.783  33.757  1.00  0.00     0.015 A 
HETATM   17  C16 UNK     1      14.917   8.490  33.570  1.00  0.00     0.007 A 
HETATM   18  C15 UNK     1      14.913   9.883  33.601  1.00  0.00    -0.059 A 
HETATM   19  C19 UNK     1      13.638  10.632  33.402  1.00  0.00     0.048 C 
ENDBRANCH   7   8
ENDBRANCH   1   7
BRANCH   2  20
HETATM   20  C6  UNK     1      18.480   3.552  29.217  1.00  0.00     0.375 C 
BRANCH  20  21
HETATM   21  C9  UNK     1      18.423   2.036  29.305  1.00  0.00     0.250 C 
HETATM   22  O2  UNK     1      17.477   1.385  28.877  1.00  0.00    -0.271 OA
HETATM   23  N3  UNK     1      19.576   1.546  29.916  1.00  0.00    -0.325 N 
HETATM   24  H15 UNK     1      20.267   2.233  30.201  1.00  0.00     0.169 HD
BRANCH  23  25
HETATM   25  C17 UNK     1      19.903   0.196  30.182  1.00  0.00     0.042 A 
HETATM   26  C18 UNK     1      19.709  -0.355  31.449  1.00  0.00    -0.013 A 
HETATM   27  C21 UNK     1      20.038  -1.689  31.688  1.00  0.00     0.042 A 
HETATM   28  C22 UNK     1      19.144   0.496  32.545  1.00  0.00     0.052 C 
HETATM   29 Cl1  UNK     1      19.814  -2.409  33.241  1.00  0.00    -0.084 Cl
HETATM   30  C24 UNK     1      20.563  -2.473  30.660  1.00  0.00     0.024 A 
HETATM   31  C23 UNK     1      20.758  -1.922  29.393  1.00  0.00     0.004 A 
HETATM   32  C20 UNK     1      20.428  -0.588  29.154  1.00  0.00     0.030 A 
ENDBRANCH  23  25
ENDBRANCH  20  21
ENDBRANCH   2  20
TORSDOF 5
ENDMDL
MODEL 7
REMARK VINA RESULT:      -9.8      4.632     12.607
REMARK  5 active torsions:
REMARK  status: ('A' for Active; 'I' for Inactive)
REMARK    1  A    between atoms: C5_12  and  N1_5 
REMARK    2  A    between atoms: C6_13  and  N2_6 
REMARK    3  A    between atoms: C17_24  and  N3_7 
REMARK       I    between atoms: C9_16  and  N3_7 
REMARK    4  A    between atoms: C5_12  and  C7_14 
REMARK    5  A    between atoms: C6_13  and  C9_16 
ROOT
HETATM    1  N1  UNK     1      18.054   5.430  31.566  1.00  0.00     0.096 N 
HETATM    2  N2  UNK     1      19.009   2.774  30.939  1.00  0.00     0.100 N 
HETATM    3  C1  UNK     1      18.287   4.436  32.620  1.00  0.00     0.303 C 
HETATM    4  C2  UNK     1      18.950   5.191  30.427  1.00  0.00     0.303 C 
HETATM    5  C3  UNK     1      18.112   3.013  32.076  1.00  0.00     0.303 C 
HETATM    6  C4  UNK     1      18.776   3.769  29.884  1.00  0.00     0.303 C 
ENDROOT
BRANCH   1   7
HETATM    7  C5  UNK     1      18.225   6.786  32.084  1.00  0.00     0.312 C 
BRANCH   7   8
HETATM    8  C7  UNK     1      16.922   7.436  32.398  1.00  0.00    -0.011 A 
HETATM    9  C10 UNK     1      15.760   6.861  32.059  1.00  0.00     0.092 A 
HETATM   10  C13 UNK     1      14.449   7.467  32.348  1.00  0.00     0.288 A 
HETATM   11  O1  UNK     1      14.459   8.688  33.004  1.00  0.00    -0.275 OA
HETATM   12  O3  UNK     1      13.405   6.911  32.022  1.00  0.00    -0.260 OA
HETATM   13  C11 UNK     1      15.664   9.317  33.373  1.00  0.00     0.090 A 
HETATM   14  C8  UNK     1      16.899   8.732  33.092  1.00  0.00     0.006 A 
HETATM   15  C14 UNK     1      15.553  10.545  34.028  1.00  0.00     0.045 A 
HETATM   16  C12 UNK     1      18.051   9.421  33.491  1.00  0.00     0.015 A 
HETATM   17  C16 UNK     1      17.956  10.652  34.150  1.00  0.00     0.007 A 
HETATM   18  C15 UNK     1      16.709  11.213  34.418  1.00  0.00    -0.059 A 
HETATM   19  C19 UNK     1      16.614  12.526  35.119  1.00  0.00     0.048 C 
ENDBRANCH   7   8
ENDBRANCH   1   7
BRANCH   2  20
HETATM   20  C6  UNK     1      18.840   1.418  30.421  1.00  0.00     0.375 C 
BRANCH  20  21
HETATM   21  C9  UNK     1      19.613   0.444  31.294  1.00  0.00     0.250 C 
HETATM   22  O2  UNK     1      20.780   0.141  31.072  1.00  0.00    -0.271 OA
HETATM   23  N3  UNK     1      18.808  -0.012  32.336  1.00  0.00    -0.325 N 
HETATM   24  H15 UNK     1      17.861   0.355  32.374  1.00  0.00     0.169 HD
BRANCH  23  25
HETATM   25  C17 UNK     1      19.155  -0.925  33.359  1.00  0.00     0.042 A 
HETATM   26  C18 UNK     1      18.666  -0.772  34.657  1.00  0.00    -0.013 A 
HETATM   27  C21 UNK     1      19.021  -1.685  35.648  1.00  0.00     0.042 A 
HETATM   28  C22 UNK     1      17.759   0.379  34.972  1.00  0.00     0.052 C 
HETATM   29 Cl1  UNK     1      18.438  -1.532  37.266  1.00  0.00    -0.084 Cl
HETATM   30  C24 UNK     1      19.866  -2.753  35.344  1.00  0.00     0.024 A 
HETATM   31  C23 UNK     1      20.355  -2.907  34.046  1.00  0.00     0.004 A 
HETATM   32  C20 UNK     1      20.000  -1.993  33.054  1.00  0.00     0.030 A 
ENDBRANCH  23  25
ENDBRANCH  20  21
ENDBRANCH   2  20
TORSDOF 5
ENDMDL
MODEL 8
REMARK VINA RESULT:      -9.7      2.389      3.187
REMARK  5 active torsions:
REMARK  status: ('A' for Active; 'I' for Inactive)
REMARK    1  A    between atoms: C5_12  and  N1_5 
REMARK    2  A    between atoms: C6_13  and  N2_6 
REMARK    3  A    between atoms: C17_24  and  N3_7 
REMARK       I    between atoms: C9_16  and  N3_7 
REMARK    4  A    between atoms: C5_12  and  C7_14 
REMARK    5  A    between atoms: C6_13  and  C9_16 
ROOT
HETATM    1  N1  UNK     1      19.571  -4.023  36.402  1.00  0.00     0.096 N 
HETATM    2  N2  UNK     1      18.515  -1.437  35.655  1.00  0.00     0.100 N 
HETATM    3  C1  UNK     1      18.171  -3.667  36.662  1.00  0.00     0.303 C 
HETATM    4  C2  UNK     1      20.072  -3.306  35.221  1.00  0.00     0.303 C 
HETATM    5  C3  UNK     1      18.016  -2.152  36.836  1.00  0.00     0.303 C 
HETATM    6  C4  UNK     1      19.916  -1.792  35.395  1.00  0.00     0.303 C 
ENDROOT
BRANCH   1   7
HETATM    7  C5  UNK     1      19.717  -5.467  36.233  1.00  0.00     0.312 C 
BRANCH   7   8
HETATM    8  C7  UNK     1      20.586  -6.071  37.281  1.00  0.00    -0.011 A 
HETATM    9  C10 UNK     1      21.688  -5.444  37.715  1.00  0.00     0.092 A 
HETATM   10  C13 UNK     1      22.576  -6.003  38.749  1.00  0.00     0.288 A 
HETATM   11  O1  UNK     1      22.221  -7.235  39.274  1.00  0.00    -0.275 OA
HETATM   12  O3  UNK     1      23.577  -5.400  39.120  1.00  0.00    -0.260 OA
HETATM   13  C11 UNK     1      21.069  -7.918  38.839  1.00  0.00     0.090 A 
HETATM   14  C8  UNK     1      20.237  -7.377  37.858  1.00  0.00     0.006 A 
HETATM   15  C14 UNK     1      20.810  -9.152  39.438  1.00  0.00     0.045 A 
HETATM   16  C12 UNK     1      19.110  -8.119  37.479  1.00  0.00     0.015 A 
HETATM   17  C16 UNK     1      18.837  -9.357  38.072  1.00  0.00     0.007 A 
HETATM   18  C15 UNK     1      19.685  -9.873  39.049  1.00  0.00    -0.059 A 
HETATM   19  C19 UNK     1      19.389 -11.194  39.675  1.00  0.00     0.048 C 
ENDBRANCH   7   8
ENDBRANCH   1   7
BRANCH   2  20
HETATM   20  C6  UNK     1      18.368   0.007  35.823  1.00  0.00     0.375 C 
BRANCH  20  21
HETATM   21  C9  UNK     1      17.834   0.613  34.535  1.00  0.00     0.250 C 
HETATM   22  O2  UNK     1      16.656   0.919  34.388  1.00  0.00    -0.271 OA
HETATM   23  N3  UNK     1      18.864   0.758  33.608  1.00  0.00    -0.325 N 
HETATM   24  H15 UNK     1      19.789   0.459  33.904  1.00  0.00     0.169 HD
BRANCH  23  25
HETATM   25  C17 UNK     1      18.778   1.280  32.296  1.00  0.00     0.042 A 
HETATM   26  C18 UNK     1      19.132   0.508  31.190  1.00  0.00    -0.013 A 
HETATM   27  C21 UNK     1      19.037   1.044  29.906  1.00  0.00     0.042 A 
HETATM   28  C22 UNK     1      19.612  -0.897  31.393  1.00  0.00     0.052 C 
HETATM   29 Cl1  UNK     1      19.466   0.123  28.510  1.00  0.00    -0.084 Cl
HETATM   30  C24 UNK     1      18.588   2.354  29.728  1.00  0.00     0.024 A 
HETATM   31  C23 UNK     1      18.234   3.126  30.834  1.00  0.00     0.004 A 
HETATM   32  C20 UNK     1      18.329   2.589  32.118  1.00  0.00     0.030 A 
ENDBRANCH  23  25
ENDBRANCH  20  21
ENDBRANCH   2  20
TORSDOF 5
ENDMDL
MODEL 9
REMARK VINA RESULT:      -9.5      5.008      8.118
REMARK  5 active torsions:
REMARK  status: ('A' for Active; 'I' for Inactive)
REMARK    1  A    between atoms: C5_12  and  N1_5 
REMARK    2  A    between atoms: C6_13  and  N2_6 
REMARK    3  A    between atoms: C17_24  and  N3_7 
REMARK       I    between atoms: C9_16  and  N3_7 
REMARK    4  A    between atoms: C5_12  and  C7_14 
REMARK    5  A    between atoms: C6_13  and  C9_16 
ROOT
HETATM    1  N1  UNK     1      18.840   3.616  31.353  1.00  0.00     0.096 N 
HETATM    2  N2  UNK     1      19.224   6.300  32.357  1.00  0.00     0.100 N 
HETATM    3  C1  UNK     1      18.014   4.147  32.444  1.00  0.00     0.303 C 
HETATM    4  C2  UNK     1      19.289   4.703  30.473  1.00  0.00     0.303 C 
HETATM    5  C3  UNK     1      18.778   5.214  33.238  1.00  0.00     0.303 C 
HETATM    6  C4  UNK     1      20.051   5.769  31.266  1.00  0.00     0.303 C 
ENDROOT
BRANCH   1   7
HETATM    7  C5  UNK     1      18.110   2.601  30.595  1.00  0.00     0.312 C 
BRANCH   7   8
HETATM    8  C7  UNK     1      18.850   1.311  30.526  1.00  0.00    -0.011 A 
HETATM    9  C10 UNK     1      19.434   0.906  29.390  1.00  0.00     0.092 A 
HETATM   10  C13 UNK     1      20.175  -0.361  29.274  1.00  0.00     0.288 A 
HETATM   11  O1  UNK     1      20.251  -1.144  30.415  1.00  0.00    -0.275 OA
HETATM   12  O3  UNK     1      20.697  -0.699  28.216  1.00  0.00    -0.260 OA
HETATM   13  C11 UNK     1      19.648  -0.745  31.624  1.00  0.00     0.090 A 
HETATM   14  C8  UNK     1      18.948   0.458  31.719  1.00  0.00     0.006 A 
HETATM   15  C14 UNK     1      19.789  -1.613  32.709  1.00  0.00     0.045 A 
HETATM   16  C12 UNK     1      18.377   0.783  32.957  1.00  0.00     0.015 A 
HETATM   17  C16 UNK     1      18.510  -0.076  34.053  1.00  0.00     0.007 A 
HETATM   18  C15 UNK     1      19.215  -1.272  33.929  1.00  0.00    -0.059 A 
HETATM   19  C19 UNK     1      19.352  -2.184  35.102  1.00  0.00     0.048 C 
ENDBRANCH   7   8
ENDBRANCH   1   7
BRANCH   2  20
HETATM   20  C6  UNK     1      19.953   7.315  33.114  1.00  0.00     0.375 C 
BRANCH  20  21
HETATM   21  C9  UNK     1      19.006   7.993  34.091  1.00  0.00     0.250 C 
HETATM   22  O2  UNK     1      19.111   7.868  35.306  1.00  0.00    -0.271 OA
HETATM   23  N3  UNK     1      18.058   8.744  33.400  1.00  0.00    -0.325 N 
HETATM   24  H15 UNK     1      18.126   8.743  32.386  1.00  0.00     0.169 HD
BRANCH  23  25
HETATM   25  C17 UNK     1      17.007   9.519  33.944  1.00  0.00     0.042 A 
HETATM   26  C18 UNK     1      17.196  10.865  34.262  1.00  0.00    -0.013 A 
HETATM   27  C21 UNK     1      16.145  11.609  34.796  1.00  0.00     0.042 A 
HETATM   28  C22 UNK     1      18.532  11.499  34.022  1.00  0.00     0.052 C 
HETATM   29 Cl1  UNK     1      16.336  13.276  35.203  1.00  0.00    -0.084 Cl
HETATM   30  C24 UNK     1      14.904  11.009  35.014  1.00  0.00     0.024 A 
HETATM   31  C23 UNK     1      14.715   9.663  34.697  1.00  0.00     0.004 A 
HETATM   32  C20 UNK     1      15.767   8.919  34.162  1.00  0.00     0.030 A 
ENDBRANCH  23  25
ENDBRANCH  20  21
ENDBRANCH   2  20
TORSDOF 5
ENDMDL
MODEL 10
REMARK VINA RESULT:      -9.3      6.479      9.380
REMARK  5 active torsions:
REMARK  status: ('A' for Active; 'I' for Inactive)
REMARK    1  A    between atoms: C5_12  and  N1_5 
REMARK    2  A    between atoms: C6_13  and  N2_6 
REMARK    3  A    between atoms: C17_24  and  N3_7 
REMARK       I    between atoms: C9_16  and  N3_7 
REMARK    4  A    between atoms: C5_12  and  C7_14 
REMARK    5  A    between atoms: C6_13  and  C9_16 
ROOT
HETATM    1  N1  UNK     1      18.400   5.013  32.680  1.00  0.00     0.096 N 
HETATM    2  N2  UNK     1      18.642   7.799  33.413  1.00  0.00     0.100 N 
HETATM    3  C1  UNK     1      17.214   5.848  32.904  1.00  0.00     0.303 C 
HETATM    4  C2  UNK     1      19.522   5.832  32.203  1.00  0.00     0.303 C 
HETATM    5  C3  UNK     1      17.522   6.980  33.891  1.00  0.00     0.303 C 
HETATM    6  C4  UNK     1      19.829   6.964  33.189  1.00  0.00     0.303 C 
ENDROOT
BRANCH   1   7
HETATM    7  C5  UNK     1      18.106   3.936  31.736  1.00  0.00     0.312 C 
BRANCH   7   8
HETATM    8  C7  UNK     1      18.338   2.590  32.329  1.00  0.00    -0.011 A 
HETATM    9  C10 UNK     1      18.049   2.337  33.613  1.00  0.00     0.092 A 
HETATM   10  C13 UNK     1      18.262   1.023  34.242  1.00  0.00     0.288 A 
HETATM   11  O1  UNK     1      18.787   0.025  33.435  1.00  0.00    -0.275 OA
HETATM   12  O3  UNK     1      17.986   0.829  35.421  1.00  0.00    -0.260 OA
HETATM   13  C11 UNK     1      19.100   0.259  32.082  1.00  0.00     0.090 A 
HETATM   14  C8  UNK     1      18.894   1.510  31.500  1.00  0.00     0.006 A 
HETATM   15  C14 UNK     1      19.623  -0.819  31.366  1.00  0.00     0.045 A 
HETATM   16  C12 UNK     1      19.232   1.663  30.148  1.00  0.00     0.015 A 
HETATM   17  C16 UNK     1      19.756   0.591  29.417  1.00  0.00     0.007 A 
HETATM   18  C15 UNK     1      19.952  -0.647  30.025  1.00  0.00    -0.059 A 
HETATM   19  C19 UNK     1      20.512  -1.786  29.240  1.00  0.00     0.048 C 
ENDBRANCH   7   8
ENDBRANCH   1   7
BRANCH   2  20
HETATM   20  C6  UNK     1      18.935   8.877  34.355  1.00  0.00     0.375 C 
BRANCH  20  21
HETATM   21  C9  UNK     1      18.227  10.145  33.908  1.00  0.00     0.250 C 
HETATM   22  O2  UNK     1      18.811  11.065  33.348  1.00  0.00    -0.271 OA
HETATM   23  N3  UNK     1      16.872  10.077  34.224  1.00  0.00    -0.325 N 
HETATM   24  H15 UNK     1      16.553   9.228  34.683  1.00  0.00     0.169 HD
BRANCH  23  25
HETATM   25  C17 UNK     1      15.877  11.051  33.976  1.00  0.00     0.042 A 
HETATM   26  C18 UNK     1      14.624  10.690  33.480  1.00  0.00    -0.013 A 
HETATM   27  C21 UNK     1      13.659  11.668  33.244  1.00  0.00     0.042 A 
HETATM   28  C22 UNK     1      14.327   9.247  33.207  1.00  0.00     0.052 C 
HETATM   29 Cl1  UNK     1      12.096  11.264  32.631  1.00  0.00    -0.084 Cl
HETATM   30  C24 UNK     1      13.946  13.009  33.503  1.00  0.00     0.024 A 
HETATM   31  C23 UNK     1      15.199  13.370  33.998  1.00  0.00     0.004 A 
HETATM   32  C20 UNK     1      16.164  12.391  34.235  1.00  0.00     0.030 A 
ENDBRANCH  23  25
ENDBRANCH  20  21
ENDBRANCH   2  20
TORSDOF 5
ENDMDL
