MODEL 1
REMARK VINA RESULT:      -8.0      0.000      0.000
REMARK  3 active torsions:
REMARK  status: ('A' for Active; 'I' for Inactive)
REMARK    1  A    between atoms: C13_19  and  O4_4 
REMARK    2  A    between atoms: C8_14  and  N1_5 
REMARK    3  A    between atoms: C1_7  and  C3_9 
ROOT
HETATM    1  O1  UNK     1      32.182  -6.448  36.941  1.00  0.00    -0.269 OA
HETATM    2  O2  UNK     1      31.984  -7.515  34.864  1.00  0.00    -0.286 OA
HETATM    3  O3  UNK     1      27.990  -6.755  34.717  1.00  0.00    -0.287 OA
HETATM    4  N2  UNK     1      29.578  -3.690  39.911  1.00  0.00    -0.191 NA
HETATM    5  C1  UNK     1      29.375  -5.889  37.102  1.00  0.00     0.109 C 
HETATM    6  C2  UNK     1      30.027  -6.600  35.936  1.00  0.00     0.065 A 
HETATM    7  C4  UNK     1      30.403  -5.309  38.064  1.00  0.00     0.086 C 
HETATM    8  C5  UNK     1      31.350  -6.851  35.902  1.00  0.00     0.204 A 
HETATM    9  C6  UNK     1      29.186  -7.005  34.778  1.00  0.00     0.197 A 
HETATM   10  C7  UNK     1      29.870  -7.726  33.695  1.00  0.00     0.049 A 
HETATM   11  C8  UNK     1      31.716  -5.608  37.951  1.00  0.00     0.162 C 
HETATM   12  C9  UNK     1      31.239  -7.946  33.798  1.00  0.00     0.092 A 
HETATM   13  C12 UNK     1      29.163  -8.184  32.581  1.00  0.00     0.018 A 
HETATM   14  C15 UNK     1      31.914  -8.628  32.784  1.00  0.00     0.038 A 
HETATM   15  C17 UNK     1      29.947  -4.414  39.084  1.00  0.00     0.100 C 
HETATM   16  C18 UNK     1      29.839  -8.866  31.568  1.00  0.00     0.001 A 
HETATM   17  C19 UNK     1      31.213  -9.088  31.670  1.00  0.00     0.003 A 
ENDROOT
BRANCH   5  18
HETATM   18  C3  UNK     1      28.448  -6.818  37.831  1.00  0.00    -0.041 A 
HETATM   19  C10 UNK     1      27.109  -6.473  37.986  1.00  0.00     0.044 A 
HETATM   20  C13 UNK     1      26.249  -7.337  38.663  1.00  0.00     0.068 A 
HETATM   21  C16 UNK     1      26.731  -8.539  39.180  1.00  0.00     0.037 A 
HETATM   22  C14 UNK     1      28.075  -8.878  39.021  1.00  0.00     0.003 A 
HETATM   23  C11 UNK     1      28.937  -8.014  38.344  1.00  0.00     0.008 A 
BRANCH  20  24
HETATM   24  O4  UNK     1      24.937  -7.007  38.816  1.00  0.00    -0.356 OA
HETATM   25  C20 UNK     1      23.985  -8.066  38.721  1.00  0.00     0.210 C 
ENDBRANCH  20  24
ENDBRANCH   5  18
BRANCH  11  26
HETATM   26  N1  UNK     1      32.703  -5.145  38.778  1.00  0.00    -0.379 N 
HETATM   27  H10 UNK     1      32.442  -4.610  39.597  1.00  0.00     0.158 HD
HETATM   28  H9  UNK     1      33.678  -5.327  38.578  1.00  0.00     0.158 HD
ENDBRANCH  11  26
TORSDOF 3
ENDMDL
MODEL 2
REMARK VINA RESULT:      -8.0      2.258      5.757
REMARK  3 active torsions:
REMARK  status: ('A' for Active; 'I' for Inactive)
REMARK    1  A    between atoms: C13_19  and  O4_4 
REMARK    2  A    between atoms: C8_14  and  N1_5 
REMARK    3  A    between atoms: C1_7  and  C3_9 
ROOT
HETATM    1  O1  UNK     1      30.766  -4.129  37.260  1.00  0.00    -0.269 OA
HETATM    2  O2  UNK     1      29.441  -5.737  38.332  1.00  0.00    -0.286 OA
HETATM    3  O3  UNK     1      31.328  -8.769  36.382  1.00  0.00    -0.287 OA
HETATM    4  N2  UNK     1      34.682  -3.872  34.466  1.00  0.00    -0.191 NA
HETATM    5  C1  UNK     1      32.164  -6.086  35.701  1.00  0.00     0.109 C 
HETATM    6  C2  UNK     1      31.086  -6.424  36.708  1.00  0.00     0.065 A 
HETATM    7  C4  UNK     1      32.576  -4.622  35.775  1.00  0.00     0.086 C 
HETATM    8  C5  UNK     1      30.447  -5.473  37.415  1.00  0.00     0.204 A 
HETATM    9  C6  UNK     1      30.745  -7.852  36.946  1.00  0.00     0.197 A 
HETATM   10  C7  UNK     1      29.663  -8.113  37.905  1.00  0.00     0.049 A 
HETATM   11  C8  UNK     1      31.879  -3.735  36.520  1.00  0.00     0.162 C 
HETATM   12  C9  UNK     1      29.064  -7.036  38.549  1.00  0.00     0.092 A 
HETATM   13  C12 UNK     1      29.241  -9.418  38.170  1.00  0.00     0.018 A 
HETATM   14  C15 UNK     1      28.034  -7.256  39.465  1.00  0.00     0.038 A 
HETATM   15  C17 UNK     1      33.740  -4.208  35.052  1.00  0.00     0.100 C 
HETATM   16  C18 UNK     1      28.210  -9.636  39.087  1.00  0.00     0.001 A 
HETATM   17  C19 UNK     1      27.609  -8.556  39.733  1.00  0.00     0.003 A 
ENDROOT
BRANCH   5  18
HETATM   18  C3  UNK     1      31.711  -6.427  34.311  1.00  0.00    -0.041 A 
HETATM   19  C10 UNK     1      30.508  -5.916  33.834  1.00  0.00     0.044 A 
HETATM   20  C13 UNK     1      30.089  -6.233  32.542  1.00  0.00     0.068 A 
HETATM   21  C16 UNK     1      30.873  -7.058  31.736  1.00  0.00     0.037 A 
HETATM   22  C14 UNK     1      32.079  -7.566  32.222  1.00  0.00     0.003 A 
HETATM   23  C11 UNK     1      32.499  -7.250  33.514  1.00  0.00     0.008 A 
BRANCH  20  24
HETATM   24  O4  UNK     1      28.914  -5.736  32.067  1.00  0.00    -0.356 OA
HETATM   25  C20 UNK     1      27.737  -6.020  32.822  1.00  0.00     0.210 C 
ENDBRANCH  20  24
ENDBRANCH   5  18
BRANCH  11  26
HETATM   26  N1  UNK     1      32.169  -2.403  36.632  1.00  0.00    -0.379 N 
HETATM   27  H10 UNK     1      31.980  -1.934  37.509  1.00  0.00     0.158 HD
HETATM   28  H9  UNK     1      32.564  -1.888  35.855  1.00  0.00     0.158 HD
ENDBRANCH  11  26
TORSDOF 3
ENDMDL
MODEL 3
REMARK VINA RESULT:      -8.0      1.398      2.225
REMARK  3 active torsions:
REMARK  status: ('A' for Active; 'I' for Inactive)
REMARK    1  A    between atoms: C13_19  and  O4_4 
REMARK    2  A    between atoms: C8_14  and  N1_5 
REMARK    3  A    between atoms: C1_7  and  C3_9 
ROOT
HETATM    1  O1  UNK     1      31.848  -5.783  36.116  1.00  0.00    -0.269 OA
HETATM    2  O2  UNK     1      31.357  -6.732  34.030  1.00  0.00    -0.286 OA
HETATM    3  O3  UNK     1      27.374  -6.794  34.859  1.00  0.00    -0.287 OA
HETATM    4  N2  UNK     1      29.571  -3.810  39.875  1.00  0.00    -0.191 NA
HETATM    5  C1  UNK     1      29.108  -5.819  36.957  1.00  0.00     0.109 C 
HETATM    6  C2  UNK     1      29.581  -6.306  35.604  1.00  0.00     0.065 A 
HETATM    7  C4  UNK     1      30.212  -5.105  37.724  1.00  0.00     0.086 C 
HETATM    8  C5  UNK     1      30.879  -6.279  35.250  1.00  0.00     0.204 A 
HETATM    9  C6  UNK     1      28.575  -6.798  34.625  1.00  0.00     0.197 A 
HETATM   10  C7  UNK     1      29.100  -7.293  33.345  1.00  0.00     0.049 A 
HETATM   11  C8  UNK     1      31.492  -5.122  37.290  1.00  0.00     0.162 C 
HETATM   12  C9  UNK     1      30.471  -7.236  33.115  1.00  0.00     0.092 A 
HETATM   13  C12 UNK     1      28.243  -7.813  32.372  1.00  0.00     0.018 A 
HETATM   14  C15 UNK     1      30.996  -7.700  31.909  1.00  0.00     0.038 A 
HETATM   15  C17 UNK     1      29.858  -4.389  38.912  1.00  0.00     0.100 C 
HETATM   16  C18 UNK     1      28.770  -8.277  31.165  1.00  0.00     0.001 A 
HETATM   17  C19 UNK     1      30.145  -8.220  30.935  1.00  0.00     0.003 A 
ENDROOT
BRANCH   5  18
HETATM   18  C3  UNK     1      28.569  -6.962  37.767  1.00  0.00    -0.041 A 
HETATM   19  C10 UNK     1      29.368  -8.074  38.007  1.00  0.00     0.044 A 
HETATM   20  C13 UNK     1      28.867  -9.134  38.761  1.00  0.00     0.068 A 
HETATM   21  C16 UNK     1      27.569  -9.076  39.270  1.00  0.00     0.037 A 
HETATM   22  C14 UNK     1      26.774  -7.957  39.026  1.00  0.00     0.003 A 
HETATM   23  C11 UNK     1      27.275  -6.896  38.272  1.00  0.00     0.008 A 
BRANCH  20  24
HETATM   24  O4  UNK     1      29.644 -10.226  39.001  1.00  0.00    -0.356 OA
HETATM   25  C20 UNK     1      30.965 -10.213  38.462  1.00  0.00     0.210 C 
ENDBRANCH  20  24
ENDBRANCH   5  18
BRANCH  11  26
HETATM   26  N1  UNK     1      32.546  -4.522  37.923  1.00  0.00    -0.379 N 
HETATM   27  H10 UNK     1      32.378  -3.679  38.458  1.00  0.00     0.158 HD
HETATM   28  H9  UNK     1      33.480  -4.906  37.859  1.00  0.00     0.158 HD
ENDBRANCH  11  26
TORSDOF 3
ENDMDL
MODEL 4
REMARK VINA RESULT:      -7.9     32.479     34.471
REMARK  3 active torsions:
REMARK  status: ('A' for Active; 'I' for Inactive)
REMARK    1  A    between atoms: C13_19  and  O4_4 
REMARK    2  A    between atoms: C8_14  and  N1_5 
REMARK    3  A    between atoms: C1_7  and  C3_9 
ROOT
HETATM    1  O1  UNK     1      16.885   8.431  10.020  1.00  0.00    -0.269 OA
HETATM    2  O2  UNK     1      16.026  10.440  10.865  1.00  0.00    -0.286 OA
HETATM    3  O3  UNK     1      12.467   8.684  11.760  1.00  0.00    -0.287 OA
HETATM    4  N2  UNK     1      15.760   3.750   9.834  1.00  0.00    -0.191 NA
HETATM    5  C1  UNK     1      14.438   7.008  10.469  1.00  0.00     0.109 C 
HETATM    6  C2  UNK     1      14.640   8.468  10.816  1.00  0.00     0.065 A 
HETATM    7  C4  UNK     1      15.741   6.331  10.069  1.00  0.00     0.086 C 
HETATM    8  C5  UNK     1      15.805   9.101  10.581  1.00  0.00     0.204 A 
HETATM    9  C6  UNK     1      13.530   9.214  11.465  1.00  0.00     0.197 A 
HETATM   10  C7  UNK     1      13.774  10.637  11.740  1.00  0.00     0.049 A 
HETATM   11  C8  UNK     1      16.869   7.046   9.862  1.00  0.00     0.162 C 
HETATM   12  C9  UNK     1      15.015  11.177  11.422  1.00  0.00     0.092 A 
HETATM   13  C12 UNK     1      12.781  11.436  12.312  1.00  0.00     0.018 A 
HETATM   14  C15 UNK     1      15.273  12.526  11.673  1.00  0.00     0.038 A 
HETATM   15  C17 UNK     1      15.752   4.905   9.940  1.00  0.00     0.100 C 
HETATM   16  C18 UNK     1      13.041  12.785  12.562  1.00  0.00     0.001 A 
HETATM   17  C19 UNK     1      14.286  13.328  12.243  1.00  0.00     0.003 A 
ENDROOT
BRANCH   5  18
HETATM   18  C3  UNK     1      13.421   6.865   9.374  1.00  0.00    -0.041 A 
HETATM   19  C10 UNK     1      12.316   6.042   9.564  1.00  0.00     0.044 A 
HETATM   20  C13 UNK     1      11.372   5.910   8.546  1.00  0.00     0.068 A 
HETATM   21  C16 UNK     1      11.538   6.601   7.346  1.00  0.00     0.037 A 
HETATM   22  C14 UNK     1      12.649   7.425   7.163  1.00  0.00     0.003 A 
HETATM   23  C11 UNK     1      13.594   7.557   8.181  1.00  0.00     0.008 A 
BRANCH  20  24
HETATM   24  O4  UNK     1      10.286   5.108   8.725  1.00  0.00    -0.356 OA
HETATM   25  C20 UNK     1       9.052   5.748   9.049  1.00  0.00     0.210 C 
ENDBRANCH  20  24
ENDBRANCH   5  18
BRANCH  11  26
HETATM   26  N1  UNK     1      18.076   6.522   9.488  1.00  0.00    -0.379 N 
HETATM   27  H10 UNK     1      18.644   7.031   8.823  1.00  0.00     0.158 HD
HETATM   28  H9  UNK     1      18.400   5.640   9.863  1.00  0.00     0.158 HD
ENDBRANCH  11  26
TORSDOF 3
ENDMDL
MODEL 5
REMARK VINA RESULT:      -7.8      3.136      4.956
REMARK  3 active torsions:
REMARK  status: ('A' for Active; 'I' for Inactive)
REMARK    1  A    between atoms: C13_19  and  O4_4 
REMARK    2  A    between atoms: C8_14  and  N1_5 
REMARK    3  A    between atoms: C1_7  and  C3_9 
ROOT
HETATM    1  O1  UNK     1      32.283  -8.998  33.354  1.00  0.00    -0.269 OA
HETATM    2  O2  UNK     1      30.282  -8.823  32.147  1.00  0.00    -0.286 OA
HETATM    3  O3  UNK     1      30.365  -4.761  32.365  1.00  0.00    -0.287 OA
HETATM    4  N2  UNK     1      35.837  -6.190  34.993  1.00  0.00    -0.191 NA
HETATM    5  C1  UNK     1      32.498  -6.164  33.721  1.00  0.00     0.109 C 
HETATM    6  C2  UNK     1      31.373  -6.832  32.961  1.00  0.00     0.065 A 
HETATM    7  C4  UNK     1      33.611  -7.143  34.070  1.00  0.00     0.086 C 
HETATM    8  C5  UNK     1      31.304  -8.169  32.818  1.00  0.00     0.204 A 
HETATM    9  C6  UNK     1      30.330  -5.984  32.325  1.00  0.00     0.197 A 
HETATM   10  C7  UNK     1      29.243  -6.693  31.635  1.00  0.00     0.049 A 
HETATM   11  C8  UNK     1      33.459  -8.473  33.884  1.00  0.00     0.162 C 
HETATM   12  C9  UNK     1      29.276  -8.082  31.585  1.00  0.00     0.092 A 
HETATM   13  C12 UNK     1      28.194  -5.989  31.039  1.00  0.00     0.018 A 
HETATM   14  C15 UNK     1      28.257  -8.781  30.936  1.00  0.00     0.038 A 
HETATM   15  C17 UNK     1      34.841  -6.616  34.580  1.00  0.00     0.100 C 
HETATM   16  C18 UNK     1      27.175  -6.689  30.391  1.00  0.00     0.001 A 
HETATM   17  C19 UNK     1      27.207  -8.083  30.340  1.00  0.00     0.003 A 
ENDROOT
BRANCH   5  18
HETATM   18  C3  UNK     1      31.975  -5.509  34.966  1.00  0.00    -0.041 A 
HETATM   19  C10 UNK     1      31.068  -6.188  35.773  1.00  0.00     0.044 A 
HETATM   20  C13 UNK     1      30.583  -5.579  36.929  1.00  0.00     0.068 A 
HETATM   21  C16 UNK     1      31.007  -4.295  37.273  1.00  0.00     0.037 A 
HETATM   22  C14 UNK     1      31.918  -3.621  36.459  1.00  0.00     0.003 A 
HETATM   23  C11 UNK     1      32.403  -4.230  35.301  1.00  0.00     0.008 A 
BRANCH  20  24
HETATM   24  O4  UNK     1      29.696  -6.239  37.725  1.00  0.00    -0.356 OA
HETATM   25  C20 UNK     1      29.247  -5.561  38.897  1.00  0.00     0.210 C 
ENDBRANCH  20  24
ENDBRANCH   5  18
BRANCH  11  26
HETATM   26  N1  UNK     1      34.399  -9.421  34.183  1.00  0.00    -0.379 N 
HETATM   27  H10 UNK     1      34.855  -9.913  33.424  1.00  0.00     0.158 HD
HETATM   28  H9  UNK     1      34.637  -9.635  35.143  1.00  0.00     0.158 HD
ENDBRANCH  11  26
TORSDOF 3
ENDMDL
MODEL 6
REMARK VINA RESULT:      -7.7      2.260      6.323
REMARK  3 active torsions:
REMARK  status: ('A' for Active; 'I' for Inactive)
REMARK    1  A    between atoms: C13_19  and  O4_4 
REMARK    2  A    between atoms: C8_14  and  N1_5 
REMARK    3  A    between atoms: C1_7  and  C3_9 
ROOT
HETATM    1  O1  UNK     1      30.501  -4.252  37.247  1.00  0.00    -0.269 OA
HETATM    2  O2  UNK     1      29.241  -5.895  38.344  1.00  0.00    -0.286 OA
HETATM    3  O3  UNK     1      31.441  -8.876  36.664  1.00  0.00    -0.287 OA
HETATM    4  N2  UNK     1      34.530  -3.852  34.636  1.00  0.00    -0.191 NA
HETATM    5  C1  UNK     1      32.116  -6.179  35.872  1.00  0.00     0.109 C 
HETATM    6  C2  UNK     1      31.014  -6.542  36.843  1.00  0.00     0.065 A 
HETATM    7  C4  UNK     1      32.417  -4.687  35.882  1.00  0.00     0.086 C 
HETATM    8  C5  UNK     1      30.272  -5.606  37.463  1.00  0.00     0.204 A 
HETATM    9  C6  UNK     1      30.765  -7.977  37.146  1.00  0.00     0.197 A 
HETATM   10  C7  UNK     1      29.656  -8.267  38.065  1.00  0.00     0.049 A 
HETATM   11  C8  UNK     1      31.620  -3.816  36.541  1.00  0.00     0.162 C 
HETATM   12  C9  UNK     1      28.948  -7.205  38.616  1.00  0.00     0.092 A 
HETATM   13  C12 UNK     1      29.315  -9.584  38.384  1.00  0.00     0.018 A 
HETATM   14  C15 UNK     1      27.889  -7.451  39.492  1.00  0.00     0.038 A 
HETATM   15  C17 UNK     1      33.584  -4.226  35.194  1.00  0.00     0.100 C 
HETATM   16  C18 UNK     1      28.256  -9.829  39.260  1.00  0.00     0.001 A 
HETATM   17  C19 UNK     1      27.545  -8.764  39.813  1.00  0.00     0.003 A 
ENDROOT
BRANCH   5  18
HETATM   18  C3  UNK     1      31.762  -6.627  34.484  1.00  0.00    -0.041 A 
HETATM   19  C10 UNK     1      32.615  -7.487  33.799  1.00  0.00     0.044 A 
HETATM   20  C13 UNK     1      32.285  -7.903  32.510  1.00  0.00     0.068 A 
HETATM   21  C16 UNK     1      31.105  -7.459  31.913  1.00  0.00     0.037 A 
HETATM   22  C14 UNK     1      30.254  -6.597  32.607  1.00  0.00     0.003 A 
HETATM   23  C11 UNK     1      30.584  -6.180  33.897  1.00  0.00     0.008 A 
BRANCH  20  24
HETATM   24  O4  UNK     1      33.114  -8.746  31.834  1.00  0.00    -0.356 OA
HETATM   25  C20 UNK     1      33.102  -8.664  30.410  1.00  0.00     0.210 C 
ENDBRANCH  20  24
ENDBRANCH   5  18
BRANCH  11  26
HETATM   26  N1  UNK     1      31.807  -2.461  36.590  1.00  0.00    -0.379 N 
HETATM   27  H10 UNK     1      31.089  -1.855  36.214  1.00  0.00     0.158 HD
HETATM   28  H9  UNK     1      32.648  -2.065  36.991  1.00  0.00     0.158 HD
ENDBRANCH  11  26
TORSDOF 3
ENDMDL
MODEL 7
REMARK VINA RESULT:      -7.7      2.081      2.626
REMARK  3 active torsions:
REMARK  status: ('A' for Active; 'I' for Inactive)
REMARK    1  A    between atoms: C13_19  and  O4_4 
REMARK    2  A    between atoms: C8_14  and  N1_5 
REMARK    3  A    between atoms: C1_7  and  C3_9 
ROOT
HETATM    1  O1  UNK     1      31.741  -4.932  34.651  1.00  0.00    -0.269 OA
HETATM    2  O2  UNK     1      31.047  -5.988  32.677  1.00  0.00    -0.286 OA
HETATM    3  O3  UNK     1      28.087  -7.975  34.637  1.00  0.00    -0.287 OA
HETATM    4  N2  UNK     1      30.276  -4.330  39.200  1.00  0.00    -0.191 NA
HETATM    5  C1  UNK     1      29.796  -6.296  36.255  1.00  0.00     0.109 C 
HETATM    6  C2  UNK     1      29.938  -6.484  34.760  1.00  0.00     0.065 A 
HETATM    7  C4  UNK     1      30.646  -5.141  36.767  1.00  0.00     0.086 C 
HETATM    8  C5  UNK     1      30.871  -5.830  34.044  1.00  0.00     0.204 A 
HETATM    9  C6  UNK     1      28.995  -7.396  34.057  1.00  0.00     0.197 A 
HETATM   10  C7  UNK     1      29.209  -7.568  32.613  1.00  0.00     0.049 A 
HETATM   11  C8  UNK     1      31.555  -4.534  35.973  1.00  0.00     0.162 C 
HETATM   12  C9  UNK     1      30.231  -6.853  31.998  1.00  0.00     0.092 A 
HETATM   13  C12 UNK     1      28.404  -8.432  31.868  1.00  0.00     0.018 A 
HETATM   14  C15 UNK     1      30.456  -6.997  30.628  1.00  0.00     0.038 A 
HETATM   15  C17 UNK     1      30.441  -4.693  38.111  1.00  0.00     0.100 C 
HETATM   16  C18 UNK     1      28.630  -8.575  30.498  1.00  0.00     0.001 A 
HETATM   17  C19 UNK     1      29.655  -7.858  29.879  1.00  0.00     0.003 A 
ENDROOT
BRANCH   5  18
HETATM   18  C3  UNK     1      30.150  -7.561  36.980  1.00  0.00    -0.041 A 
HETATM   19  C10 UNK     1      29.173  -8.235  37.705  1.00  0.00     0.044 A 
HETATM   20  C13 UNK     1      29.502  -9.412  38.378  1.00  0.00     0.068 A 
HETATM   21  C16 UNK     1      30.805  -9.907  38.321  1.00  0.00     0.037 A 
HETATM   22  C14 UNK     1      31.779  -9.225  37.591  1.00  0.00     0.003 A 
HETATM   23  C11 UNK     1      31.450  -8.048  36.918  1.00  0.00     0.008 A 
BRANCH  20  24
HETATM   24  O4  UNK     1      28.551 -10.078  39.088  1.00  0.00    -0.356 OA
HETATM   25  C20 UNK     1      27.617  -9.288  39.823  1.00  0.00     0.210 C 
ENDBRANCH  20  24
ENDBRANCH   5  18
BRANCH  11  26
HETATM   26  N1  UNK     1      32.369  -3.502  36.355  1.00  0.00    -0.379 N 
HETATM   27  H10 UNK     1      33.262  -3.716  36.779  1.00  0.00     0.158 HD
HETATM   28  H9  UNK     1      32.087  -2.539  36.221  1.00  0.00     0.158 HD
ENDBRANCH  11  26
TORSDOF 3
ENDMDL
MODEL 8
REMARK VINA RESULT:      -7.6      2.925      6.542
REMARK  3 active torsions:
REMARK  status: ('A' for Active; 'I' for Inactive)
REMARK    1  A    between atoms: C13_19  and  O4_4 
REMARK    2  A    between atoms: C8_14  and  N1_5 
REMARK    3  A    between atoms: C1_7  and  C3_9 
ROOT
HETATM    1  O1  UNK     1      33.297  -5.083  35.175  1.00  0.00    -0.269 OA
HETATM    2  O2  UNK     1      31.712  -4.764  36.872  1.00  0.00    -0.286 OA
HETATM    3  O3  UNK     1      29.249  -7.576  35.267  1.00  0.00    -0.287 OA
HETATM    4  N2  UNK     1      34.221  -8.105  31.539  1.00  0.00    -0.191 NA
HETATM    5  C1  UNK     1      31.686  -7.023  33.813  1.00  0.00     0.109 C 
HETATM    6  C2  UNK     1      31.275  -6.340  35.099  1.00  0.00     0.065 A 
HETATM    7  C4  UNK     1      33.137  -6.734  33.452  1.00  0.00     0.086 C 
HETATM    8  C5  UNK     1      32.059  -5.427  35.704  1.00  0.00     0.204 A 
HETATM    9  C6  UNK     1      29.981  -6.712  35.731  1.00  0.00     0.197 A 
HETATM   10  C7  UNK     1      29.620  -5.985  36.956  1.00  0.00     0.049 A 
HETATM   11  C8  UNK     1      33.854  -5.804  34.120  1.00  0.00     0.162 C 
HETATM   12  C9  UNK     1      30.509  -5.043  37.462  1.00  0.00     0.092 A 
HETATM   13  C12 UNK     1      28.408  -6.233  37.605  1.00  0.00     0.018 A 
HETATM   14  C15 UNK     1      30.191  -4.338  38.624  1.00  0.00     0.038 A 
HETATM   15  C17 UNK     1      33.736  -7.492  32.395  1.00  0.00     0.100 C 
HETATM   16  C18 UNK     1      28.091  -5.527  38.767  1.00  0.00     0.001 A 
HETATM   17  C19 UNK     1      28.982  -4.581  39.275  1.00  0.00     0.003 A 
ENDROOT
BRANCH   5  18
HETATM   18  C3  UNK     1      30.780  -6.615  32.689  1.00  0.00    -0.041 A 
HETATM   19  C10 UNK     1      30.243  -7.586  31.849  1.00  0.00     0.044 A 
HETATM   20  C13 UNK     1      29.400  -7.206  30.806  1.00  0.00     0.068 A 
HETATM   21  C16 UNK     1      29.099  -5.859  30.607  1.00  0.00     0.037 A 
HETATM   22  C14 UNK     1      29.640  -4.891  31.454  1.00  0.00     0.003 A 
HETATM   23  C11 UNK     1      30.484  -5.271  32.498  1.00  0.00     0.008 A 
BRANCH  20  24
HETATM   24  O4  UNK     1      28.870  -8.151  29.981  1.00  0.00    -0.356 OA
HETATM   25  C20 UNK     1      27.537  -8.579  30.256  1.00  0.00     0.210 C 
ENDBRANCH  20  24
ENDBRANCH   5  18
BRANCH  11  26
HETATM   26  N1  UNK     1      35.154  -5.471  33.853  1.00  0.00    -0.379 N 
HETATM   27  H10 UNK     1      35.891  -5.916  34.384  1.00  0.00     0.158 HD
HETATM   28  H9  UNK     1      35.381  -4.790  33.140  1.00  0.00     0.158 HD
ENDBRANCH  11  26
TORSDOF 3
ENDMDL
MODEL 9
REMARK VINA RESULT:      -7.6      2.664      6.305
REMARK  3 active torsions:
REMARK  status: ('A' for Active; 'I' for Inactive)
REMARK    1  A    between atoms: C13_19  and  O4_4 
REMARK    2  A    between atoms: C8_14  and  N1_5 
REMARK    3  A    between atoms: C1_7  and  C3_9 
ROOT
HETATM    1  O1  UNK     1      31.105  -6.107  35.689  1.00  0.00    -0.269 OA
HETATM    2  O2  UNK     1      29.676  -6.923  37.357  1.00  0.00    -0.286 OA
HETATM    3  O3  UNK     1      28.320  -9.883  34.918  1.00  0.00    -0.287 OA
HETATM    4  N2  UNK     1      32.767  -7.364  31.345  1.00  0.00    -0.191 NA
HETATM    5  C1  UNK     1      30.228  -8.042  33.765  1.00  0.00     0.109 C 
HETATM    6  C2  UNK     1      29.707  -7.968  35.184  1.00  0.00     0.065 A 
HETATM    7  C4  UNK     1      31.423  -7.125  33.548  1.00  0.00     0.086 C 
HETATM    8  C5  UNK     1      30.140  -7.038  36.055  1.00  0.00     0.204 A 
HETATM    9  C6  UNK     1      28.711  -8.975  35.639  1.00  0.00     0.197 A 
HETATM   10  C7  UNK     1      28.215  -8.826  37.014  1.00  0.00     0.049 A 
HETATM   11  C8  UNK     1      31.795  -6.223  34.483  1.00  0.00     0.162 C 
HETATM   12  C9  UNK     1      28.725  -7.801  37.804  1.00  0.00     0.092 A 
HETATM   13  C12 UNK     1      27.249  -9.696  37.525  1.00  0.00     0.018 A 
HETATM   14  C15 UNK     1      28.271  -7.637  39.113  1.00  0.00     0.038 A 
HETATM   15  C17 UNK     1      32.166  -7.257  32.331  1.00  0.00     0.100 C 
HETATM   16  C18 UNK     1      26.796  -9.531  38.835  1.00  0.00     0.001 A 
HETATM   17  C19 UNK     1      27.307  -8.503  39.628  1.00  0.00     0.003 A 
ENDROOT
BRANCH   5  18
HETATM   18  C3  UNK     1      29.137  -7.713  32.788  1.00  0.00    -0.041 A 
HETATM   19  C10 UNK     1      28.859  -8.591  31.745  1.00  0.00     0.044 A 
HETATM   20  C13 UNK     1      27.845  -8.285  30.838  1.00  0.00     0.068 A 
HETATM   21  C16 UNK     1      27.115  -7.105  30.979  1.00  0.00     0.037 A 
HETATM   22  C14 UNK     1      27.399  -6.230  32.028  1.00  0.00     0.003 A 
HETATM   23  C11 UNK     1      28.414  -6.535  32.936  1.00  0.00     0.008 A 
BRANCH  20  24
HETATM   24  O4  UNK     1      27.566  -9.140  29.816  1.00  0.00    -0.356 OA
HETATM   25  C20 UNK     1      28.618  -9.412  28.891  1.00  0.00     0.210 C 
ENDBRANCH  20  24
ENDBRANCH   5  18
BRANCH  11  26
HETATM   26  N1  UNK     1      32.844  -5.352  34.364  1.00  0.00    -0.379 N 
HETATM   27  H10 UNK     1      33.755  -5.637  34.701  1.00  0.00     0.158 HD
HETATM   28  H9  UNK     1      32.717  -4.437  33.951  1.00  0.00     0.158 HD
ENDBRANCH  11  26
TORSDOF 3
ENDMDL
MODEL 10
REMARK VINA RESULT:      -7.6      5.049      8.017
REMARK  3 active torsions:
REMARK  status: ('A' for Active; 'I' for Inactive)
REMARK    1  A    between atoms: C13_19  and  O4_4 
REMARK    2  A    between atoms: C8_14  and  N1_5 
REMARK    3  A    between atoms: C1_7  and  C3_9 
ROOT
HETATM    1  O1  UNK     1      34.886  -6.622  33.057  1.00  0.00    -0.269 OA
HETATM    2  O2  UNK     1      33.788  -7.496  34.934  1.00  0.00    -0.286 OA
HETATM    3  O3  UNK     1      32.000 -10.384  32.695  1.00  0.00    -0.287 OA
HETATM    4  N2  UNK     1      35.715  -7.735  28.444  1.00  0.00    -0.191 NA
HETATM    5  C1  UNK     1      33.665  -8.499  31.268  1.00  0.00     0.109 C 
HETATM    6  C2  UNK     1      33.415  -8.472  32.761  1.00  0.00     0.065 A 
HETATM    7  C4  UNK     1      34.802  -7.571  30.863  1.00  0.00     0.086 C 
HETATM    8  C5  UNK     1      34.004  -7.568  33.566  1.00  0.00     0.204 A 
HETATM    9  C6  UNK     1      32.519  -9.497  33.360  1.00  0.00     0.197 A 
HETATM   10  C7  UNK     1      32.285  -9.394  34.807  1.00  0.00     0.049 A 
HETATM   11  C8  UNK     1      35.340  -6.697  31.742  1.00  0.00     0.162 C 
HETATM   12  C9  UNK     1      32.934  -8.392  35.520  1.00  0.00     0.092 A 
HETATM   13  C12 UNK     1      31.429 -10.284  35.459  1.00  0.00     0.018 A 
HETATM   14  C15 UNK     1      32.730  -8.271  36.896  1.00  0.00     0.038 A 
HETATM   15  C17 UNK     1      35.307  -7.662  29.527  1.00  0.00     0.100 C 
HETATM   16  C18 UNK     1      31.226 -10.161  36.835  1.00  0.00     0.001 A 
HETATM   17  C19 UNK     1      31.876  -9.156  37.552  1.00  0.00     0.003 A 
ENDROOT
BRANCH   5  18
HETATM   18  C3  UNK     1      32.413  -8.145  30.520  1.00  0.00    -0.041 A 
HETATM   19  C10 UNK     1      31.984  -8.954  29.473  1.00  0.00     0.044 A 
HETATM   20  C13 UNK     1      30.820  -8.624  28.779  1.00  0.00     0.068 A 
HETATM   21  C16 UNK     1      30.093  -7.489  29.136  1.00  0.00     0.037 A 
HETATM   22  C14 UNK     1      30.530  -6.682  30.187  1.00  0.00     0.003 A 
HETATM   23  C11 UNK     1      31.694  -7.011  30.881  1.00  0.00     0.008 A 
BRANCH  20  24
HETATM   24  O4  UNK     1      30.393  -9.413  27.755  1.00  0.00    -0.356 OA
HETATM   25  C20 UNK     1      29.144 -10.082  27.927  1.00  0.00     0.210 C 
ENDBRANCH  20  24
ENDBRANCH   5  18
BRANCH  11  26
HETATM   26  N1  UNK     1      36.351  -5.819  31.459  1.00  0.00    -0.379 N 
HETATM   27  H10 UNK     1      36.406  -5.422  30.530  1.00  0.00     0.158 HD
HETATM   28  H9  UNK     1      37.036  -5.569  32.161  1.00  0.00     0.158 HD
ENDBRANCH  11  26
TORSDOF 3
ENDMDL
