MODEL 1
REMARK VINA RESULT:     -10.6      0.000      0.000
REMARK  4 active torsions:
REMARK  status: ('A' for Active; 'I' for Inactive)
REMARK       I    between atoms: C13_18  and  N2_5 
REMARK    1  A    between atoms: C6_11  and  N2_5 
REMARK    2  A    between atoms: C1_6  and  C4_9 
REMARK    3  A    between atoms: C4_9  and  C6_11 
REMARK    4  A    between atoms: C13_18  and  C14_19 
ROOT
HETATM    1  O2  UNK     1      17.484   3.714  31.950  1.00  0.00    -0.267 OA
HETATM    2  N2  UNK     1      18.932   4.753  30.448  1.00  0.00    -0.356 N 
HETATM    3  C13 UNK     1      18.305   3.670  31.036  1.00  0.00     0.257 C 
HETATM    4  H12 UNK     1      19.575   4.612  29.674  1.00  0.00     0.162 HD
ENDROOT
BRANCH   2   5
HETATM    5  C6  UNK     1      18.687   6.119  30.849  1.00  0.00     0.127 C 
BRANCH   5   6
HETATM    6  C4  UNK     1      19.102   6.392  32.293  1.00  0.00     0.061 C 
BRANCH   6   7
HETATM    7  C1  UNK     1      18.190   7.353  33.000  1.00  0.00    -0.022 A 
HETATM    8  C2  UNK     1      16.792   7.421  32.839  1.00  0.00    -0.001 A 
HETATM    9  C3  UNK     1      16.351   8.447  33.677  1.00  0.00     0.049 A 
HETATM   10  C8  UNK     1      15.844   6.721  32.067  1.00  0.00     0.014 A 
HETATM   11  N1  UNK     1      17.461   8.961  34.308  1.00  0.00    -0.358 N 
HETATM   12  C7  UNK     1      15.003   8.810  33.783  1.00  0.00    -0.034 A 
HETATM   13  C5  UNK     1      18.586   8.296  33.899  1.00  0.00     0.013 A 
HETATM   14  H3  UNK     1      17.451   9.718  34.978  1.00  0.00     0.166 HD
HETATM   15  C9  UNK     1      19.916   8.655  34.429  1.00  0.00     0.068 C 
HETATM   16  C10 UNK     1      14.080   8.102  33.008  1.00  0.00     0.009 A 
HETATM   17  C12 UNK     1      14.528   9.906  34.678  1.00  0.00     0.050 C 
HETATM   18  C11 UNK     1      14.491   7.073  32.163  1.00  0.00     0.002 A 
ENDBRANCH   6   7
ENDBRANCH   5   6
ENDBRANCH   2   5
BRANCH   3  19
HETATM   19  C14 UNK     1      18.717   2.387  30.455  1.00  0.00     0.108 A 
HETATM   20  C16 UNK     1      19.245   1.496  31.304  1.00  0.00     0.037 A 
HETATM   21  C15 UNK     1      19.683   0.194  30.822  1.00  0.00    -0.001 A 
HETATM   22  C17 UNK     1      19.544  -0.104  29.471  1.00  0.00     0.089 A 
HETATM   23  C19 UNK     1      20.239  -0.765  31.672  1.00  0.00     0.014 A 
HETATM   24  O1  UNK     1      18.987   0.837  28.583  1.00  0.00    -0.274 OA
HETATM   25  C20 UNK     1      19.944  -1.332  28.945  1.00  0.00     0.038 A 
HETATM   26  C18 UNK     1      18.560   2.089  29.014  1.00  0.00     0.304 A 
HETATM   27  O3  UNK     1      18.077   2.903  28.234  1.00  0.00    -0.259 OA
HETATM   28  C22 UNK     1      20.498  -2.283  29.800  1.00  0.00     0.003 A 
HETATM   29  C21 UNK     1      20.645  -2.001  31.159  1.00  0.00     0.001 A 
ENDBRANCH   3  19
TORSDOF 4
ENDMDL
MODEL 2
REMARK VINA RESULT:     -10.6      1.476      2.476
REMARK  4 active torsions:
REMARK  status: ('A' for Active; 'I' for Inactive)
REMARK       I    between atoms: C13_18  and  N2_5 
REMARK    1  A    between atoms: C6_11  and  N2_5 
REMARK    2  A    between atoms: C1_6  and  C4_9 
REMARK    3  A    between atoms: C4_9  and  C6_11 
REMARK    4  A    between atoms: C13_18  and  C14_19 
ROOT
HETATM    1  O2  UNK     1      18.021   2.492  28.393  1.00  0.00    -0.267 OA
HETATM    2  N2  UNK     1      19.052   3.780  30.039  1.00  0.00    -0.356 N 
HETATM    3  C13 UNK     1      18.625   2.600  29.458  1.00  0.00     0.257 C 
HETATM    4  H12 UNK     1      19.573   3.761  30.910  1.00  0.00     0.162 HD
ENDROOT
BRANCH   2   5
HETATM    5  C6  UNK     1      18.833   5.077  29.441  1.00  0.00     0.127 C 
BRANCH   5   6
HETATM    6  C4  UNK     1      19.706   6.166  30.062  1.00  0.00     0.061 C 
BRANCH   6   7
HETATM    7  C1  UNK     1      19.295   6.529  31.461  1.00  0.00    -0.022 A 
HETATM    8  C2  UNK     1      18.015   6.975  31.846  1.00  0.00    -0.001 A 
HETATM    9  C3  UNK     1      18.076   7.195  33.224  1.00  0.00     0.049 A 
HETATM   10  C8  UNK     1      16.802   7.220  31.173  1.00  0.00     0.014 A 
HETATM   11  N1  UNK     1      19.355   6.884  33.628  1.00  0.00    -0.358 N 
HETATM   12  C7  UNK     1      16.980   7.649  33.966  1.00  0.00    -0.034 A 
HETATM   13  C5  UNK     1      20.103   6.477  32.555  1.00  0.00     0.013 A 
HETATM   14  H3  UNK     1      19.695   6.947  34.577  1.00  0.00     0.166 HD
HETATM   15  C9  UNK     1      21.516   6.085  32.720  1.00  0.00     0.068 C 
HETATM   16  C10 UNK     1      15.787   7.886  33.277  1.00  0.00     0.009 A 
HETATM   17  C12 UNK     1      17.041   7.885  35.438  1.00  0.00     0.050 C 
HETATM   18  C11 UNK     1      15.697   7.676  31.902  1.00  0.00     0.002 A 
ENDBRANCH   6   7
ENDBRANCH   5   6
ENDBRANCH   2   5
BRANCH   3  19
HETATM   19  C14 UNK     1      18.966   1.416  30.254  1.00  0.00     0.108 A 
HETATM   20  C16 UNK     1      19.613   0.437  29.610  1.00  0.00     0.037 A 
HETATM   21  C15 UNK     1      19.996  -0.778  30.315  1.00  0.00    -0.001 A 
HETATM   22  C17 UNK     1      19.676  -0.902  31.663  1.00  0.00     0.089 A 
HETATM   23  C19 UNK     1      20.672  -1.824  29.682  1.00  0.00     0.014 A 
HETATM   24  O1  UNK     1      18.995   0.132  32.336  1.00  0.00    -0.274 OA
HETATM   25  C20 UNK     1      20.013  -2.039  32.396  1.00  0.00     0.038 A 
HETATM   26  C18 UNK     1      18.618   1.305  31.688  1.00  0.00     0.304 A 
HETATM   27  O3  UNK     1      18.024   2.199  32.282  1.00  0.00    -0.259 OA
HETATM   28  C22 UNK     1      20.687  -3.078  31.757  1.00  0.00     0.003 A 
HETATM   29  C21 UNK     1      21.016  -2.971  30.405  1.00  0.00     0.001 A 
ENDBRANCH   3  19
TORSDOF 4
ENDMDL
MODEL 3
REMARK VINA RESULT:     -10.4      8.107     13.730
REMARK  4 active torsions:
REMARK  status: ('A' for Active; 'I' for Inactive)
REMARK       I    between atoms: C13_18  and  N2_5 
REMARK    1  A    between atoms: C6_11  and  N2_5 
REMARK    2  A    between atoms: C1_6  and  C4_9 
REMARK    3  A    between atoms: C4_9  and  C6_11 
REMARK    4  A    between atoms: C13_18  and  C14_19 
ROOT
HETATM    1  O2  UNK     1      20.525  -4.684  36.638  1.00  0.00    -0.267 OA
HETATM    2  N2  UNK     1      18.200  -4.842  36.702  1.00  0.00    -0.356 N 
HETATM    3  C13 UNK     1      19.406  -4.183  36.552  1.00  0.00     0.257 C 
HETATM    4  H12 UNK     1      17.325  -4.342  36.580  1.00  0.00     0.162 HD
ENDROOT
BRANCH   2   5
HETATM    5  C6  UNK     1      18.106  -6.256  36.988  1.00  0.00     0.127 C 
BRANCH   5   6
HETATM    6  C4  UNK     1      18.105  -7.113  35.724  1.00  0.00     0.061 C 
BRANCH   6   7
HETATM    7  C1  UNK     1      19.355  -7.932  35.563  1.00  0.00    -0.022 A 
HETATM    8  C2  UNK     1      19.687  -9.072  36.321  1.00  0.00    -0.001 A 
HETATM    9  C3  UNK     1      20.923  -9.513  35.842  1.00  0.00     0.049 A 
HETATM   10  C8  UNK     1      19.073  -9.785  37.369  1.00  0.00     0.014 A 
HETATM   11  N1  UNK     1      21.298  -8.653  34.835  1.00  0.00    -0.358 N 
HETATM   12  C7  UNK     1      21.578 -10.635  36.362  1.00  0.00    -0.034 A 
HETATM   13  C5  UNK     1      20.344  -7.686  34.660  1.00  0.00     0.013 A 
HETATM   14  H3  UNK     1      22.152  -8.723  34.300  1.00  0.00     0.166 HD
HETATM   15  C9  UNK     1      20.505  -6.636  33.635  1.00  0.00     0.068 C 
HETATM   16  C10 UNK     1      20.949 -11.327  37.401  1.00  0.00     0.009 A 
HETATM   17  C12 UNK     1      22.898 -11.110  35.853  1.00  0.00     0.050 C 
HETATM   18  C11 UNK     1      19.716 -10.910  37.899  1.00  0.00     0.002 A 
ENDBRANCH   6   7
ENDBRANCH   5   6
ENDBRANCH   2   5
BRANCH   3  19
HETATM   19  C14 UNK     1      19.242  -2.753  36.263  1.00  0.00     0.108 A 
HETATM   20  C16 UNK     1      18.512  -2.053  37.140  1.00  0.00     0.037 A 
HETATM   21  C15 UNK     1      18.293  -0.628  36.941  1.00  0.00    -0.001 A 
HETATM   22  C17 UNK     1      18.853  -0.011  35.827  1.00  0.00     0.089 A 
HETATM   23  C19 UNK     1      17.539   0.141  37.830  1.00  0.00     0.014 A 
HETATM   24  O1  UNK     1      19.620  -0.753  34.907  1.00  0.00    -0.274 OA
HETATM   25  C20 UNK     1      18.681   1.349  35.577  1.00  0.00     0.038 A 
HETATM   26  C18 UNK     1      19.847  -2.117  35.072  1.00  0.00     0.304 A 
HETATM   27  O3  UNK     1      20.515  -2.755  34.265  1.00  0.00    -0.259 OA
HETATM   28  C22 UNK     1      17.927   2.109  36.469  1.00  0.00     0.003 A 
HETATM   29  C21 UNK     1      17.358   1.507  37.593  1.00  0.00     0.001 A 
ENDBRANCH   3  19
TORSDOF 4
ENDMDL
MODEL 4
REMARK VINA RESULT:     -10.1      2.311      9.142
REMARK  4 active torsions:
REMARK  status: ('A' for Active; 'I' for Inactive)
REMARK       I    between atoms: C13_18  and  N2_5 
REMARK    1  A    between atoms: C6_11  and  N2_5 
REMARK    2  A    between atoms: C1_6  and  C4_9 
REMARK    3  A    between atoms: C4_9  and  C6_11 
REMARK    4  A    between atoms: C13_18  and  C14_19 
ROOT
HETATM    1  O2  UNK     1      18.957   5.066  33.586  1.00  0.00    -0.267 OA
HETATM    2  N2  UNK     1      18.390   5.365  31.345  1.00  0.00    -0.356 N 
HETATM    3  C13 UNK     1      18.432   5.713  32.682  1.00  0.00     0.257 C 
HETATM    4  H12 UNK     1      17.958   5.986  30.668  1.00  0.00     0.162 HD
ENDROOT
BRANCH   2   5
HETATM    5  C6  UNK     1      18.982   4.152  30.828  1.00  0.00     0.127 C 
BRANCH   5   6
HETATM    6  C4  UNK     1      17.999   2.983  30.798  1.00  0.00     0.061 C 
BRANCH   6   7
HETATM    7  C1  UNK     1      18.589   1.699  31.308  1.00  0.00    -0.022 A 
HETATM    8  C2  UNK     1      19.234   0.727  30.518  1.00  0.00    -0.001 A 
HETATM    9  C3  UNK     1      19.623  -0.291  31.391  1.00  0.00     0.049 A 
HETATM   10  C8  UNK     1      19.534   0.596  29.147  1.00  0.00     0.014 A 
HETATM   11  N1  UNK     1      19.215   0.079  32.652  1.00  0.00    -0.358 N 
HETATM   12  C7  UNK     1      20.298  -1.439  30.961  1.00  0.00    -0.034 A 
HETATM   13  C5  UNK     1      18.583   1.293  32.607  1.00  0.00     0.013 A 
HETATM   14  H3  UNK     1      19.359  -0.464  33.492  1.00  0.00     0.166 HD
HETATM   15  C9  UNK     1      18.049   1.918  33.833  1.00  0.00     0.068 C 
HETATM   16  C10 UNK     1      20.585  -1.547  29.597  1.00  0.00     0.009 A 
HETATM   17  C12 UNK     1      20.715  -2.529  31.891  1.00  0.00     0.050 C 
HETATM   18  C11 UNK     1      20.209  -0.547  28.702  1.00  0.00     0.002 A 
ENDBRANCH   6   7
ENDBRANCH   5   6
ENDBRANCH   2   5
BRANCH   3  19
HETATM   19  C14 UNK     1      17.764   6.990  32.960  1.00  0.00     0.108 A 
HETATM   20  C16 UNK     1      18.554   7.997  33.353  1.00  0.00     0.037 A 
HETATM   21  C15 UNK     1      17.984   9.303  33.651  1.00  0.00    -0.001 A 
HETATM   22  C17 UNK     1      16.611   9.483  33.522  1.00  0.00     0.089 A 
HETATM   23  C19 UNK     1      18.771  10.381  34.064  1.00  0.00     0.014 A 
HETATM   24  O1  UNK     1      15.785   8.420  33.107  1.00  0.00    -0.274 OA
HETATM   25  C20 UNK     1      16.003  10.708  33.793  1.00  0.00     0.038 A 
HETATM   26  C18 UNK     1      16.301   7.161  32.815  1.00  0.00     0.304 A 
HETATM   27  O3  UNK     1      15.574   6.240  32.456  1.00  0.00    -0.259 OA
HETATM   28  C22 UNK     1      16.794  11.778  34.205  1.00  0.00     0.003 A 
HETATM   29  C21 UNK     1      18.174  11.616  34.340  1.00  0.00     0.001 A 
ENDBRANCH   3  19
TORSDOF 4
ENDMDL
MODEL 5
REMARK VINA RESULT:     -10.0      7.231     12.356
REMARK  4 active torsions:
REMARK  status: ('A' for Active; 'I' for Inactive)
REMARK       I    between atoms: C13_18  and  N2_5 
REMARK    1  A    between atoms: C6_11  and  N2_5 
REMARK    2  A    between atoms: C1_6  and  C4_9 
REMARK    3  A    between atoms: C4_9  and  C6_11 
REMARK    4  A    between atoms: C13_18  and  C14_19 
ROOT
HETATM    1  O2  UNK     1      21.419  -2.121  35.534  1.00  0.00    -0.267 OA
HETATM    2  N2  UNK     1      19.778  -3.663  34.931  1.00  0.00    -0.356 N 
HETATM    3  C13 UNK     1      20.514  -2.500  34.793  1.00  0.00     0.257 C 
HETATM    4  H12 UNK     1      19.070  -3.903  34.244  1.00  0.00     0.162 HD
ENDROOT
BRANCH   2   5
HETATM    5  C6  UNK     1      19.992  -4.609  36.002  1.00  0.00     0.127 C 
BRANCH   5   6
HETATM    6  C4  UNK     1      18.686  -5.162  36.568  1.00  0.00     0.061 C 
BRANCH   6   7
HETATM    7  C1  UNK     1      18.729  -6.643  36.820  1.00  0.00    -0.022 A 
HETATM    8  C2  UNK     1      19.527  -7.282  37.790  1.00  0.00    -0.001 A 
HETATM    9  C3  UNK     1      19.256  -8.648  37.678  1.00  0.00     0.049 A 
HETATM   10  C8  UNK     1      20.456  -6.852  38.757  1.00  0.00     0.014 A 
HETATM   11  N1  UNK     1      18.328  -8.797  36.673  1.00  0.00    -0.358 N 
HETATM   12  C7  UNK     1      19.871  -9.609  38.489  1.00  0.00    -0.034 A 
HETATM   13  C5  UNK     1      18.003  -7.576  36.146  1.00  0.00     0.013 A 
HETATM   14  H3  UNK     1      17.941  -9.679  36.366  1.00  0.00     0.166 HD
HETATM   15  C9  UNK     1      17.024  -7.458  35.048  1.00  0.00     0.068 C 
HETATM   16  C10 UNK     1      20.790  -9.158  39.442  1.00  0.00     0.009 A 
HETATM   17  C12 UNK     1      19.586 -11.069  38.374  1.00  0.00     0.050 C 
HETATM   18  C11 UNK     1      21.080  -7.802  39.575  1.00  0.00     0.002 A 
ENDBRANCH   6   7
ENDBRANCH   5   6
ENDBRANCH   2   5
BRANCH   3  19
HETATM   19  C14 UNK     1      20.113  -1.705  33.627  1.00  0.00     0.108 A 
HETATM   20  C16 UNK     1      20.628  -2.081  32.450  1.00  0.00     0.037 A 
HETATM   21  C15 UNK     1      20.288  -1.354  31.235  1.00  0.00    -0.001 A 
HETATM   22  C17 UNK     1      19.424  -0.268  31.320  1.00  0.00     0.089 A 
HETATM   23  C19 UNK     1      20.803  -1.711  29.986  1.00  0.00     0.014 A 
HETATM   24  O1  UNK     1      18.885   0.122  32.562  1.00  0.00    -0.274 OA
HETATM   25  C20 UNK     1      19.059   0.470  30.196  1.00  0.00     0.038 A 
HETATM   26  C18 UNK     1      19.191  -0.553  33.740  1.00  0.00     0.304 A 
HETATM   27  O3  UNK     1      18.717  -0.206  34.817  1.00  0.00    -0.259 OA
HETATM   28  C22 UNK     1      19.577   0.108  28.954  1.00  0.00     0.003 A 
HETATM   29  C21 UNK     1      20.446  -0.980  28.849  1.00  0.00     0.001 A 
ENDBRANCH   3  19
TORSDOF 4
ENDMDL
MODEL 6
REMARK VINA RESULT:     -10.0      1.776      3.186
REMARK  4 active torsions:
REMARK  status: ('A' for Active; 'I' for Inactive)
REMARK       I    between atoms: C13_18  and  N2_5 
REMARK    1  A    between atoms: C6_11  and  N2_5 
REMARK    2  A    between atoms: C1_6  and  C4_9 
REMARK    3  A    between atoms: C4_9  and  C6_11 
REMARK    4  A    between atoms: C13_18  and  C14_19 
ROOT
HETATM    1  O2  UNK     1      18.654   4.545  30.112  1.00  0.00    -0.267 OA
HETATM    2  N2  UNK     1      17.697   4.494  32.236  1.00  0.00    -0.356 N 
HETATM    3  C13 UNK     1      18.349   3.952  31.144  1.00  0.00     0.257 C 
HETATM    4  H12 UNK     1      17.518   3.925  33.058  1.00  0.00     0.162 HD
ENDROOT
BRANCH   2   5
HETATM    5  C6  UNK     1      17.282   5.876  32.300  1.00  0.00     0.127 C 
BRANCH   5   6
HETATM    6  C4  UNK     1      17.186   6.397  33.733  1.00  0.00     0.061 C 
BRANCH   6   7
HETATM    7  C1  UNK     1      16.671   7.805  33.818  1.00  0.00    -0.022 A 
HETATM    8  C2  UNK     1      17.469   8.960  33.941  1.00  0.00    -0.001 A 
HETATM    9  C3  UNK     1      16.586  10.042  33.987  1.00  0.00     0.049 A 
HETATM   10  C8  UNK     1      18.853   9.211  34.020  1.00  0.00     0.014 A 
HETATM   11  N1  UNK     1      15.312   9.530  33.893  1.00  0.00    -0.358 N 
HETATM   12  C7  UNK     1      17.020  11.367  34.108  1.00  0.00    -0.034 A 
HETATM   13  C5  UNK     1      15.358   8.165  33.790  1.00  0.00     0.013 A 
HETATM   14  H3  UNK     1      14.464  10.078  33.898  1.00  0.00     0.166 HD
HETATM   15  C9  UNK     1      14.120   7.369  33.675  1.00  0.00     0.068 C 
HETATM   16  C10 UNK     1      18.398  11.591  34.184  1.00  0.00     0.009 A 
HETATM   17  C12 UNK     1      16.081  12.525  34.157  1.00  0.00     0.050 C 
HETATM   18  C11 UNK     1      19.302  10.531  34.142  1.00  0.00     0.002 A 
ENDBRANCH   6   7
ENDBRANCH   5   6
ENDBRANCH   2   5
BRANCH   3  19
HETATM   19  C14 UNK     1      18.670   2.530  31.318  1.00  0.00     0.108 A 
HETATM   20  C16 UNK     1      19.239   1.920  30.272  1.00  0.00     0.037 A 
HETATM   21  C15 UNK     1      19.595   0.511  30.348  1.00  0.00    -0.001 A 
HETATM   22  C17 UNK     1      19.333  -0.186  31.523  1.00  0.00     0.089 A 
HETATM   23  C19 UNK     1      20.190  -0.166  29.281  1.00  0.00     0.014 A 
HETATM   24  O1  UNK     1      18.734   0.462  32.621  1.00  0.00    -0.274 OA
HETATM   25  C20 UNK     1      19.648  -1.537  31.661  1.00  0.00     0.038 A 
HETATM   26  C18 UNK     1      18.383   1.808  32.578  1.00  0.00     0.304 A 
HETATM   27  O3  UNK     1      17.861   2.363  33.538  1.00  0.00    -0.259 OA
HETATM   28  C22 UNK     1      20.241  -2.204  30.592  1.00  0.00     0.003 A 
HETATM   29  C21 UNK     1      20.512  -1.521  29.405  1.00  0.00     0.001 A 
ENDBRANCH   3  19
TORSDOF 4
ENDMDL
MODEL 7
REMARK VINA RESULT:     -10.0      1.196      2.628
REMARK  4 active torsions:
REMARK  status: ('A' for Active; 'I' for Inactive)
REMARK       I    between atoms: C13_18  and  N2_5 
REMARK    1  A    between atoms: C6_11  and  N2_5 
REMARK    2  A    between atoms: C1_6  and  C4_9 
REMARK    3  A    between atoms: C4_9  and  C6_11 
REMARK    4  A    between atoms: C13_18  and  C14_19 
ROOT
HETATM    1  O2  UNK     1      17.154   3.125  31.397  1.00  0.00    -0.267 OA
HETATM    2  N2  UNK     1      19.124   4.087  30.607  1.00  0.00    -0.356 N 
HETATM    3  C13 UNK     1      18.258   3.040  30.863  1.00  0.00     0.257 C 
HETATM    4  H12 UNK     1      20.004   3.917  30.129  1.00  0.00     0.162 HD
ENDROOT
BRANCH   2   5
HETATM    5  C6  UNK     1      18.825   5.459  30.947  1.00  0.00     0.127 C 
BRANCH   5   6
HETATM    6  C4  UNK     1      18.645   5.667  32.450  1.00  0.00     0.061 C 
BRANCH   6   7
HETATM    7  C1  UNK     1      18.095   7.021  32.799  1.00  0.00    -0.022 A 
HETATM    8  C2  UNK     1      18.820   8.062  33.412  1.00  0.00    -0.001 A 
HETATM    9  C3  UNK     1      17.929   9.129  33.551  1.00  0.00     0.049 A 
HETATM   10  C8  UNK     1      20.143   8.220  33.870  1.00  0.00     0.014 A 
HETATM   11  N1  UNK     1      16.722   8.719  33.033  1.00  0.00    -0.358 N 
HETATM   12  C7  UNK     1      18.297  10.351  34.126  1.00  0.00    -0.034 A 
HETATM   13  C5  UNK     1      16.818   7.432  32.573  1.00  0.00     0.013 A 
HETATM   14  H3  UNK     1      15.884   9.283  32.995  1.00  0.00     0.166 HD
HETATM   15  C9  UNK     1      15.657   6.754  31.965  1.00  0.00     0.068 C 
HETATM   16  C10 UNK     1      19.614  10.484  34.573  1.00  0.00     0.009 A 
HETATM   17  C12 UNK     1      17.348  11.493  34.276  1.00  0.00     0.050 C 
HETATM   18  C11 UNK     1      20.525   9.436  34.448  1.00  0.00     0.002 A 
ENDBRANCH   6   7
ENDBRANCH   5   6
ENDBRANCH   2   5
BRANCH   3  19
HETATM   19  C14 UNK     1      18.784   1.743  30.423  1.00  0.00     0.108 A 
HETATM   20  C16 UNK     1      19.298   0.959  31.378  1.00  0.00     0.037 A 
HETATM   21  C15 UNK     1      19.845  -0.347  31.040  1.00  0.00    -0.001 A 
HETATM   22  C17 UNK     1      19.823  -0.762  29.713  1.00  0.00     0.089 A 
HETATM   23  C19 UNK     1      20.391  -1.197  32.005  1.00  0.00     0.014 A 
HETATM   24  O1  UNK     1      19.280   0.067  28.712  1.00  0.00    -0.274 OA
HETATM   25  C20 UNK     1      20.331  -2.001  29.323  1.00  0.00     0.038 A 
HETATM   26  C18 UNK     1      18.750   1.320  29.005  1.00  0.00     0.304 A 
HETATM   27  O3  UNK     1      18.281   2.036  28.126  1.00  0.00    -0.259 OA
HETATM   28  C22 UNK     1      20.874  -2.842  30.291  1.00  0.00     0.003 A 
HETATM   29  C21 UNK     1      20.904  -2.442  31.629  1.00  0.00     0.001 A 
ENDBRANCH   3  19
TORSDOF 4
ENDMDL
MODEL 8
REMARK VINA RESULT:     -10.0      1.584      2.525
REMARK  4 active torsions:
REMARK  status: ('A' for Active; 'I' for Inactive)
REMARK       I    between atoms: C13_18  and  N2_5 
REMARK    1  A    between atoms: C6_11  and  N2_5 
REMARK    2  A    between atoms: C1_6  and  C4_9 
REMARK    3  A    between atoms: C4_9  and  C6_11 
REMARK    4  A    between atoms: C13_18  and  C14_19 
ROOT
HETATM    1  O2  UNK     1      18.721   4.623  30.213  1.00  0.00    -0.267 OA
HETATM    2  N2  UNK     1      17.582   4.486  32.242  1.00  0.00    -0.356 N 
HETATM    3  C13 UNK     1      18.336   3.991  31.194  1.00  0.00     0.257 C 
HETATM    4  H12 UNK     1      17.341   3.887  33.025  1.00  0.00     0.162 HD
ENDROOT
BRANCH   2   5
HETATM    5  C6  UNK     1      17.139   5.859  32.314  1.00  0.00     0.127 C 
BRANCH   5   6
HETATM    6  C4  UNK     1      17.025   6.366  33.750  1.00  0.00     0.061 C 
BRANCH   6   7
HETATM    7  C1  UNK     1      17.274   7.842  33.879  1.00  0.00    -0.022 A 
HETATM    8  C2  UNK     1      16.278   8.830  34.011  1.00  0.00    -0.001 A 
HETATM    9  C3  UNK     1      16.948  10.052  34.099  1.00  0.00     0.049 A 
HETATM   10  C8  UNK     1      14.870   8.823  34.066  1.00  0.00     0.014 A 
HETATM   11  N1  UNK     1      18.295   9.782  34.020  1.00  0.00    -0.358 N 
HETATM   12  C7  UNK     1      16.279  11.273  34.239  1.00  0.00    -0.034 A 
HETATM   13  C5  UNK     1      18.500   8.434  33.886  1.00  0.00     0.013 A 
HETATM   14  H3  UNK     1      19.030  10.475  34.056  1.00  0.00     0.166 HD
HETATM   15  C9  UNK     1      19.863   7.879  33.780  1.00  0.00     0.068 C 
HETATM   16  C10 UNK     1      14.882  11.242  34.291  1.00  0.00     0.009 A 
HETATM   17  C12 UNK     1      16.991  12.581  34.333  1.00  0.00     0.050 C 
HETATM   18  C11 UNK     1      14.186  10.037  34.206  1.00  0.00     0.002 A 
ENDBRANCH   6   7
ENDBRANCH   5   6
ENDBRANCH   2   5
BRANCH   3  19
HETATM   19  C14 UNK     1      18.665   2.569  31.349  1.00  0.00     0.108 A 
HETATM   20  C16 UNK     1      19.184   1.962  30.275  1.00  0.00     0.037 A 
HETATM   21  C15 UNK     1      19.543   0.552  30.331  1.00  0.00    -0.001 A 
HETATM   22  C17 UNK     1      19.337  -0.148  31.515  1.00  0.00     0.089 A 
HETATM   23  C19 UNK     1      20.087  -0.121  29.234  1.00  0.00     0.014 A 
HETATM   24  O1  UNK     1      18.790   0.497  32.642  1.00  0.00    -0.274 OA
HETATM   25  C20 UNK     1      19.658  -1.499  31.635  1.00  0.00     0.038 A 
HETATM   26  C18 UNK     1      18.438   1.843  32.619  1.00  0.00     0.304 A 
HETATM   27  O3  UNK     1      17.962   2.396  33.605  1.00  0.00    -0.259 OA
HETATM   28  C22 UNK     1      20.200  -2.164  30.536  1.00  0.00     0.003 A 
HETATM   29  C21 UNK     1      20.414  -1.477  29.340  1.00  0.00     0.001 A 
ENDBRANCH   3  19
TORSDOF 4
ENDMDL
MODEL 9
REMARK VINA RESULT:      -9.9      6.931     10.273
REMARK  4 active torsions:
REMARK  status: ('A' for Active; 'I' for Inactive)
REMARK       I    between atoms: C13_18  and  N2_5 
REMARK    1  A    between atoms: C6_11  and  N2_5 
REMARK    2  A    between atoms: C1_6  and  C4_9 
REMARK    3  A    between atoms: C4_9  and  C6_11 
REMARK    4  A    between atoms: C13_18  and  C14_19 
ROOT
HETATM    1  O2  UNK     1      21.195  -3.775  37.583  1.00  0.00    -0.267 OA
HETATM    2  N2  UNK     1      19.856  -3.687  35.678  1.00  0.00    -0.356 N 
HETATM    3  C13 UNK     1      20.505  -4.317  36.723  1.00  0.00     0.257 C 
HETATM    4  H12 UNK     1      19.281  -4.223  35.035  1.00  0.00     0.162 HD
ENDROOT
BRANCH   2   5
HETATM    5  C6  UNK     1      19.912  -2.259  35.462  1.00  0.00     0.127 C 
BRANCH   5   6
HETATM    6  C4  UNK     1      18.579  -1.684  34.986  1.00  0.00     0.061 C 
BRANCH   6   7
HETATM    7  C1  UNK     1      18.709  -0.821  33.763  1.00  0.00    -0.022 A 
HETATM    8  C2  UNK     1      19.316  -1.208  32.552  1.00  0.00    -0.001 A 
HETATM    9  C3  UNK     1      19.217  -0.109  31.696  1.00  0.00     0.049 A 
HETATM   10  C8  UNK     1      19.945  -2.378  32.083  1.00  0.00     0.014 A 
HETATM   11  N1  UNK     1      18.570   0.888  32.390  1.00  0.00    -0.358 N 
HETATM   12  C7  UNK     1      19.717  -0.121  30.389  1.00  0.00    -0.034 A 
HETATM   13  C5  UNK     1      18.258   0.459  33.653  1.00  0.00     0.013 A 
HETATM   14  H3  UNK     1      18.355   1.805  32.025  1.00  0.00     0.166 HD
HETATM   15  C9  UNK     1      17.557   1.342  34.605  1.00  0.00     0.068 C 
HETATM   16  C10 UNK     1      20.337  -1.292  29.945  1.00  0.00     0.009 A 
HETATM   17  C12 UNK     1      19.613   1.052  29.471  1.00  0.00     0.050 C 
HETATM   18  C11 UNK     1      20.451  -2.405  30.777  1.00  0.00     0.002 A 
ENDBRANCH   6   7
ENDBRANCH   5   6
ENDBRANCH   2   5
BRANCH   3  19
HETATM   19  C14 UNK     1      20.295  -5.770  36.732  1.00  0.00     0.108 A 
HETATM   20  C16 UNK     1      20.174  -6.342  37.936  1.00  0.00     0.037 A 
HETATM   21  C15 UNK     1      19.963  -7.778  38.047  1.00  0.00    -0.001 A 
HETATM   22  C17 UNK     1      19.892  -8.540  36.886  1.00  0.00     0.089 A 
HETATM   23  C19 UNK     1      19.831  -8.417  39.283  1.00  0.00     0.014 A 
HETATM   24  O1  UNK     1      20.020  -7.931  35.622  1.00  0.00    -0.274 OA
HETATM   25  C20 UNK     1      19.692  -9.919  36.923  1.00  0.00     0.038 A 
HETATM   26  C18 UNK     1      20.222  -6.561  35.484  1.00  0.00     0.304 A 
HETATM   27  O3  UNK     1      20.333  -6.040  34.379  1.00  0.00    -0.259 OA
HETATM   28  C22 UNK     1      19.562 -10.549  38.159  1.00  0.00     0.003 A 
HETATM   29  C21 UNK     1      19.631  -9.800  39.336  1.00  0.00     0.001 A 
ENDBRANCH   3  19
TORSDOF 4
ENDMDL
MODEL 10
REMARK VINA RESULT:      -9.9      2.225      9.138
REMARK  4 active torsions:
REMARK  status: ('A' for Active; 'I' for Inactive)
REMARK       I    between atoms: C13_18  and  N2_5 
REMARK    1  A    between atoms: C6_11  and  N2_5 
REMARK    2  A    between atoms: C1_6  and  C4_9 
REMARK    3  A    between atoms: C4_9  and  C6_11 
REMARK    4  A    between atoms: C13_18  and  C14_19 
ROOT
HETATM    1  O2  UNK     1      19.018   4.970  33.717  1.00  0.00    -0.267 OA
HETATM    2  N2  UNK     1      18.512   5.411  31.485  1.00  0.00    -0.356 N 
HETATM    3  C13 UNK     1      18.558   5.695  32.837  1.00  0.00     0.257 C 
HETATM    4  H12 UNK     1      18.139   6.093  30.832  1.00  0.00     0.162 HD
ENDROOT
BRANCH   2   5
HETATM    5  C6  UNK     1      19.019   4.181  30.920  1.00  0.00     0.127 C 
BRANCH   5   6
HETATM    6  C4  UNK     1      17.995   3.049  30.958  1.00  0.00     0.061 C 
BRANCH   6   7
HETATM    7  C1  UNK     1      18.575   1.740  31.412  1.00  0.00    -0.022 A 
HETATM    8  C2  UNK     1      19.211   0.797  30.581  1.00  0.00    -0.001 A 
HETATM    9  C3  UNK     1      19.592  -0.261  31.409  1.00  0.00     0.049 A 
HETATM   10  C8  UNK     1      19.508   0.722  29.206  1.00  0.00     0.014 A 
HETATM   11  N1  UNK     1      19.189   0.058  32.686  1.00  0.00    -0.358 N 
HETATM   12  C7  UNK     1      20.258  -1.395  30.930  1.00  0.00    -0.034 A 
HETATM   13  C5  UNK     1      18.567   1.279  32.693  1.00  0.00     0.013 A 
HETATM   14  H3  UNK     1      19.330  -0.521  33.502  1.00  0.00     0.166 HD
HETATM   15  C9  UNK     1      18.039   1.855  33.945  1.00  0.00     0.068 C 
HETATM   16  C10 UNK     1      20.542  -1.447  29.562  1.00  0.00     0.009 A 
HETATM   17  C12 UNK     1      20.667  -2.527  31.812  1.00  0.00     0.050 C 
HETATM   18  C11 UNK     1      20.174  -0.407  28.711  1.00  0.00     0.002 A 
ENDBRANCH   6   7
ENDBRANCH   5   6
ENDBRANCH   2   5
BRANCH   3  19
HETATM   19  C14 UNK     1      17.984   7.005  33.165  1.00  0.00     0.108 A 
HETATM   20  C16 UNK     1      16.666   7.136  32.975  1.00  0.00     0.037 A 
HETATM   21  C15 UNK     1      16.004   8.398  33.272  1.00  0.00    -0.001 A 
HETATM   22  C17 UNK     1      16.764   9.459  33.753  1.00  0.00     0.089 A 
HETATM   23  C19 UNK     1      14.631   8.580  33.089  1.00  0.00     0.014 A 
HETATM   24  O1  UNK     1      18.151   9.315  33.952  1.00  0.00    -0.274 OA
HETATM   25  C20 UNK     1      16.192  10.694  34.057  1.00  0.00     0.038 A 
HETATM   26  C18 UNK     1      18.811   8.120  33.677  1.00  0.00     0.304 A 
HETATM   27  O3  UNK     1      20.020   8.004  33.851  1.00  0.00    -0.259 OA
HETATM   28  C22 UNK     1      14.822  10.867  33.871  1.00  0.00     0.003 A 
HETATM   29  C21 UNK     1      14.043   9.813  33.389  1.00  0.00     0.001 A 
ENDBRANCH   3  19
TORSDOF 4
ENDMDL
