MODEL 1
REMARK VINA RESULT:      -7.3      0.000      0.000
REMARK  8 active torsions:
REMARK  status: ('A' for Active; 'I' for Inactive)
REMARK    1  A    between atoms: C2_8  and  O1_1 
REMARK    2  A    between atoms: C3_9  and  O2_2 
REMARK    3  A    between atoms: C5_11  and  O3_3 
REMARK    4  A    between atoms: C12_18  and  O4_4 
REMARK    5  A    between atoms: C14_20  and  O5_5 
REMARK    6  A    between atoms: C1_7  and  C4_10 
REMARK    7  A    between atoms: C4_10  and  C9_15 
REMARK    8  A    between atoms: C10_16  and  C8_14 
ROOT
HETATM    1  O6  UNK     1      16.988   3.125  30.793  1.00  0.00    -0.287 OA
HETATM    2  C4  UNK     1      18.181   2.851  30.844  1.00  0.00     0.187 C 
ENDROOT
BRANCH   2   3
HETATM    3  C1  UNK     1      18.616   1.569  31.450  1.00  0.00     0.081 A 
HETATM    4  C2  UNK     1      18.407   1.334  32.809  1.00  0.00     0.087 A 
HETATM    5  C6  UNK     1      18.818   0.128  33.379  1.00  0.00     0.074 A 
HETATM    6  C5  UNK     1      19.435  -0.842  32.589  1.00  0.00     0.073 A 
HETATM    7  C7  UNK     1      19.643  -0.606  31.231  1.00  0.00     0.074 A 
HETATM    8  C3  UNK     1      19.233   0.599  30.660  1.00  0.00     0.087 A 
BRANCH   4   9
HETATM    9  O1  UNK     1      17.806   2.268  33.599  1.00  0.00    -0.355 OA
HETATM   10  C16 UNK     1      18.302   2.409  34.928  1.00  0.00     0.210 C 
ENDBRANCH   4   9
BRANCH   6  11
HETATM   11  O3  UNK     1      19.836  -2.018  33.145  1.00  0.00    -0.356 OA
HETATM   12  C18 UNK     1      21.006  -2.627  32.600  1.00  0.00     0.210 C 
ENDBRANCH   6  11
BRANCH   8  13
HETATM   13  O2  UNK     1      19.445   0.807  29.331  1.00  0.00    -0.355 OA
HETATM   14  C17 UNK     1      19.707  -0.343  28.529  1.00  0.00     0.210 C 
ENDBRANCH   8  13
ENDBRANCH   2   3
BRANCH   2  15
HETATM   15  C9  UNK     1      19.235   3.746  30.288  1.00  0.00     0.056 C 
HETATM   16  C10 UNK     1      19.337   5.026  30.713  1.00  0.00     0.015 C 
BRANCH  16  17
HETATM   17  C8  UNK     1      18.479   5.650  31.707  1.00  0.00    -0.033 A 
HETATM   18  C11 UNK     1      17.379   6.406  31.303  1.00  0.00     0.051 A 
HETATM   19  C12 UNK     1      16.556   7.005  32.257  1.00  0.00     0.102 A 
HETATM   20  C14 UNK     1      16.834   6.849  33.614  1.00  0.00     0.101 A 
HETATM   21  C15 UNK     1      17.935   6.094  34.019  1.00  0.00     0.040 A 
HETATM   22  C13 UNK     1      18.757   5.495  33.065  1.00  0.00     0.014 A 
BRANCH  19  23
HETATM   23  O4  UNK     1      15.483   7.740  31.849  1.00  0.00    -0.353 OA
HETATM   24  C19 UNK     1      14.206   7.109  31.903  1.00  0.00     0.210 C 
ENDBRANCH  19  23
BRANCH  20  25
HETATM   25  O5  UNK     1      16.038   7.430  34.555  1.00  0.00    -0.353 OA
HETATM   26  C20 UNK     1      16.343   8.775  34.920  1.00  0.00     0.210 C 
ENDBRANCH  20  25
ENDBRANCH  16  17
ENDBRANCH   2  15
TORSDOF 8
ENDMDL
MODEL 2
REMARK VINA RESULT:      -7.3      0.055      2.563
REMARK  8 active torsions:
REMARK  status: ('A' for Active; 'I' for Inactive)
REMARK    1  A    between atoms: C2_8  and  O1_1 
REMARK    2  A    between atoms: C3_9  and  O2_2 
REMARK    3  A    between atoms: C5_11  and  O3_3 
REMARK    4  A    between atoms: C12_18  and  O4_4 
REMARK    5  A    between atoms: C14_20  and  O5_5 
REMARK    6  A    between atoms: C1_7  and  C4_10 
REMARK    7  A    between atoms: C4_10  and  C9_15 
REMARK    8  A    between atoms: C10_16  and  C8_14 
ROOT
HETATM    1  O6  UNK     1      17.000   3.156  30.736  1.00  0.00    -0.287 OA
HETATM    2  C4  UNK     1      18.192   2.882  30.816  1.00  0.00     0.187 C 
ENDROOT
BRANCH   2   3
HETATM    3  C1  UNK     1      18.611   1.602  31.438  1.00  0.00     0.081 A 
HETATM    4  C2  UNK     1      19.210   0.611  30.659  1.00  0.00     0.087 A 
HETATM    5  C6  UNK     1      19.603  -0.593  31.244  1.00  0.00     0.074 A 
HETATM    6  C5  UNK     1      19.398  -0.805  32.607  1.00  0.00     0.073 A 
HETATM    7  C7  UNK     1      18.799   0.185  33.385  1.00  0.00     0.074 A 
HETATM    8  C3  UNK     1      18.406   1.389  32.801  1.00  0.00     0.087 A 
BRANCH   4   9
HETATM    9  O1  UNK     1      19.420   0.799  29.325  1.00  0.00    -0.355 OA
HETATM   10  C16 UNK     1      19.806  -0.342  28.564  1.00  0.00     0.210 C 
ENDBRANCH   4   9
BRANCH   6  11
HETATM   11  O3  UNK     1      19.781  -1.980  33.178  1.00  0.00    -0.356 OA
HETATM   12  C18 UNK     1      20.987  -2.574  32.695  1.00  0.00     0.210 C 
ENDBRANCH   6  11
BRANCH   8  13
HETATM   13  O2  UNK     1      17.824   2.343  33.580  1.00  0.00    -0.355 OA
HETATM   14  C17 UNK     1      18.197   2.370  34.957  1.00  0.00     0.210 C 
ENDBRANCH   8  13
ENDBRANCH   2   3
BRANCH   2  15
HETATM   15  C9  UNK     1      19.259   3.772  30.280  1.00  0.00     0.056 C 
HETATM   16  C10 UNK     1      19.368   5.047  30.717  1.00  0.00     0.015 C 
BRANCH  16  17
HETATM   17  C8  UNK     1      18.505   5.669  31.708  1.00  0.00    -0.033 A 
HETATM   18  C11 UNK     1      17.395   6.410  31.300  1.00  0.00     0.051 A 
HETATM   19  C12 UNK     1      16.568   7.007  32.251  1.00  0.00     0.102 A 
HETATM   20  C14 UNK     1      16.850   6.865  33.609  1.00  0.00     0.101 A 
HETATM   21  C15 UNK     1      17.959   6.125  34.017  1.00  0.00     0.040 A 
HETATM   22  C13 UNK     1      18.787   5.528  33.067  1.00  0.00     0.014 A 
BRANCH  19  23
HETATM   23  O4  UNK     1      15.487   7.728  31.839  1.00  0.00    -0.353 OA
HETATM   24  C19 UNK     1      14.211   7.098  31.940  1.00  0.00     0.210 C 
ENDBRANCH  19  23
BRANCH  20  25
HETATM   25  O5  UNK     1      16.049   7.444  34.547  1.00  0.00    -0.353 OA
HETATM   26  C20 UNK     1      16.345   8.792  34.907  1.00  0.00     0.210 C 
ENDBRANCH  20  25
ENDBRANCH  16  17
ENDBRANCH   2  15
TORSDOF 8
ENDMDL
MODEL 3
REMARK VINA RESULT:      -7.2     22.713     24.958
REMARK  8 active torsions:
REMARK  status: ('A' for Active; 'I' for Inactive)
REMARK    1  A    between atoms: C2_8  and  O1_1 
REMARK    2  A    between atoms: C3_9  and  O2_2 
REMARK    3  A    between atoms: C5_11  and  O3_3 
REMARK    4  A    between atoms: C12_18  and  O4_4 
REMARK    5  A    between atoms: C14_20  and  O5_5 
REMARK    6  A    between atoms: C1_7  and  C4_10 
REMARK    7  A    between atoms: C4_10  and  C9_15 
REMARK    8  A    between atoms: C10_16  and  C8_14 
ROOT
HETATM    1  O6  UNK     1       9.309   4.635   9.516  1.00  0.00    -0.287 OA
HETATM    2  C4  UNK     1       8.658   5.543   9.013  1.00  0.00     0.187 C 
ENDROOT
BRANCH   2   3
HETATM    3  C1  UNK     1       7.576   6.192   9.793  1.00  0.00     0.081 A 
HETATM    4  C2  UNK     1       7.730   7.504  10.242  1.00  0.00     0.087 A 
HETATM    5  C6  UNK     1       6.712   8.113  10.977  1.00  0.00     0.074 A 
HETATM    6  C5  UNK     1       5.541   7.411  11.261  1.00  0.00     0.073 A 
HETATM    7  C7  UNK     1       5.388   6.100  10.812  1.00  0.00     0.074 A 
HETATM    8  C3  UNK     1       6.405   5.490  10.077  1.00  0.00     0.087 A 
BRANCH   4   9
HETATM    9  O1  UNK     1       8.866   8.208   9.975  1.00  0.00    -0.355 OA
HETATM   10  C16 UNK     1       8.890   9.576  10.374  1.00  0.00     0.210 C 
ENDBRANCH   4   9
BRANCH   6  11
HETATM   11  O3  UNK     1       4.549   8.005  11.978  1.00  0.00    -0.356 OA
HETATM   12  C18 UNK     1       4.267   9.374  11.687  1.00  0.00     0.210 C 
ENDBRANCH   6  11
BRANCH   8  13
HETATM   13  O2  UNK     1       6.232   4.209   9.648  1.00  0.00    -0.355 OA
HETATM   14  C17 UNK     1       6.081   3.205  10.649  1.00  0.00     0.210 C 
ENDBRANCH   8  13
ENDBRANCH   2   3
BRANCH   2  15
HETATM   15  C9  UNK     1       8.927   6.060   7.641  1.00  0.00     0.056 C 
HETATM   16  C10 UNK     1      10.193   6.325   7.248  1.00  0.00     0.015 C 
BRANCH  16  17
HETATM   17  C8  UNK     1      11.380   6.150   8.070  1.00  0.00    -0.033 A 
HETATM   18  C11 UNK     1      11.673   7.069   9.077  1.00  0.00     0.051 A 
HETATM   19  C12 UNK     1      12.811   6.902   9.864  1.00  0.00     0.102 A 
HETATM   20  C14 UNK     1      13.658   5.815   9.645  1.00  0.00     0.101 A 
HETATM   21  C15 UNK     1      13.366   4.897   8.637  1.00  0.00     0.040 A 
HETATM   22  C13 UNK     1      12.227   5.064   7.849  1.00  0.00     0.014 A 
BRANCH  19  23
HETATM   23  O4  UNK     1      13.086   7.806  10.846  1.00  0.00    -0.353 OA
HETATM   24  C19 UNK     1      12.715   9.162  10.601  1.00  0.00     0.210 C 
ENDBRANCH  19  23
BRANCH  20  25
HETATM   25  O5  UNK     1      14.773   5.641  10.407  1.00  0.00    -0.353 OA
HETATM   26  C20 UNK     1      16.022   5.998   9.818  1.00  0.00     0.210 C 
ENDBRANCH  20  25
ENDBRANCH  16  17
ENDBRANCH   2  15
TORSDOF 8
ENDMDL
MODEL 4
REMARK VINA RESULT:      -7.2     22.721     24.948
REMARK  8 active torsions:
REMARK  status: ('A' for Active; 'I' for Inactive)
REMARK    1  A    between atoms: C2_8  and  O1_1 
REMARK    2  A    between atoms: C3_9  and  O2_2 
REMARK    3  A    between atoms: C5_11  and  O3_3 
REMARK    4  A    between atoms: C12_18  and  O4_4 
REMARK    5  A    between atoms: C14_20  and  O5_5 
REMARK    6  A    between atoms: C1_7  and  C4_10 
REMARK    7  A    between atoms: C4_10  and  C9_15 
REMARK    8  A    between atoms: C10_16  and  C8_14 
ROOT
HETATM    1  O6  UNK     1       9.338   4.538   9.537  1.00  0.00    -0.287 OA
HETATM    2  C4  UNK     1       8.673   5.438   9.035  1.00  0.00     0.187 C 
ENDROOT
BRANCH   2   3
HETATM    3  C1  UNK     1       7.586   6.072   9.819  1.00  0.00     0.081 A 
HETATM    4  C2  UNK     1       6.436   5.346  10.132  1.00  0.00     0.087 A 
HETATM    5  C6  UNK     1       5.413   5.945  10.868  1.00  0.00     0.074 A 
HETATM    6  C5  UNK     1       5.540   7.267  11.291  1.00  0.00     0.073 A 
HETATM    7  C7  UNK     1       6.689   7.992  10.978  1.00  0.00     0.074 A 
HETATM    8  C3  UNK     1       7.713   7.395  10.242  1.00  0.00     0.087 A 
BRANCH   4   9
HETATM    9  O1  UNK     1       6.292   4.053   9.728  1.00  0.00    -0.355 OA
HETATM   10  C16 UNK     1       5.987   3.090  10.734  1.00  0.00     0.210 C 
ENDBRANCH   4   9
BRANCH   6  11
HETATM   11  O3  UNK     1       4.542   7.851  12.009  1.00  0.00    -0.356 OA
HETATM   12  C18 UNK     1       4.254   9.220  11.725  1.00  0.00     0.210 C 
ENDBRANCH   6  11
BRANCH   8  13
HETATM   13  O2  UNK     1       8.827   8.122   9.949  1.00  0.00    -0.355 OA
HETATM   14  C17 UNK     1       8.833   9.490  10.355  1.00  0.00     0.210 C 
ENDBRANCH   8  13
ENDBRANCH   2   3
BRANCH   2  15
HETATM   15  C9  UNK     1       8.930   5.956   7.662  1.00  0.00     0.056 C 
HETATM   16  C10 UNK     1      10.189   6.250   7.268  1.00  0.00     0.015 C 
BRANCH  16  17
HETATM   17  C8  UNK     1      11.380   6.105   8.090  1.00  0.00    -0.033 A 
HETATM   18  C11 UNK     1      11.660   7.042   9.084  1.00  0.00     0.051 A 
HETATM   19  C12 UNK     1      12.802   6.904   9.872  1.00  0.00     0.102 A 
HETATM   20  C14 UNK     1      13.665   5.828   9.666  1.00  0.00     0.101 A 
HETATM   21  C15 UNK     1      13.386   4.891   8.671  1.00  0.00     0.040 A 
HETATM   22  C13 UNK     1      12.244   5.030   7.883  1.00  0.00     0.014 A 
BRANCH  19  23
HETATM   23  O4  UNK     1      13.064   7.826  10.841  1.00  0.00    -0.353 OA
HETATM   24  C19 UNK     1      12.662   9.170  10.582  1.00  0.00     0.210 C 
ENDBRANCH  19  23
BRANCH  20  25
HETATM   25  O5  UNK     1      14.784   5.682  10.429  1.00  0.00    -0.353 OA
HETATM   26  C20 UNK     1      16.035   5.962   9.804  1.00  0.00     0.210 C 
ENDBRANCH  20  25
ENDBRANCH  16  17
ENDBRANCH   2  15
TORSDOF 8
ENDMDL
MODEL 5
REMARK VINA RESULT:      -7.1     13.507     16.521
REMARK  8 active torsions:
REMARK  status: ('A' for Active; 'I' for Inactive)
REMARK    1  A    between atoms: C2_8  and  O1_1 
REMARK    2  A    between atoms: C3_9  and  O2_2 
REMARK    3  A    between atoms: C5_11  and  O3_3 
REMARK    4  A    between atoms: C12_18  and  O4_4 
REMARK    5  A    between atoms: C14_20  and  O5_5 
REMARK    6  A    between atoms: C1_7  and  C4_10 
REMARK    7  A    between atoms: C4_10  and  C9_15 
REMARK    8  A    between atoms: C10_16  and  C8_14 
ROOT
HETATM    1  O6  UNK     1      27.161  -9.664  36.340  1.00  0.00    -0.287 OA
HETATM    2  C4  UNK     1      26.333 -10.110  37.126  1.00  0.00     0.187 C 
ENDROOT
BRANCH   2   3
HETATM    3  C1  UNK     1      24.890 -10.039  36.794  1.00  0.00     0.081 A 
HETATM    4  C2  UNK     1      24.128  -8.953  37.225  1.00  0.00     0.087 A 
HETATM    5  C6  UNK     1      22.769  -8.887  36.913  1.00  0.00     0.074 A 
HETATM    6  C5  UNK     1      22.174  -9.905  36.169  1.00  0.00     0.073 A 
HETATM    7  C7  UNK     1      22.937 -10.990  35.738  1.00  0.00     0.074 A 
HETATM    8  C3  UNK     1      24.295 -11.057  36.049  1.00  0.00     0.087 A 
BRANCH   4   9
HETATM    9  O1  UNK     1      24.689  -7.947  37.953  1.00  0.00    -0.355 OA
HETATM   10  C16 UNK     1      23.917  -7.414  39.026  1.00  0.00     0.210 C 
ENDBRANCH   4   9
BRANCH   6  11
HETATM   11  O3  UNK     1      20.850  -9.841  35.865  1.00  0.00    -0.356 OA
HETATM   12  C18 UNK     1      20.250  -8.545  35.843  1.00  0.00     0.210 C 
ENDBRANCH   6  11
BRANCH   8  13
HETATM   13  O2  UNK     1      25.020 -12.126  35.617  1.00  0.00    -0.355 OA
HETATM   14  C17 UNK     1      24.752 -13.383  36.235  1.00  0.00     0.210 C 
ENDBRANCH   8  13
ENDBRANCH   2   3
BRANCH   2  15
HETATM   15  C9  UNK     1      26.716 -10.762  38.410  1.00  0.00     0.056 C 
HETATM   16  C10 UNK     1      27.584 -10.157  39.251  1.00  0.00     0.015 C 
BRANCH  16  17
HETATM   17  C8  UNK     1      28.216  -8.868  39.018  1.00  0.00    -0.033 A 
HETATM   18  C11 UNK     1      29.437  -8.801  38.347  1.00  0.00     0.051 A 
HETATM   19  C12 UNK     1      30.043  -7.565  38.124  1.00  0.00     0.102 A 
HETATM   20  C14 UNK     1      29.429  -6.396  38.572  1.00  0.00     0.101 A 
HETATM   21  C15 UNK     1      28.209  -6.463  39.244  1.00  0.00     0.040 A 
HETATM   22  C13 UNK     1      27.603  -7.698  39.467  1.00  0.00     0.014 A 
BRANCH  19  23
HETATM   23  O4  UNK     1      31.236  -7.513  37.466  1.00  0.00    -0.353 OA
HETATM   24  C19 UNK     1      32.385  -7.978  38.171  1.00  0.00     0.210 C 
ENDBRANCH  19  23
BRANCH  20  25
HETATM   25  O5  UNK     1      30.012  -5.183  38.360  1.00  0.00    -0.353 OA
HETATM   26  C20 UNK     1      29.589  -4.106  39.195  1.00  0.00     0.210 C 
ENDBRANCH  20  25
ENDBRANCH  16  17
ENDBRANCH   2  15
TORSDOF 8
ENDMDL
MODEL 6
REMARK VINA RESULT:      -7.0     23.110     25.248
REMARK  8 active torsions:
REMARK  status: ('A' for Active; 'I' for Inactive)
REMARK    1  A    between atoms: C2_8  and  O1_1 
REMARK    2  A    between atoms: C3_9  and  O2_2 
REMARK    3  A    between atoms: C5_11  and  O3_3 
REMARK    4  A    between atoms: C12_18  and  O4_4 
REMARK    5  A    between atoms: C14_20  and  O5_5 
REMARK    6  A    between atoms: C1_7  and  C4_10 
REMARK    7  A    between atoms: C4_10  and  C9_15 
REMARK    8  A    between atoms: C10_16  and  C8_14 
ROOT
HETATM    1  O6  UNK     1      10.472   5.304   9.429  1.00  0.00    -0.287 OA
HETATM    2  C4  UNK     1       9.577   5.827   8.776  1.00  0.00     0.187 C 
ENDROOT
BRANCH   2   3
HETATM    3  C1  UNK     1       8.357   6.317   9.462  1.00  0.00     0.081 A 
HETATM    4  C2  UNK     1       8.303   7.627   9.939  1.00  0.00     0.087 A 
HETATM    5  C6  UNK     1       7.156   8.087  10.586  1.00  0.00     0.074 A 
HETATM    6  C5  UNK     1       6.062   7.238  10.754  1.00  0.00     0.073 A 
HETATM    7  C7  UNK     1       6.117   5.929  10.278  1.00  0.00     0.074 A 
HETATM    8  C3  UNK     1       7.263   5.468   9.631  1.00  0.00     0.087 A 
BRANCH   4   9
HETATM    9  O1  UNK     1       9.360   8.474   9.784  1.00  0.00    -0.355 OA
HETATM   10  C16 UNK     1       9.204   9.802  10.275  1.00  0.00     0.210 C 
ENDBRANCH   4   9
BRANCH   6  11
HETATM   11  O3  UNK     1       4.943   7.687  11.385  1.00  0.00    -0.356 OA
HETATM   12  C18 UNK     1       4.664   9.084  11.297  1.00  0.00     0.210 C 
ENDBRANCH   6  11
BRANCH   8  13
HETATM   13  O2  UNK     1       7.293   4.185   9.173  1.00  0.00    -0.355 OA
HETATM   14  C17 UNK     1       6.430   3.248   9.814  1.00  0.00     0.210 C 
ENDBRANCH   8  13
ENDBRANCH   2   3
BRANCH   2  15
HETATM   15  C9  UNK     1       9.670   6.028   7.303  1.00  0.00     0.056 C 
HETATM   16  C10 UNK     1      10.798   6.529   6.752  1.00  0.00     0.015 C 
BRANCH  16  17
HETATM   17  C8  UNK     1      11.992   6.912   7.489  1.00  0.00    -0.033 A 
HETATM   18  C11 UNK     1      13.018   5.987   7.684  1.00  0.00     0.051 A 
HETATM   19  C12 UNK     1      14.163   6.354   8.391  1.00  0.00     0.102 A 
HETATM   20  C14 UNK     1      14.281   7.646   8.904  1.00  0.00     0.101 A 
HETATM   21  C15 UNK     1      13.255   8.570   8.711  1.00  0.00     0.040 A 
HETATM   22  C13 UNK     1      12.111   8.203   8.003  1.00  0.00     0.014 A 
BRANCH  19  23
HETATM   23  O4  UNK     1      15.159   5.442   8.574  1.00  0.00    -0.353 OA
HETATM   24  C19 UNK     1      15.115   4.665   9.769  1.00  0.00     0.210 C 
ENDBRANCH  19  23
BRANCH  20  25
HETATM   25  O5  UNK     1      15.395   8.016   9.597  1.00  0.00    -0.353 OA
HETATM   26  C20 UNK     1      15.770   9.390   9.532  1.00  0.00     0.210 C 
ENDBRANCH  20  25
ENDBRANCH  16  17
ENDBRANCH   2  15
TORSDOF 8
ENDMDL
MODEL 7
REMARK VINA RESULT:      -6.9      2.446      7.870
REMARK  8 active torsions:
REMARK  status: ('A' for Active; 'I' for Inactive)
REMARK    1  A    between atoms: C2_8  and  O1_1 
REMARK    2  A    between atoms: C3_9  and  O2_2 
REMARK    3  A    between atoms: C5_11  and  O3_3 
REMARK    4  A    between atoms: C12_18  and  O4_4 
REMARK    5  A    between atoms: C14_20  and  O5_5 
REMARK    6  A    between atoms: C1_7  and  C4_10 
REMARK    7  A    between atoms: C4_10  and  C9_15 
REMARK    8  A    between atoms: C10_16  and  C8_14 
ROOT
HETATM    1  O6  UNK     1      18.983   1.580  35.132  1.00  0.00    -0.287 OA
HETATM    2  C4  UNK     1      18.100   1.654  34.286  1.00  0.00     0.187 C 
ENDROOT
BRANCH   2   3
HETATM    3  C1  UNK     1      18.328   2.446  33.053  1.00  0.00     0.081 A 
HETATM    4  C2  UNK     1      18.641   1.799  31.857  1.00  0.00     0.087 A 
HETATM    5  C6  UNK     1      18.857   2.544  30.697  1.00  0.00     0.074 A 
HETATM    6  C5  UNK     1      18.759   3.935  30.734  1.00  0.00     0.073 A 
HETATM    7  C7  UNK     1      18.446   4.581  31.929  1.00  0.00     0.074 A 
HETATM    8  C3  UNK     1      18.230   3.836  33.089  1.00  0.00     0.087 A 
BRANCH   4   9
HETATM    9  O1  UNK     1      18.741   0.441  31.800  1.00  0.00    -0.355 OA
HETATM   10  C16 UNK     1      19.624  -0.103  30.821  1.00  0.00     0.210 C 
ENDBRANCH   4   9
BRANCH   6  11
HETATM   11  O3  UNK     1      18.969   4.662  29.603  1.00  0.00    -0.356 OA
HETATM   12  C18 UNK     1      19.571   5.947  29.760  1.00  0.00     0.210 C 
ENDBRANCH   6  11
BRANCH   8  13
HETATM   13  O2  UNK     1      17.924   4.489  34.245  1.00  0.00    -0.355 OA
HETATM   14  C17 UNK     1      17.767   5.904  34.168  1.00  0.00     0.210 C 
ENDBRANCH   8  13
ENDBRANCH   2   3
BRANCH   2  15
HETATM   15  C9  UNK     1      16.795   0.949  34.424  1.00  0.00     0.056 C 
HETATM   16  C10 UNK     1      16.746  -0.304  34.930  1.00  0.00     0.015 C 
BRANCH  16  17
HETATM   17  C8  UNK     1      17.898  -1.073  35.376  1.00  0.00    -0.033 A 
HETATM   18  C11 UNK     1      18.939  -1.346  34.490  1.00  0.00     0.051 A 
HETATM   19  C12 UNK     1      20.043  -2.084  34.918  1.00  0.00     0.102 A 
HETATM   20  C14 UNK     1      20.104  -2.549  36.231  1.00  0.00     0.101 A 
HETATM   21  C15 UNK     1      19.062  -2.277  37.116  1.00  0.00     0.040 A 
HETATM   22  C13 UNK     1      17.959  -1.539  36.689  1.00  0.00     0.014 A 
BRANCH  19  23
HETATM   23  O4  UNK     1      21.055  -2.344  34.042  1.00  0.00    -0.353 OA
HETATM   24  C19 UNK     1      20.687  -2.821  32.749  1.00  0.00     0.210 C 
ENDBRANCH  19  23
BRANCH  20  25
HETATM   25  O5  UNK     1      21.177  -3.272  36.660  1.00  0.00    -0.353 OA
HETATM   26  C20 UNK     1      20.906  -4.411  37.474  1.00  0.00     0.210 C 
ENDBRANCH  20  25
ENDBRANCH  16  17
ENDBRANCH   2  15
TORSDOF 8
ENDMDL
MODEL 8
REMARK VINA RESULT:      -6.9      2.445      7.545
REMARK  8 active torsions:
REMARK  status: ('A' for Active; 'I' for Inactive)
REMARK    1  A    between atoms: C2_8  and  O1_1 
REMARK    2  A    between atoms: C3_9  and  O2_2 
REMARK    3  A    between atoms: C5_11  and  O3_3 
REMARK    4  A    between atoms: C12_18  and  O4_4 
REMARK    5  A    between atoms: C14_20  and  O5_5 
REMARK    6  A    between atoms: C1_7  and  C4_10 
REMARK    7  A    between atoms: C4_10  and  C9_15 
REMARK    8  A    between atoms: C10_16  and  C8_14 
ROOT
HETATM    1  O6  UNK     1      19.020   1.556  35.122  1.00  0.00    -0.287 OA
HETATM    2  C4  UNK     1      18.122   1.642  34.293  1.00  0.00     0.187 C 
ENDROOT
BRANCH   2   3
HETATM    3  C1  UNK     1      18.337   2.430  33.055  1.00  0.00     0.081 A 
HETATM    4  C2  UNK     1      18.241   3.822  33.089  1.00  0.00     0.087 A 
HETATM    5  C6  UNK     1      18.442   4.563  31.925  1.00  0.00     0.074 A 
HETATM    6  C5  UNK     1      18.741   3.913  30.727  1.00  0.00     0.073 A 
HETATM    7  C7  UNK     1      18.837   2.522  30.694  1.00  0.00     0.074 A 
HETATM    8  C3  UNK     1      18.636   1.781  31.858  1.00  0.00     0.087 A 
BRANCH   4   9
HETATM    9  O1  UNK     1      17.951   4.477  34.249  1.00  0.00    -0.355 OA
HETATM   10  C16 UNK     1      17.824   5.895  34.178  1.00  0.00     0.210 C 
ENDBRANCH   4   9
BRANCH   6  11
HETATM   11  O3  UNK     1      18.937   4.636  29.591  1.00  0.00    -0.356 OA
HETATM   12  C18 UNK     1      19.454   5.958  29.743  1.00  0.00     0.210 C 
ENDBRANCH   6  11
BRANCH   8  13
HETATM   13  O2  UNK     1      18.735   0.423  31.802  1.00  0.00    -0.355 OA
HETATM   14  C17 UNK     1      19.634  -0.121  30.837  1.00  0.00     0.210 C 
ENDBRANCH   8  13
ENDBRANCH   2   3
BRANCH   2  15
HETATM   15  C9  UNK     1      16.810   0.954  34.455  1.00  0.00     0.056 C 
HETATM   16  C10 UNK     1      16.755  -0.298  34.963  1.00  0.00     0.015 C 
BRANCH  16  17
HETATM   17  C8  UNK     1      17.904  -1.082  35.389  1.00  0.00    -0.033 A 
HETATM   18  C11 UNK     1      18.943  -1.337  34.495  1.00  0.00     0.051 A 
HETATM   19  C12 UNK     1      20.045  -2.089  34.903  1.00  0.00     0.102 A 
HETATM   20  C14 UNK     1      20.106  -2.586  36.204  1.00  0.00     0.101 A 
HETATM   21  C15 UNK     1      19.066  -2.332  37.098  1.00  0.00     0.040 A 
HETATM   22  C13 UNK     1      17.965  -1.580  36.690  1.00  0.00     0.014 A 
BRANCH  19  23
HETATM   23  O4  UNK     1      21.054  -2.331  34.020  1.00  0.00    -0.353 OA
HETATM   24  C19 UNK     1      20.691  -2.872  32.751  1.00  0.00     0.210 C 
ENDBRANCH  19  23
BRANCH  20  25
HETATM   25  O5  UNK     1      21.177  -3.323  36.614  1.00  0.00    -0.353 OA
HETATM   26  C20 UNK     1      20.914  -4.408  37.502  1.00  0.00     0.210 C 
ENDBRANCH  20  25
ENDBRANCH  16  17
ENDBRANCH   2  15
TORSDOF 8
ENDMDL
MODEL 9
REMARK VINA RESULT:      -6.9     22.854     24.891
REMARK  8 active torsions:
REMARK  status: ('A' for Active; 'I' for Inactive)
REMARK    1  A    between atoms: C2_8  and  O1_1 
REMARK    2  A    between atoms: C3_9  and  O2_2 
REMARK    3  A    between atoms: C5_11  and  O3_3 
REMARK    4  A    between atoms: C12_18  and  O4_4 
REMARK    5  A    between atoms: C14_20  and  O5_5 
REMARK    6  A    between atoms: C1_7  and  C4_10 
REMARK    7  A    between atoms: C4_10  and  C9_15 
REMARK    8  A    between atoms: C10_16  and  C8_14 
ROOT
HETATM    1  O6  UNK     1      13.017   6.431  10.647  1.00  0.00    -0.287 OA
HETATM    2  C4  UNK     1      13.752   6.544   9.673  1.00  0.00     0.187 C 
ENDROOT
BRANCH   2   3
HETATM    3  C1  UNK     1      14.435   7.835   9.413  1.00  0.00     0.081 A 
HETATM    4  C2  UNK     1      13.746   8.874   8.787  1.00  0.00     0.087 A 
HETATM    5  C6  UNK     1      14.390  10.088   8.541  1.00  0.00     0.074 A 
HETATM    6  C5  UNK     1      15.720  10.262   8.923  1.00  0.00     0.073 A 
HETATM    7  C7  UNK     1      16.407   9.222   9.550  1.00  0.00     0.074 A 
HETATM    8  C3  UNK     1      15.764   8.009   9.795  1.00  0.00     0.087 A 
BRANCH   4   9
HETATM    9  O1  UNK     1      12.446   8.725   8.405  1.00  0.00    -0.355 OA
HETATM   10  C16 UNK     1      11.447   9.147   9.330  1.00  0.00     0.210 C 
ENDBRANCH   4   9
BRANCH   6  11
HETATM   11  O3  UNK     1      16.347  11.445   8.684  1.00  0.00    -0.356 OA
HETATM   12  C18 UNK     1      17.729  11.387   8.329  1.00  0.00     0.210 C 
ENDBRANCH   6  11
BRANCH   8  13
HETATM   13  O2  UNK     1      16.455   7.008  10.409  1.00  0.00    -0.355 OA
HETATM   14  C17 UNK     1      17.598   6.496   9.727  1.00  0.00     0.210 C 
ENDBRANCH   8  13
ENDBRANCH   2   3
BRANCH   2  15
HETATM   15  C9  UNK     1      14.023   5.417   8.736  1.00  0.00     0.056 C 
HETATM   16  C10 UNK     1      13.028   4.908   7.975  1.00  0.00     0.015 C 
BRANCH  16  17
HETATM   17  C8  UNK     1      11.649   5.371   7.978  1.00  0.00    -0.033 A 
HETATM   18  C11 UNK     1      10.832   5.119   9.080  1.00  0.00     0.051 A 
HETATM   19  C12 UNK     1       9.509   5.563   9.083  1.00  0.00     0.102 A 
HETATM   20  C14 UNK     1       9.005   6.258   7.984  1.00  0.00     0.101 A 
HETATM   21  C15 UNK     1       9.822   6.509   6.882  1.00  0.00     0.040 A 
HETATM   22  C13 UNK     1      11.144   6.066   6.880  1.00  0.00     0.014 A 
BRANCH  19  23
HETATM   23  O4  UNK     1       8.720   5.311  10.165  1.00  0.00    -0.353 OA
HETATM   24  C19 UNK     1       7.995   4.083  10.166  1.00  0.00     0.210 C 
ENDBRANCH  19  23
BRANCH  20  25
HETATM   25  O5  UNK     1       7.714   6.696   7.975  1.00  0.00    -0.353 OA
HETATM   26  C20 UNK     1       7.401   7.805   8.816  1.00  0.00     0.210 C 
ENDBRANCH  20  25
ENDBRANCH  16  17
ENDBRANCH   2  15
TORSDOF 8
ENDMDL
MODEL 10
REMARK VINA RESULT:      -6.9     22.042     24.420
REMARK  8 active torsions:
REMARK  status: ('A' for Active; 'I' for Inactive)
REMARK    1  A    between atoms: C2_8  and  O1_1 
REMARK    2  A    between atoms: C3_9  and  O2_2 
REMARK    3  A    between atoms: C5_11  and  O3_3 
REMARK    4  A    between atoms: C12_18  and  O4_4 
REMARK    5  A    between atoms: C14_20  and  O5_5 
REMARK    6  A    between atoms: C1_7  and  C4_10 
REMARK    7  A    between atoms: C4_10  and  C9_15 
REMARK    8  A    between atoms: C10_16  and  C8_14 
ROOT
HETATM    1  O6  UNK     1      13.833   7.544   7.184  1.00  0.00    -0.287 OA
HETATM    2  C4  UNK     1      13.965   6.959   8.253  1.00  0.00     0.187 C 
ENDROOT
BRANCH   2   3
HETATM    3  C1  UNK     1      13.974   7.733   9.518  1.00  0.00     0.081 A 
HETATM    4  C2  UNK     1      15.099   7.710  10.343  1.00  0.00     0.087 A 
HETATM    5  C6  UNK     1      15.106   8.437  11.534  1.00  0.00     0.074 A 
HETATM    6  C5  UNK     1      13.989   9.189  11.898  1.00  0.00     0.073 A 
HETATM    7  C7  UNK     1      12.864   9.212  11.073  1.00  0.00     0.074 A 
HETATM    8  C3  UNK     1      12.857   8.485   9.883  1.00  0.00     0.087 A 
BRANCH   4   9
HETATM    9  O1  UNK     1      16.201   6.982  10.005  1.00  0.00    -0.355 OA
HETATM   10  C16 UNK     1      17.472   7.569  10.273  1.00  0.00     0.210 C 
ENDBRANCH   4   9
BRANCH   6  11
HETATM   11  O3  UNK     1      13.995   9.898  13.059  1.00  0.00    -0.356 OA
HETATM   12  C18 UNK     1      12.727  10.287  13.590  1.00  0.00     0.210 C 
ENDBRANCH   6  11
BRANCH   8  13
HETATM   13  O2  UNK     1      11.748   8.523   9.092  1.00  0.00    -0.355 OA
HETATM   14  C17 UNK     1      10.606   9.202   9.611  1.00  0.00     0.210 C 
ENDBRANCH   8  13
ENDBRANCH   2   3
BRANCH   2  15
HETATM   15  C9  UNK     1      14.089   5.477   8.349  1.00  0.00     0.056 C 
HETATM   16  C10 UNK     1      12.985   4.697   8.316  1.00  0.00     0.015 C 
BRANCH  16  17
HETATM   17  C8  UNK     1      11.619   5.182   8.192  1.00  0.00    -0.033 A 
HETATM   18  C11 UNK     1      10.754   5.114   9.284  1.00  0.00     0.051 A 
HETATM   19  C12 UNK     1       9.444   5.578   9.165  1.00  0.00     0.102 A 
HETATM   20  C14 UNK     1       9.000   6.110   7.954  1.00  0.00     0.101 A 
HETATM   21  C15 UNK     1       9.865   6.177   6.863  1.00  0.00     0.040 A 
HETATM   22  C13 UNK     1      11.175   5.713   6.982  1.00  0.00     0.014 A 
BRANCH  19  23
HETATM   23  O4  UNK     1       8.608   5.507  10.239  1.00  0.00    -0.353 OA
HETATM   24  C19 UNK     1       7.832   4.318  10.378  1.00  0.00     0.210 C 
ENDBRANCH  19  23
BRANCH  20  25
HETATM   25  O5  UNK     1       7.722   6.566   7.826  1.00  0.00    -0.353 OA
HETATM   26  C20 UNK     1       7.371   7.727   8.576  1.00  0.00     0.210 C 
ENDBRANCH  20  25
ENDBRANCH  16  17
ENDBRANCH   2  15
TORSDOF 8
ENDMDL
