MODEL 1
REMARK VINA RESULT:      -9.3      0.000      0.000
REMARK  5 active torsions:
REMARK  status: ('A' for Active; 'I' for Inactive)
REMARK    1  A    between atoms: C10_14  and  O2_2 
REMARK    2  A    between atoms: C13_17  and  O2_2 
REMARK    3  A    between atoms: C3_7  and  C5_9 
REMARK    4  A    between atoms: C13_17  and  C15_19 
REMARK    5  A    between atoms: C14_18  and  C15_19 
ROOT
HETATM    1  O1  UNK     1      15.884   6.781  32.989  1.00  0.00    -0.274 OA
HETATM    2  O3  UNK     1      14.293   8.097  33.931  1.00  0.00    -0.259 OA
HETATM    3  C1  UNK     1      17.842   8.642  33.835  1.00  0.00    -0.037 A 
HETATM    4  C2  UNK     1      18.227   7.431  33.081  1.00  0.00     0.005 A 
HETATM    5  C3  UNK     1      16.538   8.879  34.091  1.00  0.00     0.024 A 
HETATM    6  C4  UNK     1      17.233   6.541  32.685  1.00  0.00     0.092 A 
HETATM    7  C6  UNK     1      19.547   7.117  32.721  1.00  0.00     0.017 A 
HETATM    8  C7  UNK     1      15.479   7.914  33.675  1.00  0.00     0.295 A 
HETATM    9  C8  UNK     1      17.510   5.373  31.970  1.00  0.00     0.075 A 
HETATM   10  C9  UNK     1      18.961   9.545  34.292  1.00  0.00     0.050 C 
HETATM   11  C10 UNK     1      18.826   5.079  31.630  1.00  0.00     0.072 A 
HETATM   12  C11 UNK     1      19.843   5.951  32.004  1.00  0.00     0.038 A 
ENDROOT
BRANCH  11  13
HETATM   13  O2  UNK     1      19.116   3.948  30.933  1.00  0.00    -0.344 OA
BRANCH  13  14
HETATM   14  C13 UNK     1      18.034   3.060  30.653  1.00  0.00     0.259 C 
BRANCH  14  15
HETATM   15  C15 UNK     1      18.380   2.174  29.472  1.00  0.00     0.183 C 
HETATM   16  O4  UNK     1      18.130   2.512  28.317  1.00  0.00    -0.290 OA
BRANCH  15  17
HETATM   17  C14 UNK     1      19.038   0.861  29.730  1.00  0.00     0.012 A 
HETATM   18  C17 UNK     1      19.464   0.113  28.656  1.00  0.00     0.016 A 
HETATM   19  C19 UNK     1      20.080  -1.115  28.898  1.00  0.00     0.007 A 
HETATM   20  C16 UNK     1      20.253  -1.562  30.208  1.00  0.00    -0.062 A 
HETATM   21  C20 UNK     1      19.811  -0.781  31.276  1.00  0.00     0.007 A 
HETATM   22  C21 UNK     1      20.911  -2.876  30.466  1.00  0.00     0.048 C 
HETATM   23  C18 UNK     1      19.195   0.446  31.034  1.00  0.00     0.016 A 
ENDBRANCH  15  17
ENDBRANCH  14  15
ENDBRANCH  13  14
ENDBRANCH  11  13
BRANCH   5  24
HETATM   24  C5  UNK     1      16.005  10.102  34.792  1.00  0.00     0.041 C 
HETATM   25  C12 UNK     1      15.891  11.277  33.844  1.00  0.00     0.010 C 
ENDBRANCH   5  24
TORSDOF 5
ENDMDL
MODEL 2
REMARK VINA RESULT:      -8.8      5.747      9.293
REMARK  5 active torsions:
REMARK  status: ('A' for Active; 'I' for Inactive)
REMARK    1  A    between atoms: C10_14  and  O2_2 
REMARK    2  A    between atoms: C13_17  and  O2_2 
REMARK    3  A    between atoms: C3_7  and  C5_9 
REMARK    4  A    between atoms: C13_17  and  C15_19 
REMARK    5  A    between atoms: C14_18  and  C15_19 
ROOT
HETATM    1  O1  UNK     1      18.690   0.568  32.911  1.00  0.00    -0.274 OA
HETATM    2  O3  UNK     1      17.828   2.508  32.110  1.00  0.00    -0.259 OA
HETATM    3  C1  UNK     1      19.844   0.098  30.368  1.00  0.00    -0.037 A 
HETATM    4  C2  UNK     1      20.020  -0.872  31.469  1.00  0.00     0.005 A 
HETATM    5  C3  UNK     1      19.093   1.202  30.570  1.00  0.00     0.024 A 
HETATM    6  C4  UNK     1      19.438  -0.602  32.704  1.00  0.00     0.092 A 
HETATM    7  C6  UNK     1      20.739  -2.072  31.350  1.00  0.00     0.017 A 
HETATM    8  C7  UNK     1      18.483   1.492  31.900  1.00  0.00     0.295 A 
HETATM    9  C8  UNK     1      19.556  -1.465  33.797  1.00  0.00     0.075 A 
HETATM   10  C9  UNK     1      20.543  -0.212  29.068  1.00  0.00     0.050 C 
HETATM   11  C10 UNK     1      20.278  -2.645  33.657  1.00  0.00     0.072 A 
HETATM   12  C11 UNK     1      20.868  -2.949  32.434  1.00  0.00     0.038 A 
ENDROOT
BRANCH  11  13
HETATM   13  O2  UNK     1      20.404  -3.498  34.708  1.00  0.00    -0.344 OA
BRANCH  13  14
HETATM   14  C13 UNK     1      19.517  -3.309  35.810  1.00  0.00     0.259 C 
BRANCH  14  15
HETATM   15  C15 UNK     1      20.123  -3.892  37.072  1.00  0.00     0.183 C 
HETATM   16  O4  UNK     1      20.842  -3.224  37.811  1.00  0.00    -0.290 OA
BRANCH  15  17
HETATM   17  C14 UNK     1      19.835  -5.316  37.413  1.00  0.00     0.012 A 
HETATM   18  C17 UNK     1      18.911  -6.002  36.659  1.00  0.00     0.016 A 
HETATM   19  C19 UNK     1      18.643  -7.334  36.977  1.00  0.00     0.007 A 
HETATM   20  C16 UNK     1      19.308  -7.943  38.042  1.00  0.00    -0.062 A 
HETATM   21  C20 UNK     1      20.240  -7.221  38.787  1.00  0.00     0.007 A 
HETATM   22  C21 UNK     1      19.021  -9.366  38.382  1.00  0.00     0.048 C 
HETATM   23  C18 UNK     1      20.507  -5.890  38.469  1.00  0.00     0.016 A 
ENDBRANCH  15  17
ENDBRANCH  14  15
ENDBRANCH  13  14
ENDBRANCH  11  13
BRANCH   5  24
HETATM   24  C5  UNK     1      18.781   2.236  29.519  1.00  0.00     0.041 C 
HETATM   25  C12 UNK     1      17.752   1.728  28.532  1.00  0.00     0.010 C 
ENDBRANCH   5  24
TORSDOF 5
ENDMDL
MODEL 3
REMARK VINA RESULT:      -8.4     22.041     24.529
REMARK  5 active torsions:
REMARK  status: ('A' for Active; 'I' for Inactive)
REMARK    1  A    between atoms: C10_14  and  O2_2 
REMARK    2  A    between atoms: C13_17  and  O2_2 
REMARK    3  A    between atoms: C3_7  and  C5_9 
REMARK    4  A    between atoms: C13_17  and  C15_19 
REMARK    5  A    between atoms: C14_18  and  C15_19 
ROOT
HETATM    1  O1  UNK     1      11.018   5.139  10.022  1.00  0.00    -0.274 OA
HETATM    2  O3  UNK     1       8.761   5.100  10.255  1.00  0.00    -0.259 OA
HETATM    3  C1  UNK     1      10.673   6.177   7.411  1.00  0.00    -0.037 A 
HETATM    4  C2  UNK     1      12.025   5.921   7.950  1.00  0.00     0.005 A 
HETATM    5  C3  UNK     1       9.592   5.877   8.161  1.00  0.00     0.024 A 
HETATM    6  C4  UNK     1      12.151   5.413   9.239  1.00  0.00     0.092 A 
HETATM    7  C6  UNK     1      13.211   6.152   7.234  1.00  0.00     0.017 A 
HETATM    8  C7  UNK     1       9.734   5.344   9.547  1.00  0.00     0.295 A 
HETATM    9  C8  UNK     1      13.391   5.143   9.824  1.00  0.00     0.075 A 
HETATM   10  C9  UNK     1      10.591   6.783   6.032  1.00  0.00     0.050 C 
HETATM   11  C10 UNK     1      14.552   5.385   9.099  1.00  0.00     0.072 A 
HETATM   12  C11 UNK     1      14.463   5.887   7.805  1.00  0.00     0.038 A 
ENDROOT
BRANCH  11  13
HETATM   13  O2  UNK     1      15.768   5.129   9.651  1.00  0.00    -0.344 OA
BRANCH  13  14
HETATM   14  C13 UNK     1      16.709   6.202   9.679  1.00  0.00     0.259 C 
BRANCH  14  15
HETATM   15  C15 UNK     1      16.110   7.399  10.392  1.00  0.00     0.183 C 
HETATM   16  O4  UNK     1      15.608   7.300  11.509  1.00  0.00    -0.290 OA
BRANCH  15  17
HETATM   17  C14 UNK     1      16.132   8.725   9.710  1.00  0.00     0.012 A 
HETATM   18  C17 UNK     1      17.284   9.477   9.765  1.00  0.00     0.016 A 
HETATM   19  C19 UNK     1      17.304  10.717   9.125  1.00  0.00     0.007 A 
HETATM   20  C16 UNK     1      16.173  11.171   8.448  1.00  0.00    -0.062 A 
HETATM   21  C20 UNK     1      15.020  10.386   8.410  1.00  0.00     0.007 A 
HETATM   22  C21 UNK     1      16.195  12.497   7.765  1.00  0.00     0.048 C 
HETATM   23  C18 UNK     1      15.000   9.146   9.050  1.00  0.00     0.016 A 
ENDBRANCH  15  17
ENDBRANCH  14  15
ENDBRANCH  13  14
ENDBRANCH  11  13
BRANCH   5  24
HETATM   24  C5  UNK     1       8.161   6.028   7.711  1.00  0.00     0.041 C 
HETATM   25  C12 UNK     1       7.601   7.380   8.095  1.00  0.00     0.010 C 
ENDBRANCH   5  24
TORSDOF 5
ENDMDL
MODEL 4
REMARK VINA RESULT:      -8.4     21.845     24.387
REMARK  5 active torsions:
REMARK  status: ('A' for Active; 'I' for Inactive)
REMARK    1  A    between atoms: C10_14  and  O2_2 
REMARK    2  A    between atoms: C13_17  and  O2_2 
REMARK    3  A    between atoms: C3_7  and  C5_9 
REMARK    4  A    between atoms: C13_17  and  C15_19 
REMARK    5  A    between atoms: C14_18  and  C15_19 
ROOT
HETATM    1  O1  UNK     1      14.002   5.062   8.779  1.00  0.00    -0.274 OA
HETATM    2  O3  UNK     1      16.113   4.712   9.532  1.00  0.00    -0.259 OA
HETATM    3  C1  UNK     1      14.062   7.627   9.976  1.00  0.00    -0.037 A 
HETATM    4  C2  UNK     1      12.860   7.158   9.254  1.00  0.00     0.005 A 
HETATM    5  C3  UNK     1      15.127   6.807  10.095  1.00  0.00     0.024 A 
HETATM    6  C4  UNK     1      12.873   5.891   8.679  1.00  0.00     0.092 A 
HETATM    7  C6  UNK     1      11.684   7.912   9.116  1.00  0.00     0.017 A 
HETATM    8  C7  UNK     1      15.139   5.456   9.464  1.00  0.00     0.295 A 
HETATM    9  C8  UNK     1      11.781   5.371   7.979  1.00  0.00     0.075 A 
HETATM   10  C9  UNK     1      14.019   9.029  10.532  1.00  0.00     0.050 C 
HETATM   11  C10 UNK     1      10.628   6.138   7.849  1.00  0.00     0.072 A 
HETATM   12  C11 UNK     1      10.579   7.406   8.418  1.00  0.00     0.038 A 
ENDROOT
BRANCH  11  13
HETATM   13  O2  UNK     1       9.554   5.650   7.173  1.00  0.00    -0.344 OA
BRANCH  13  14
HETATM   14  C13 UNK     1       8.272   6.169   7.526  1.00  0.00     0.259 C 
BRANCH  14  15
HETATM   15  C15 UNK     1       7.610   5.268   8.550  1.00  0.00     0.183 C 
HETATM   16  O4  UNK     1       7.444   4.068   8.341  1.00  0.00    -0.290 OA
BRANCH  15  17
HETATM   17  C14 UNK     1       7.149   5.863   9.837  1.00  0.00     0.012 A 
HETATM   18  C17 UNK     1       7.155   7.233   9.972  1.00  0.00     0.016 A 
HETATM   19  C19 UNK     1       6.722   7.789  11.175  1.00  0.00     0.007 A 
HETATM   20  C16 UNK     1       6.294   6.960  12.213  1.00  0.00    -0.062 A 
HETATM   21  C20 UNK     1       6.300   5.575  12.046  1.00  0.00     0.007 A 
HETATM   22  C21 UNK     1       5.833   7.555  13.500  1.00  0.00     0.048 C 
HETATM   23  C18 UNK     1       6.733   5.019  10.842  1.00  0.00     0.016 A 
ENDBRANCH  15  17
ENDBRANCH  14  15
ENDBRANCH  13  14
ENDBRANCH  11  13
BRANCH   5  24
HETATM   24  C5  UNK     1      16.387   7.135  10.856  1.00  0.00     0.041 C 
HETATM   25  C12 UNK     1      17.355   7.928  10.006  1.00  0.00     0.010 C 
ENDBRANCH   5  24
TORSDOF 5
ENDMDL
MODEL 5
REMARK VINA RESULT:      -8.4      5.451      7.521
REMARK  5 active torsions:
REMARK  status: ('A' for Active; 'I' for Inactive)
REMARK    1  A    between atoms: C10_14  and  O2_2 
REMARK    2  A    between atoms: C13_17  and  O2_2 
REMARK    3  A    between atoms: C3_7  and  C5_9 
REMARK    4  A    between atoms: C13_17  and  C15_19 
REMARK    5  A    between atoms: C14_18  and  C15_19 
ROOT
HETATM    1  O1  UNK     1      18.408   1.245  31.783  1.00  0.00    -0.274 OA
HETATM    2  O3  UNK     1      18.469   2.487  29.885  1.00  0.00    -0.259 OA
HETATM    3  C1  UNK     1      18.336   3.645  33.282  1.00  0.00    -0.037 A 
HETATM    4  C2  UNK     1      18.330   2.331  33.959  1.00  0.00     0.005 A 
HETATM    5  C3  UNK     1      18.412   3.698  31.936  1.00  0.00     0.024 A 
HETATM    6  C4  UNK     1      18.364   1.175  33.184  1.00  0.00     0.092 A 
HETATM    7  C6  UNK     1      18.302   2.166  35.353  1.00  0.00     0.017 A 
HETATM    8  C7  UNK     1      18.436   2.456  31.111  1.00  0.00     0.295 A 
HETATM    9  C8  UNK     1      18.361  -0.106  33.742  1.00  0.00     0.075 A 
HETATM   10  C9  UNK     1      18.239   4.866  34.164  1.00  0.00     0.050 C 
HETATM   11  C10 UNK     1      18.327  -0.245  35.125  1.00  0.00     0.072 A 
HETATM   12  C11 UNK     1      18.298   0.889  35.930  1.00  0.00     0.038 A 
ENDROOT
BRANCH  11  13
HETATM   13  O2  UNK     1      18.323  -1.483  35.688  1.00  0.00    -0.344 OA
BRANCH  13  14
HETATM   14  C13 UNK     1      19.505  -1.885  36.382  1.00  0.00     0.259 C 
BRANCH  14  15
HETATM   15  C15 UNK     1      20.026  -3.189  35.808  1.00  0.00     0.183 C 
HETATM   16  O4  UNK     1      20.462  -3.260  34.662  1.00  0.00    -0.290 OA
BRANCH  15  17
HETATM   17  C14 UNK     1      20.000  -4.410  36.664  1.00  0.00     0.012 A 
HETATM   18  C17 UNK     1      18.992  -5.328  36.475  1.00  0.00     0.016 A 
HETATM   19  C19 UNK     1      18.970  -6.471  37.275  1.00  0.00     0.007 A 
HETATM   20  C16 UNK     1      19.955  -6.664  38.243  1.00  0.00    -0.062 A 
HETATM   21  C20 UNK     1      20.963  -5.715  38.411  1.00  0.00     0.007 A 
HETATM   22  C21 UNK     1      19.929  -7.885  39.099  1.00  0.00     0.048 C 
HETATM   23  C18 UNK     1      20.986  -4.572  37.611  1.00  0.00     0.016 A 
ENDBRANCH  15  17
ENDBRANCH  14  15
ENDBRANCH  13  14
ENDBRANCH  11  13
BRANCH   5  24
HETATM   24  C5  UNK     1      18.490   4.967  31.126  1.00  0.00     0.041 C 
HETATM   25  C12 UNK     1      19.916   5.462  31.010  1.00  0.00     0.010 C 
ENDBRANCH   5  24
TORSDOF 5
ENDMDL
MODEL 6
REMARK VINA RESULT:      -8.3      1.988      9.265
REMARK  5 active torsions:
REMARK  status: ('A' for Active; 'I' for Inactive)
REMARK    1  A    between atoms: C10_14  and  O2_2 
REMARK    2  A    between atoms: C13_17  and  O2_2 
REMARK    3  A    between atoms: C3_7  and  C5_9 
REMARK    4  A    between atoms: C13_17  and  C15_19 
REMARK    5  A    between atoms: C14_18  and  C15_19 
ROOT
HETATM    1  O1  UNK     1      18.195   1.477  33.347  1.00  0.00    -0.274 OA
HETATM    2  O3  UNK     1      18.373  -0.722  33.878  1.00  0.00    -0.259 OA
HETATM    3  C1  UNK     1      19.177   0.873  30.761  1.00  0.00    -0.037 A 
HETATM    4  C2  UNK     1      18.833   2.261  31.134  1.00  0.00     0.005 A 
HETATM    5  C3  UNK     1      19.054  -0.110  31.678  1.00  0.00     0.024 A 
HETATM    6  C4  UNK     1      18.352   2.514  32.414  1.00  0.00     0.092 A 
HETATM    7  C6  UNK     1      18.971   3.362  30.272  1.00  0.00     0.017 A 
HETATM    8  C7  UNK     1      18.525   0.166  33.045  1.00  0.00     0.295 A 
HETATM    9  C8  UNK     1      18.003   3.797  32.848  1.00  0.00     0.075 A 
HETATM   10  C9  UNK     1      19.639   0.642  29.344  1.00  0.00     0.050 C 
HETATM   11  C10 UNK     1      18.142   4.871  31.976  1.00  0.00     0.072 A 
HETATM   12  C11 UNK     1      18.627   4.654  30.690  1.00  0.00     0.038 A 
ENDROOT
BRANCH  11  13
HETATM   13  O2  UNK     1      17.809   6.126  32.378  1.00  0.00    -0.344 OA
BRANCH  13  14
HETATM   14  C13 UNK     1      16.424   6.470  32.357  1.00  0.00     0.259 C 
BRANCH  14  15
HETATM   15  C15 UNK     1      16.254   7.919  31.941  1.00  0.00     0.183 C 
HETATM   16  O4  UNK     1      16.466   8.288  30.788  1.00  0.00    -0.290 OA
BRANCH  15  17
HETATM   17  C14 UNK     1      15.823   8.913  32.966  1.00  0.00     0.012 A 
HETATM   18  C17 UNK     1      14.486   9.001  33.280  1.00  0.00     0.016 A 
HETATM   19  C19 UNK     1      14.083   9.930  34.239  1.00  0.00     0.007 A 
HETATM   20  C16 UNK     1      15.029  10.746  34.859  1.00  0.00    -0.062 A 
HETATM   21  C20 UNK     1      16.377  10.634  34.519  1.00  0.00     0.007 A 
HETATM   22  C21 UNK     1      14.598  11.740  35.884  1.00  0.00     0.048 C 
HETATM   23  C18 UNK     1      16.780   9.705  33.560  1.00  0.00     0.016 A 
ENDBRANCH  15  17
ENDBRANCH  14  15
ENDBRANCH  13  14
ENDBRANCH  11  13
BRANCH   5  24
HETATM   24  C5  UNK     1      19.428  -1.553  31.451  1.00  0.00     0.041 C 
HETATM   25  C12 UNK     1      20.882  -1.806  31.786  1.00  0.00     0.010 C 
ENDBRANCH   5  24
TORSDOF 5
ENDMDL
MODEL 7
REMARK VINA RESULT:      -8.3     21.647     24.103
REMARK  5 active torsions:
REMARK  status: ('A' for Active; 'I' for Inactive)
REMARK    1  A    between atoms: C10_14  and  O2_2 
REMARK    2  A    between atoms: C13_17  and  O2_2 
REMARK    3  A    between atoms: C3_7  and  C5_9 
REMARK    4  A    between atoms: C13_17  and  C15_19 
REMARK    5  A    between atoms: C14_18  and  C15_19 
ROOT
HETATM    1  O1  UNK     1      12.413   8.225  10.311  1.00  0.00    -0.274 OA
HETATM    2  O3  UNK     1      13.574   9.573  11.720  1.00  0.00    -0.259 OA
HETATM    3  C1  UNK     1      14.788   6.753   9.854  1.00  0.00    -0.037 A 
HETATM    4  C2  UNK     1      13.527   6.384   9.176  1.00  0.00     0.005 A 
HETATM    5  C3  UNK     1      14.811   7.826  10.672  1.00  0.00     0.024 A 
HETATM    6  C4  UNK     1      12.382   7.132   9.430  1.00  0.00     0.092 A 
HETATM    7  C6  UNK     1      13.407   5.318   8.270  1.00  0.00     0.017 A 
HETATM    8  C7  UNK     1      13.577   8.617  10.950  1.00  0.00     0.295 A 
HETATM    9  C8  UNK     1      11.151   6.851   8.831  1.00  0.00     0.075 A 
HETATM   10  C9  UNK     1      15.986   5.876   9.591  1.00  0.00     0.050 C 
HETATM   11  C10 UNK     1      11.054   5.787   7.942  1.00  0.00     0.072 A 
HETATM   12  C11 UNK     1      12.181   5.022   7.660  1.00  0.00     0.038 A 
ENDROOT
BRANCH  11  13
HETATM   13  O2  UNK     1       9.865   5.498   7.349  1.00  0.00    -0.344 OA
BRANCH  13  14
HETATM   14  C13 UNK     1       8.743   6.300   7.715  1.00  0.00     0.259 C 
BRANCH  14  15
HETATM   15  C15 UNK     1       7.765   5.482   8.536  1.00  0.00     0.183 C 
HETATM   16  O4  UNK     1       7.389   4.371   8.172  1.00  0.00    -0.290 OA
BRANCH  15  17
HETATM   17  C14 UNK     1       7.250   6.052   9.814  1.00  0.00     0.012 A 
HETATM   18  C17 UNK     1       6.858   5.189  10.812  1.00  0.00     0.016 A 
HETATM   19  C19 UNK     1       6.378   5.723  12.008  1.00  0.00     0.007 A 
HETATM   20  C16 UNK     1       6.303   7.106  12.174  1.00  0.00    -0.062 A 
HETATM   21  C20 UNK     1       6.708   7.955  11.144  1.00  0.00     0.007 A 
HETATM   22  C21 UNK     1       5.788   7.676  13.453  1.00  0.00     0.048 C 
HETATM   23  C18 UNK     1       7.188   7.421   9.948  1.00  0.00     0.016 A 
ENDBRANCH  15  17
ENDBRANCH  14  15
ENDBRANCH  13  14
ENDBRANCH  11  13
BRANCH   5  24
HETATM   24  C5  UNK     1      16.039   8.349  11.375  1.00  0.00     0.041 C 
HETATM   25  C12 UNK     1      16.816   9.301  10.493  1.00  0.00     0.010 C 
ENDBRANCH   5  24
TORSDOF 5
ENDMDL
MODEL 8
REMARK VINA RESULT:      -8.2      7.687     13.622
REMARK  5 active torsions:
REMARK  status: ('A' for Active; 'I' for Inactive)
REMARK    1  A    between atoms: C10_14  and  O2_2 
REMARK    2  A    between atoms: C13_17  and  O2_2 
REMARK    3  A    between atoms: C3_7  and  C5_9 
REMARK    4  A    between atoms: C13_17  and  C15_19 
REMARK    5  A    between atoms: C14_18  and  C15_19 
ROOT
HETATM    1  O1  UNK     1      20.877  -8.276  34.923  1.00  0.00    -0.274 OA
HETATM    2  O3  UNK     1      21.604 -10.287  34.162  1.00  0.00    -0.259 OA
HETATM    3  C1  UNK     1      22.475  -8.637  37.232  1.00  0.00    -0.037 A 
HETATM    4  C2  UNK     1      21.649  -7.423  37.067  1.00  0.00     0.005 A 
HETATM    5  C3  UNK     1      22.438  -9.599  36.286  1.00  0.00     0.024 A 
HETATM    6  C4  UNK     1      20.880  -7.284  35.916  1.00  0.00     0.092 A 
HETATM    7  C6  UNK     1      21.578  -6.387  38.013  1.00  0.00     0.017 A 
HETATM    8  C7  UNK     1      21.621  -9.437  35.049  1.00  0.00     0.295 A 
HETATM    9  C8  UNK     1      20.071  -6.168  35.681  1.00  0.00     0.075 A 
HETATM   10  C9  UNK     1      23.335  -8.713  38.469  1.00  0.00     0.050 C 
HETATM   11  C10 UNK     1      20.021  -5.152  36.629  1.00  0.00     0.072 A 
HETATM   12  C11 UNK     1      20.773  -5.262  37.794  1.00  0.00     0.038 A 
ENDROOT
BRANCH  11  13
HETATM   13  O2  UNK     1      19.240  -4.059  36.420  1.00  0.00    -0.344 OA
BRANCH  13  14
HETATM   14  C13 UNK     1      19.848  -2.780  36.604  1.00  0.00     0.259 C 
BRANCH  14  15
HETATM   15  C15 UNK     1      19.189  -1.757  35.700  1.00  0.00     0.183 C 
HETATM   16  O4  UNK     1      18.404  -0.919  36.137  1.00  0.00    -0.290 OA
BRANCH  15  17
HETATM   17  C14 UNK     1      19.507  -1.778  34.243  1.00  0.00     0.012 A 
HETATM   18  C17 UNK     1      20.579  -2.526  33.811  1.00  0.00     0.016 A 
HETATM   19  C19 UNK     1      20.875  -2.546  32.448  1.00  0.00     0.007 A 
HETATM   20  C16 UNK     1      20.092  -1.818  31.553  1.00  0.00    -0.062 A 
HETATM   21  C20 UNK     1      19.012  -1.069  32.021  1.00  0.00     0.007 A 
HETATM   22  C21 UNK     1      20.410  -1.839  30.096  1.00  0.00     0.048 C 
HETATM   23  C18 UNK     1      18.716  -1.048  33.384  1.00  0.00     0.016 A 
ENDBRANCH  15  17
ENDBRANCH  14  15
ENDBRANCH  13  14
ENDBRANCH  11  13
BRANCH   5  24
HETATM   24  C5  UNK     1      23.179 -10.909  36.359  1.00  0.00     0.041 C 
HETATM   25  C12 UNK     1      24.653 -10.728  36.066  1.00  0.00     0.010 C 
ENDBRANCH   5  24
TORSDOF 5
ENDMDL
MODEL 9
REMARK VINA RESULT:      -8.1     13.632     16.780
REMARK  5 active torsions:
REMARK  status: ('A' for Active; 'I' for Inactive)
REMARK    1  A    between atoms: C10_14  and  O2_2 
REMARK    2  A    between atoms: C13_17  and  O2_2 
REMARK    3  A    between atoms: C3_7  and  C5_9 
REMARK    4  A    between atoms: C13_17  and  C15_19 
REMARK    5  A    between atoms: C14_18  and  C15_19 
ROOT
HETATM    1  O1  UNK     1      28.194  -5.086  39.080  1.00  0.00    -0.274 OA
HETATM    2  O3  UNK     1      29.889  -3.620  39.436  1.00  0.00    -0.259 OA
HETATM    3  C1  UNK     1      30.102  -6.997  38.232  1.00  0.00    -0.037 A 
HETATM    4  C2  UNK     1      28.660  -7.322  38.242  1.00  0.00     0.005 A 
HETATM    5  C3  UNK     1      30.507  -5.763  38.598  1.00  0.00     0.024 A 
HETATM    6  C4  UNK     1      27.756  -6.355  38.668  1.00  0.00     0.092 A 
HETATM    7  C6  UNK     1      28.132  -8.557  37.834  1.00  0.00     0.017 A 
HETATM    8  C7  UNK     1      29.533  -4.735  39.066  1.00  0.00     0.295 A 
HETATM    9  C8  UNK     1      26.377  -6.579  38.709  1.00  0.00     0.075 A 
HETATM   10  C9  UNK     1      31.047  -8.098  37.816  1.00  0.00     0.050 C 
HETATM   11  C10 UNK     1      25.876  -7.812  38.306  1.00  0.00     0.072 A 
HETATM   12  C11 UNK     1      26.753  -8.800  37.868  1.00  0.00     0.038 A 
ENDROOT
BRANCH  11  13
HETATM   13  O2  UNK     1      24.538  -8.050  38.338  1.00  0.00    -0.344 OA
BRANCH  13  14
HETATM   14  C13 UNK     1      23.744  -7.192  39.157  1.00  0.00     0.259 C 
BRANCH  14  15
HETATM   15  C15 UNK     1      22.441  -7.879  39.519  1.00  0.00     0.183 C 
HETATM   16  O4  UNK     1      22.385  -8.731  40.403  1.00  0.00    -0.290 OA
BRANCH  15  17
HETATM   17  C14 UNK     1      21.203  -7.507  38.775  1.00  0.00     0.012 A 
HETATM   18  C17 UNK     1      20.109  -8.339  38.854  1.00  0.00     0.016 A 
HETATM   19  C19 UNK     1      18.951  -7.990  38.159  1.00  0.00     0.007 A 
HETATM   20  C16 UNK     1      18.918  -6.818  37.403  1.00  0.00    -0.062 A 
HETATM   21  C20 UNK     1      20.043  -5.995  37.342  1.00  0.00     0.007 A 
HETATM   22  C21 UNK     1      17.680  -6.446  36.659  1.00  0.00     0.048 C 
HETATM   23  C18 UNK     1      21.201  -6.345  38.037  1.00  0.00     0.016 A 
ENDBRANCH  15  17
ENDBRANCH  14  15
ENDBRANCH  13  14
ENDBRANCH  11  13
BRANCH   5  24
HETATM   24  C5  UNK     1      31.936  -5.281  38.573  1.00  0.00     0.041 C 
HETATM   25  C12 UNK     1      32.293  -4.683  37.230  1.00  0.00     0.010 C 
ENDBRANCH   5  24
TORSDOF 5
ENDMDL
MODEL 10
REMARK VINA RESULT:      -8.1      7.437     12.663
REMARK  5 active torsions:
REMARK  status: ('A' for Active; 'I' for Inactive)
REMARK    1  A    between atoms: C10_14  and  O2_2 
REMARK    2  A    between atoms: C13_17  and  O2_2 
REMARK    3  A    between atoms: C3_7  and  C5_9 
REMARK    4  A    between atoms: C13_17  and  C15_19 
REMARK    5  A    between atoms: C14_18  and  C15_19 
ROOT
HETATM    1  O1  UNK     1      18.659  -7.364  36.499  1.00  0.00    -0.274 OA
HETATM    2  O3  UNK     1      18.350  -9.612  36.537  1.00  0.00    -0.259 OA
HETATM    3  C1  UNK     1      21.115  -7.736  37.857  1.00  0.00    -0.037 A 
HETATM    4  C2  UNK     1      20.649  -6.381  37.495  1.00  0.00     0.005 A 
HETATM    5  C3  UNK     1      20.340  -8.803  37.568  1.00  0.00     0.024 A 
HETATM    6  C4  UNK     1      19.437  -6.243  36.825  1.00  0.00     0.092 A 
HETATM    7  C6  UNK     1      21.354  -5.204  37.793  1.00  0.00     0.017 A 
HETATM    8  C7  UNK     1      19.048  -8.649  36.839  1.00  0.00     0.295 A 
HETATM    9  C8  UNK     1      18.925  -4.999  36.446  1.00  0.00     0.075 A 
HETATM   10  C9  UNK     1      22.461  -7.838  38.530  1.00  0.00     0.050 C 
HETATM   11  C10 UNK     1      19.643  -3.847  36.746  1.00  0.00     0.072 A 
HETATM   12  C11 UNK     1      20.855  -3.949  37.420  1.00  0.00     0.038 A 
ENDROOT
BRANCH  11  13
HETATM   13  O2  UNK     1      19.161  -2.627  36.386  1.00  0.00    -0.344 OA
BRANCH  13  14
HETATM   14  C13 UNK     1      19.883  -1.913  35.383  1.00  0.00     0.259 C 
BRANCH  14  15
HETATM   15  C15 UNK     1      18.919  -1.309  34.380  1.00  0.00     0.183 C 
HETATM   16  O4  UNK     1      17.789  -0.954  34.704  1.00  0.00    -0.290 OA
BRANCH  15  17
HETATM   17  C14 UNK     1      19.364  -1.149  32.965  1.00  0.00     0.012 A 
HETATM   18  C17 UNK     1      20.169  -2.119  32.411  1.00  0.00     0.016 A 
HETATM   19  C19 UNK     1      20.583  -1.969  31.088  1.00  0.00     0.007 A 
HETATM   20  C16 UNK     1      20.182  -0.854  30.353  1.00  0.00    -0.062 A 
HETATM   21  C20 UNK     1      19.366   0.113  30.942  1.00  0.00     0.007 A 
HETATM   22  C21 UNK     1      20.627  -0.694  28.939  1.00  0.00     0.048 C 
HETATM   23  C18 UNK     1      18.952  -0.037  32.266  1.00  0.00     0.016 A 
ENDBRANCH  15  17
ENDBRANCH  14  15
ENDBRANCH  13  14
ENDBRANCH  11  13
BRANCH   5  24
HETATM   24  C5  UNK     1      20.664 -10.229  37.937  1.00  0.00     0.041 C 
HETATM   25  C12 UNK     1      21.421 -10.928  36.828  1.00  0.00     0.010 C 
ENDBRANCH   5  24
TORSDOF 5
ENDMDL
