MODEL 1
REMARK VINA RESULT:      -8.1      0.000      0.000
REMARK  5 active torsions:
REMARK  status: ('A' for Active; 'I' for Inactive)
REMARK    1  A    between atoms: C12_17  and  O1_1 
REMARK    2  A    between atoms: C9_14  and  N1_5 
REMARK    3  A    between atoms: C1_6  and  C3_8 
REMARK    4  A    between atoms: C1_6  and  C12_17 
REMARK    5  A    between atoms: C2_7  and  C4_9 
ROOT
HETATM    1  C1  UNK     1      18.344   8.065  33.278  1.00  0.00     0.050 C 
HETATM    2  C4  UNK     1      19.270   7.156  32.879  1.00  0.00     0.030 C 
ENDROOT
BRANCH   1   3
HETATM    3  C3  UNK     1      16.898   7.826  33.110  1.00  0.00    -0.020 A 
HETATM    4  C7  UNK     1      16.111   7.624  34.231  1.00  0.00     0.012 A 
HETATM    5  C13 UNK     1      14.743   7.399  34.073  1.00  0.00     0.001 A 
HETATM    6  C15 UNK     1      14.183   7.380  32.796  1.00  0.00     0.000 A 
HETATM    7  C14 UNK     1      14.989   7.586  31.676  1.00  0.00     0.001 A 
HETATM    8  C8  UNK     1      16.357   7.811  31.835  1.00  0.00     0.012 A 
ENDBRANCH   1   3
BRANCH   1   9
HETATM    9  C12 UNK     1      18.860   9.327  33.892  1.00  0.00     0.293 C 
HETATM   10  O2  UNK     1      19.824   9.392  34.642  1.00  0.00    -0.259 OA
BRANCH   9  11
HETATM   11  O1  UNK     1      18.101  10.379  33.479  1.00  0.00    -0.322 OA
HETATM   12  C16 UNK     1      18.372  11.631  34.120  1.00  0.00     0.213 C 
ENDBRANCH   9  11
ENDBRANCH   1   9
BRANCH   2  13
HETATM   13  C2  UNK     1      18.995   5.863  32.272  1.00  0.00    -0.035 A 
HETATM   14  C5  UNK     1      18.428   4.841  33.033  1.00  0.00     0.014 A 
HETATM   15  C10 UNK     1      18.162   3.603  32.449  1.00  0.00     0.037 A 
HETATM   16  C9  UNK     1      18.463   3.386  31.104  1.00  0.00     0.102 A 
HETATM   17  C11 UNK     1      19.030   4.409  30.343  1.00  0.00     0.037 A 
HETATM   18  C6  UNK     1      19.295   5.647  30.927  1.00  0.00     0.014 A 
BRANCH  16  19
HETATM   19  N1  UNK     1      18.193   2.125  30.509  1.00  0.00    -0.116 N 
HETATM   20  O3  UNK     1      18.648   1.088  31.050  1.00  0.00    -0.532 OA
HETATM   21  O4  UNK     1      17.506   2.082  29.461  1.00  0.00    -0.532 OA
ENDBRANCH  16  19
ENDBRANCH   2  13
TORSDOF 5
ENDMDL
MODEL 2
REMARK VINA RESULT:      -7.1      9.307     12.734
REMARK  5 active torsions:
REMARK  status: ('A' for Active; 'I' for Inactive)
REMARK    1  A    between atoms: C12_17  and  O1_1 
REMARK    2  A    between atoms: C9_14  and  N1_5 
REMARK    3  A    between atoms: C1_6  and  C3_8 
REMARK    4  A    between atoms: C1_6  and  C12_17 
REMARK    5  A    between atoms: C2_7  and  C4_9 
ROOT
HETATM    1  C1  UNK     1      20.795  -5.147  37.535  1.00  0.00     0.050 C 
HETATM    2  C4  UNK     1      20.911  -3.797  37.447  1.00  0.00     0.030 C 
ENDROOT
BRANCH   1   3
HETATM    3  C3  UNK     1      19.794  -5.894  36.749  1.00  0.00    -0.020 A 
HETATM    4  C7  UNK     1      20.190  -6.545  35.594  1.00  0.00     0.012 A 
HETATM    5  C13 UNK     1      19.245  -7.252  34.851  1.00  0.00     0.001 A 
HETATM    6  C15 UNK     1      17.917  -7.298  35.275  1.00  0.00     0.000 A 
HETATM    7  C14 UNK     1      17.534  -6.636  36.442  1.00  0.00     0.001 A 
HETATM    8  C8  UNK     1      18.480  -5.929  37.184  1.00  0.00     0.012 A 
ENDBRANCH   1   3
BRANCH   1   9
HETATM    9  C12 UNK     1      21.728  -5.843  38.474  1.00  0.00     0.293 C 
HETATM   10  O2  UNK     1      22.946  -5.733  38.453  1.00  0.00    -0.259 OA
BRANCH   9  11
HETATM   11  O1  UNK     1      21.013  -6.603  39.349  1.00  0.00    -0.322 OA
HETATM   12  C16 UNK     1      21.401  -7.978  39.439  1.00  0.00     0.213 C 
ENDBRANCH   9  11
ENDBRANCH   1   9
BRANCH   2  13
HETATM   13  C2  UNK     1      20.119  -2.923  36.595  1.00  0.00    -0.035 A 
HETATM   14  C5  UNK     1      19.028  -2.234  37.125  1.00  0.00     0.014 A 
HETATM   15  C10 UNK     1      18.271  -1.394  36.308  1.00  0.00     0.037 A 
HETATM   16  C9  UNK     1      18.605  -1.243  34.962  1.00  0.00     0.102 A 
HETATM   17  C11 UNK     1      19.696  -1.933  34.433  1.00  0.00     0.037 A 
HETATM   18  C6  UNK     1      20.453  -2.772  35.249  1.00  0.00     0.014 A 
BRANCH  16  19
HETATM   19  N1  UNK     1      17.834  -0.389  34.130  1.00  0.00    -0.116 N 
HETATM   20  O3  UNK     1      16.582  -0.478  34.160  1.00  0.00    -0.532 OA
HETATM   21  O4  UNK     1      18.425   0.432  33.388  1.00  0.00    -0.532 OA
ENDBRANCH  16  19
ENDBRANCH   2  13
TORSDOF 5
ENDMDL
MODEL 3
REMARK VINA RESULT:      -6.9      2.332      4.285
REMARK  5 active torsions:
REMARK  status: ('A' for Active; 'I' for Inactive)
REMARK    1  A    between atoms: C12_17  and  O1_1 
REMARK    2  A    between atoms: C9_14  and  N1_5 
REMARK    3  A    between atoms: C1_6  and  C3_8 
REMARK    4  A    between atoms: C1_6  and  C12_17 
REMARK    5  A    between atoms: C2_7  and  C4_9 
ROOT
HETATM    1  C1  UNK     1      17.962   5.989  31.743  1.00  0.00     0.050 C 
HETATM    2  C4  UNK     1      17.298   4.806  31.706  1.00  0.00     0.030 C 
ENDROOT
BRANCH   1   3
HETATM    3  C3  UNK     1      19.435   6.054  31.788  1.00  0.00    -0.020 A 
HETATM    4  C7  UNK     1      20.156   5.873  30.620  1.00  0.00     0.012 A 
HETATM    5  C13 UNK     1      21.549   5.935  30.662  1.00  0.00     0.001 A 
HETATM    6  C15 UNK     1      22.201   6.176  31.871  1.00  0.00     0.000 A 
HETATM    7  C14 UNK     1      21.459   6.356  33.039  1.00  0.00     0.001 A 
HETATM    8  C8  UNK     1      20.067   6.294  32.997  1.00  0.00     0.012 A 
ENDBRANCH   1   3
BRANCH   1   9
HETATM    9  C12 UNK     1      17.127   7.230  31.743  1.00  0.00     0.293 C 
HETATM   10  O2  UNK     1      16.812   7.857  30.741  1.00  0.00    -0.259 OA
BRANCH   9  11
HETATM   11  O1  UNK     1      16.771   7.541  33.020  1.00  0.00    -0.322 OA
HETATM   12  C16 UNK     1      17.305   8.767  33.533  1.00  0.00     0.213 C 
ENDBRANCH   9  11
ENDBRANCH   1   9
BRANCH   2  13
HETATM   13  C2  UNK     1      17.905   3.484  31.687  1.00  0.00    -0.035 A 
HETATM   14  C5  UNK     1      18.044   2.763  32.873  1.00  0.00     0.014 A 
HETATM   15  C10 UNK     1      18.624   1.495  32.854  1.00  0.00     0.037 A 
HETATM   16  C9  UNK     1      19.064   0.947  31.649  1.00  0.00     0.102 A 
HETATM   17  C11 UNK     1      18.925   1.668  30.464  1.00  0.00     0.037 A 
HETATM   18  C6  UNK     1      18.345   2.936  30.482  1.00  0.00     0.014 A 
BRANCH  16  19
HETATM   19  N1  UNK     1      19.655  -0.344  31.630  1.00  0.00    -0.116 N 
HETATM   20  O3  UNK     1      18.958  -1.338  31.947  1.00  0.00    -0.532 OA
HETATM   21  O4  UNK     1      20.859  -0.456  31.295  1.00  0.00    -0.532 OA
ENDBRANCH  16  19
ENDBRANCH   2  13
TORSDOF 5
ENDMDL
MODEL 4
REMARK VINA RESULT:      -6.7     22.701     24.622
REMARK  5 active torsions:
REMARK  status: ('A' for Active; 'I' for Inactive)
REMARK    1  A    between atoms: C12_17  and  O1_1 
REMARK    2  A    between atoms: C9_14  and  N1_5 
REMARK    3  A    between atoms: C1_6  and  C3_8 
REMARK    4  A    between atoms: C1_6  and  C12_17 
REMARK    5  A    between atoms: C2_7  and  C4_9 
ROOT
HETATM    1  C1  UNK     1      14.589   6.284   9.344  1.00  0.00     0.050 C 
HETATM    2  C4  UNK     1      13.755   5.421   8.709  1.00  0.00     0.030 C 
ENDROOT
BRANCH   1   3
HETATM    3  C3  UNK     1      14.203   7.683   9.612  1.00  0.00    -0.020 A 
HETATM    4  C7  UNK     1      14.581   8.672   8.720  1.00  0.00     0.012 A 
HETATM    5  C13 UNK     1      14.216   9.994   8.972  1.00  0.00     0.001 A 
HETATM    6  C15 UNK     1      13.478  10.308  10.114  1.00  0.00     0.000 A 
HETATM    7  C14 UNK     1      13.106   9.300  11.003  1.00  0.00     0.001 A 
HETATM    8  C8  UNK     1      13.471   7.978  10.750  1.00  0.00     0.012 A 
ENDBRANCH   1   3
BRANCH   1   9
HETATM    9  C12 UNK     1      15.923   5.750   9.757  1.00  0.00     0.293 C 
HETATM   10  O2  UNK     1      16.375   4.665   9.415  1.00  0.00    -0.259 OA
BRANCH   9  11
HETATM   11  O1  UNK     1      16.550   6.656  10.557  1.00  0.00    -0.322 OA
HETATM   12  C16 UNK     1      17.736   7.248  10.015  1.00  0.00     0.213 C 
ENDBRANCH   9  11
ENDBRANCH   1   9
BRANCH   2  13
HETATM   13  C2  UNK     1      12.413   5.721   8.232  1.00  0.00    -0.035 A 
HETATM   14  C5  UNK     1      11.315   5.519   9.068  1.00  0.00     0.014 A 
HETATM   15  C10 UNK     1      10.030   5.809   8.611  1.00  0.00     0.037 A 
HETATM   16  C9  UNK     1       9.843   6.301   7.319  1.00  0.00     0.102 A 
HETATM   17  C11 UNK     1      10.942   6.502   6.484  1.00  0.00     0.037 A 
HETATM   18  C6  UNK     1      12.227   6.213   6.940  1.00  0.00     0.014 A 
BRANCH  16  19
HETATM   19  N1  UNK     1       8.534   6.596   6.853  1.00  0.00    -0.116 N 
HETATM   20  O3  UNK     1       7.578   6.567   7.665  1.00  0.00    -0.532 OA
HETATM   21  O4  UNK     1       8.369   6.878   5.641  1.00  0.00    -0.532 OA
ENDBRANCH  16  19
ENDBRANCH   2  13
TORSDOF 5
ENDMDL
MODEL 5
REMARK VINA RESULT:      -6.7      2.789      6.697
REMARK  5 active torsions:
REMARK  status: ('A' for Active; 'I' for Inactive)
REMARK    1  A    between atoms: C12_17  and  O1_1 
REMARK    2  A    between atoms: C9_14  and  N1_5 
REMARK    3  A    between atoms: C1_6  and  C3_8 
REMARK    4  A    between atoms: C1_6  and  C12_17 
REMARK    5  A    between atoms: C2_7  and  C4_9 
ROOT
HETATM    1  C1  UNK     1      18.324   4.712  33.328  1.00  0.00     0.050 C 
HETATM    2  C4  UNK     1      17.786   5.576  34.226  1.00  0.00     0.030 C 
ENDROOT
BRANCH   1   3
HETATM    3  C3  UNK     1      19.005   5.183  32.107  1.00  0.00    -0.020 A 
HETATM    4  C7  UNK     1      18.273   5.345  30.943  1.00  0.00     0.012 A 
HETATM    5  C13 UNK     1      18.916   5.792  29.789  1.00  0.00     0.001 A 
HETATM    6  C15 UNK     1      20.282   6.070  29.815  1.00  0.00     0.000 A 
HETATM    7  C14 UNK     1      21.006   5.901  30.996  1.00  0.00     0.001 A 
HETATM    8  C8  UNK     1      20.362   5.454  32.150  1.00  0.00     0.012 A 
ENDBRANCH   1   3
BRANCH   1   9
HETATM    9  C12 UNK     1      18.189   3.253  33.632  1.00  0.00     0.293 C 
HETATM   10  O2  UNK     1      17.748   2.418  32.854  1.00  0.00    -0.259 OA
BRANCH   9  11
HETATM   11  O1  UNK     1      18.637   3.007  34.894  1.00  0.00    -0.322 OA
HETATM   12  C16 UNK     1      18.330   1.712  35.421  1.00  0.00     0.213 C 
ENDBRANCH   9  11
ENDBRANCH   1   9
BRANCH   2  13
HETATM   13  C2  UNK     1      17.810   7.028  34.138  1.00  0.00    -0.035 A 
HETATM   14  C5  UNK     1      18.976   7.726  34.453  1.00  0.00     0.014 A 
HETATM   15  C10 UNK     1      18.999   9.118  34.366  1.00  0.00     0.037 A 
HETATM   16  C9  UNK     1      17.857   9.811  33.963  1.00  0.00     0.102 A 
HETATM   17  C11 UNK     1      16.692   9.112  33.649  1.00  0.00     0.037 A 
HETATM   18  C6  UNK     1      16.668   7.721  33.736  1.00  0.00     0.014 A 
BRANCH  16  19
HETATM   19  N1  UNK     1      17.880  11.229  33.876  1.00  0.00    -0.116 N 
HETATM   20  O3  UNK     1      18.861  11.788  33.328  1.00  0.00    -0.532 OA
HETATM   21  O4  UNK     1      16.919  11.882  34.347  1.00  0.00    -0.532 OA
ENDBRANCH  16  19
ENDBRANCH   2  13
TORSDOF 5
ENDMDL
MODEL 6
REMARK VINA RESULT:      -6.7     18.138     21.344
REMARK  5 active torsions:
REMARK  status: ('A' for Active; 'I' for Inactive)
REMARK    1  A    between atoms: C12_17  and  O1_1 
REMARK    2  A    between atoms: C9_14  and  N1_5 
REMARK    3  A    between atoms: C1_6  and  C3_8 
REMARK    4  A    between atoms: C1_6  and  C12_17 
REMARK    5  A    between atoms: C2_7  and  C4_9 
ROOT
HETATM    1  C1  UNK     1      19.148  -2.231  15.457  1.00  0.00     0.050 C 
HETATM    2  C4  UNK     1      19.052  -1.516  14.307  1.00  0.00     0.030 C 
ENDROOT
BRANCH   1   3
HETATM    3  C3  UNK     1      19.831  -3.538  15.505  1.00  0.00    -0.020 A 
HETATM    4  C7  UNK     1      21.197  -3.580  15.730  1.00  0.00     0.012 A 
HETATM    5  C13 UNK     1      21.843  -4.815  15.777  1.00  0.00     0.001 A 
HETATM    6  C15 UNK     1      21.114  -5.990  15.598  1.00  0.00     0.000 A 
HETATM    7  C14 UNK     1      19.739  -5.931  15.372  1.00  0.00     0.001 A 
HETATM    8  C8  UNK     1      19.093  -4.696  15.325  1.00  0.00     0.012 A 
ENDBRANCH   1   3
BRANCH   1   9
HETATM    9  C12 UNK     1      18.521  -1.633  16.676  1.00  0.00     0.293 C 
HETATM   10  O2  UNK     1      17.335  -1.725  16.965  1.00  0.00    -0.259 OA
BRANCH   9  11
HETATM   11  O1  UNK     1      19.470  -0.986  17.407  1.00  0.00    -0.322 OA
HETATM   12  C16 UNK     1      19.033   0.197  18.084  1.00  0.00     0.213 C 
ENDBRANCH   9  11
ENDBRANCH   1   9
BRANCH   2  13
HETATM   13  C2  UNK     1      19.595  -1.898  13.012  1.00  0.00    -0.035 A 
HETATM   14  C5  UNK     1      20.707  -1.232  12.498  1.00  0.00     0.014 A 
HETATM   15  C10 UNK     1      21.228  -1.601  11.258  1.00  0.00     0.037 A 
HETATM   16  C9  UNK     1      20.638  -2.637  10.533  1.00  0.00     0.102 A 
HETATM   17  C11 UNK     1      19.526  -3.303  11.048  1.00  0.00     0.037 A 
HETATM   18  C6  UNK     1      19.005  -2.934  12.288  1.00  0.00     0.014 A 
BRANCH  16  19
HETATM   19  N1  UNK     1      21.169  -3.012   9.270  1.00  0.00    -0.116 N 
HETATM   20  O3  UNK     1      21.557  -4.193   9.100  1.00  0.00    -0.532 OA
HETATM   21  O4  UNK     1      21.233  -2.152   8.359  1.00  0.00    -0.532 OA
ENDBRANCH  16  19
ENDBRANCH   2  13
TORSDOF 5
ENDMDL
MODEL 7
REMARK VINA RESULT:      -6.6     17.258     19.626
REMARK  5 active torsions:
REMARK  status: ('A' for Active; 'I' for Inactive)
REMARK    1  A    between atoms: C12_17  and  O1_1 
REMARK    2  A    between atoms: C9_14  and  N1_5 
REMARK    3  A    between atoms: C1_6  and  C3_8 
REMARK    4  A    between atoms: C1_6  and  C12_17 
REMARK    5  A    between atoms: C2_7  and  C4_9 
ROOT
HETATM    1  C1  UNK     1      30.265  -5.403  38.274  1.00  0.00     0.050 C 
HETATM    2  C4  UNK     1      31.413  -4.710  38.062  1.00  0.00     0.030 C 
ENDROOT
BRANCH   1   3
HETATM    3  C3  UNK     1      29.984  -6.675  37.581  1.00  0.00    -0.020 A 
HETATM    4  C7  UNK     1      30.367  -7.867  38.171  1.00  0.00     0.012 A 
HETATM    5  C13 UNK     1      30.101  -9.069  37.517  1.00  0.00     0.001 A 
HETATM    6  C15 UNK     1      29.455  -9.062  36.280  1.00  0.00     0.000 A 
HETATM    7  C14 UNK     1      29.075  -7.852  35.699  1.00  0.00     0.001 A 
HETATM    8  C8  UNK     1      29.342  -6.650  36.354  1.00  0.00     0.012 A 
ENDBRANCH   1   3
BRANCH   1   9
HETATM    9  C12 UNK     1      29.291  -4.812  39.244  1.00  0.00     0.293 C 
HETATM   10  O2  UNK     1      29.480  -3.783  39.879  1.00  0.00    -0.259 OA
BRANCH   9  11
HETATM   11  O1  UNK     1      28.173  -5.587  39.299  1.00  0.00    -0.322 OA
HETATM   12  C16 UNK     1      26.997  -5.023  38.710  1.00  0.00     0.213 C 
ENDBRANCH   9  11
ENDBRANCH   1   9
BRANCH   2  13
HETATM   13  C2  UNK     1      32.498  -5.103  37.175  1.00  0.00    -0.035 A 
HETATM   14  C5  UNK     1      32.480  -4.713  35.836  1.00  0.00     0.014 A 
HETATM   15  C10 UNK     1      33.522  -5.087  34.988  1.00  0.00     0.037 A 
HETATM   16  C9  UNK     1      34.581  -5.850  35.478  1.00  0.00     0.102 A 
HETATM   17  C11 UNK     1      34.599  -6.240  36.817  1.00  0.00     0.037 A 
HETATM   18  C6  UNK     1      33.558  -5.866  37.666  1.00  0.00     0.014 A 
BRANCH  16  19
HETATM   19  N1  UNK     1      35.641  -6.233  34.614  1.00  0.00    -0.116 N 
HETATM   20  O3  UNK     1      36.646  -6.806  35.100  1.00  0.00    -0.532 OA
HETATM   21  O4  UNK     1      35.544  -5.988  33.387  1.00  0.00    -0.532 OA
ENDBRANCH  16  19
ENDBRANCH   2  13
TORSDOF 5
ENDMDL
MODEL 8
REMARK VINA RESULT:      -6.6      5.402      8.005
REMARK  5 active torsions:
REMARK  status: ('A' for Active; 'I' for Inactive)
REMARK    1  A    between atoms: C12_17  and  O1_1 
REMARK    2  A    between atoms: C9_14  and  N1_5 
REMARK    3  A    between atoms: C1_6  and  C3_8 
REMARK    4  A    between atoms: C1_6  and  C12_17 
REMARK    5  A    between atoms: C2_7  and  C4_9 
ROOT
HETATM    1  C1  UNK     1      18.503   1.861  31.638  1.00  0.00     0.050 C 
HETATM    2  C4  UNK     1      17.978   2.428  32.754  1.00  0.00     0.030 C 
ENDROOT
BRANCH   1   3
HETATM    3  C3  UNK     1      19.173   0.547  31.674  1.00  0.00    -0.020 A 
HETATM    4  C7  UNK     1      20.255   0.315  30.843  1.00  0.00     0.012 A 
HETATM    5  C13 UNK     1      20.889  -0.927  30.878  1.00  0.00     0.001 A 
HETATM    6  C15 UNK     1      20.429  -1.920  31.744  1.00  0.00     0.000 A 
HETATM    7  C14 UNK     1      19.337  -1.670  32.575  1.00  0.00     0.001 A 
HETATM    8  C8  UNK     1      18.704  -0.428  32.539  1.00  0.00     0.012 A 
ENDBRANCH   1   3
BRANCH   1   9
HETATM    9  C12 UNK     1      18.377   2.638  30.366  1.00  0.00     0.293 C 
HETATM   10  O2  UNK     1      19.038   3.628  30.087  1.00  0.00    -0.259 OA
BRANCH   9  11
HETATM   11  O1  UNK     1      17.426   2.067  29.575  1.00  0.00    -0.322 OA
HETATM   12  C16 UNK     1      17.884   1.568  28.314  1.00  0.00     0.213 C 
ENDBRANCH   9  11
ENDBRANCH   1   9
BRANCH   2  13
HETATM   13  C2  UNK     1      17.977   1.849  34.089  1.00  0.00    -0.035 A 
HETATM   14  C5  UNK     1      18.930   2.251  35.024  1.00  0.00     0.014 A 
HETATM   15  C10 UNK     1      18.927   1.697  36.304  1.00  0.00     0.037 A 
HETATM   16  C9  UNK     1      17.971   0.742  36.649  1.00  0.00     0.102 A 
HETATM   17  C11 UNK     1      17.018   0.340  35.714  1.00  0.00     0.037 A 
HETATM   18  C6  UNK     1      17.021   0.894  34.434  1.00  0.00     0.014 A 
BRANCH  16  19
HETATM   19  N1  UNK     1      17.969   0.178  37.952  1.00  0.00    -0.116 N 
HETATM   20  O3  UNK     1      18.013  -1.071  38.075  1.00  0.00    -0.532 OA
HETATM   21  O4  UNK     1      17.924   0.942  38.946  1.00  0.00    -0.532 OA
ENDBRANCH  16  19
ENDBRANCH   2  13
TORSDOF 5
ENDMDL
MODEL 9
REMARK VINA RESULT:      -6.6     19.616     21.626
REMARK  5 active torsions:
REMARK  status: ('A' for Active; 'I' for Inactive)
REMARK    1  A    between atoms: C12_17  and  O1_1 
REMARK    2  A    between atoms: C9_14  and  N1_5 
REMARK    3  A    between atoms: C1_6  and  C3_8 
REMARK    4  A    between atoms: C1_6  and  C12_17 
REMARK    5  A    between atoms: C2_7  and  C4_9 
ROOT
HETATM    1  C1  UNK     1      21.310  -4.221  15.613  1.00  0.00     0.050 C 
HETATM    2  C4  UNK     1      21.064  -5.548  15.462  1.00  0.00     0.030 C 
ENDROOT
BRANCH   1   3
HETATM    3  C3  UNK     1      20.525  -3.198  14.896  1.00  0.00    -0.020 A 
HETATM    4  C7  UNK     1      19.386  -2.680  15.488  1.00  0.00     0.012 A 
HETATM    5  C13 UNK     1      18.644  -1.713  14.810  1.00  0.00     0.001 A 
HETATM    6  C15 UNK     1      19.053  -1.277  13.550  1.00  0.00     0.000 A 
HETATM    7  C14 UNK     1      20.204  -1.809  12.967  1.00  0.00     0.001 A 
HETATM    8  C8  UNK     1      20.945  -2.776  13.645  1.00  0.00     0.012 A 
ENDBRANCH   1   3
BRANCH   1   9
HETATM    9  C12 UNK     1      22.421  -3.843  16.540  1.00  0.00     0.293 C 
HETATM   10  O2  UNK     1      22.318  -3.045  17.462  1.00  0.00    -0.259 OA
BRANCH   9  11
HETATM   11  O1  UNK     1      23.549  -4.528  16.203  1.00  0.00    -0.322 OA
HETATM   12  C16 UNK     1      24.782  -3.949  16.644  1.00  0.00     0.213 C 
ENDBRANCH   9  11
ENDBRANCH   1   9
BRANCH   2  13
HETATM   13  C2  UNK     1      20.031  -6.137  14.625  1.00  0.00    -0.035 A 
HETATM   14  C5  UNK     1      18.725  -6.247  15.103  1.00  0.00     0.014 A 
HETATM   15  C10 UNK     1      17.734  -6.810  14.298  1.00  0.00     0.037 A 
HETATM   16  C9  UNK     1      18.049  -7.263  13.017  1.00  0.00     0.102 A 
HETATM   17  C11 UNK     1      19.355  -7.154  12.540  1.00  0.00     0.037 A 
HETATM   18  C6  UNK     1      20.346  -6.590  13.344  1.00  0.00     0.014 A 
BRANCH  16  19
HETATM   19  N1  UNK     1      17.040  -7.837  12.199  1.00  0.00    -0.116 N 
HETATM   20  O3  UNK     1      16.572  -8.960  12.507  1.00  0.00    -0.532 OA
HETATM   21  O4  UNK     1      16.643  -7.206  11.190  1.00  0.00    -0.532 OA
ENDBRANCH  16  19
ENDBRANCH   2  13
TORSDOF 5
ENDMDL
MODEL 10
REMARK VINA RESULT:      -6.5     13.906     16.868
REMARK  5 active torsions:
REMARK  status: ('A' for Active; 'I' for Inactive)
REMARK    1  A    between atoms: C12_17  and  O1_1 
REMARK    2  A    between atoms: C9_14  and  N1_5 
REMARK    3  A    between atoms: C1_6  and  C3_8 
REMARK    4  A    between atoms: C1_6  and  C12_17 
REMARK    5  A    between atoms: C2_7  and  C4_9 
ROOT
HETATM    1  C1  UNK     1      20.048  -7.729  36.313  1.00  0.00     0.050 C 
HETATM    2  C4  UNK     1      21.002  -8.100  35.419  1.00  0.00     0.030 C 
ENDROOT
BRANCH   1   3
HETATM    3  C3  UNK     1      19.834  -8.466  37.573  1.00  0.00    -0.020 A 
HETATM    4  C7  UNK     1      19.281  -9.735  37.529  1.00  0.00     0.012 A 
HETATM    5  C13 UNK     1      19.080 -10.432  38.720  1.00  0.00     0.001 A 
HETATM    6  C15 UNK     1      19.434  -9.851  39.937  1.00  0.00     0.000 A 
HETATM    7  C14 UNK     1      19.991  -8.572  39.964  1.00  0.00     0.001 A 
HETATM    8  C8  UNK     1      20.192  -7.875  38.773  1.00  0.00     0.012 A 
ENDBRANCH   1   3
BRANCH   1   9
HETATM    9  C12 UNK     1      19.218  -6.537  35.955  1.00  0.00     0.293 C 
HETATM   10  O2  UNK     1      17.995  -6.512  35.969  1.00  0.00    -0.259 OA
BRANCH   9  11
HETATM   11  O1  UNK     1      20.032  -5.497  35.625  1.00  0.00    -0.322 OA
HETATM   12  C16 UNK     1      20.168  -4.474  36.618  1.00  0.00     0.213 C 
ENDBRANCH   9  11
ENDBRANCH   1   9
BRANCH   2  13
HETATM   13  C2  UNK     1      21.925  -9.214  35.566  1.00  0.00    -0.035 A 
HETATM   14  C5  UNK     1      23.051  -9.085  36.379  1.00  0.00     0.014 A 
HETATM   15  C10 UNK     1      23.934 -10.156  36.520  1.00  0.00     0.037 A 
HETATM   16  C9  UNK     1      23.691 -11.354  35.850  1.00  0.00     0.102 A 
HETATM   17  C11 UNK     1      22.565 -11.483  35.037  1.00  0.00     0.037 A 
HETATM   18  C6  UNK     1      21.682 -10.413  34.895  1.00  0.00     0.014 A 
BRANCH  16  19
HETATM   19  N1  UNK     1      24.591 -12.444  35.993  1.00  0.00    -0.116 N 
HETATM   20  O3  UNK     1      25.449 -12.408  36.909  1.00  0.00    -0.532 OA
HETATM   21  O4  UNK     1      24.503 -13.413  35.201  1.00  0.00    -0.532 OA
ENDBRANCH  16  19
ENDBRANCH   2  13
TORSDOF 5
ENDMDL
