MODEL 1
REMARK VINA RESULT:      -8.5      0.000      0.000
REMARK  2 active torsions:
REMARK  status: ('A' for Active; 'I' for Inactive)
REMARK       I    between atoms: C5_12  and  N1_5 
REMARK    1  A    between atoms: C6_13  and  N2_6 
REMARK    2  A    between atoms: C5_12  and  C7_14 
ROOT
HETATM    1  O1  UNK     1      20.168   6.255  32.945  1.00  0.00    -0.267 OA
HETATM    2  N1  UNK     1      17.961   6.892  33.315  1.00  0.00    -0.345 N 
HETATM    3  N2  UNK     1      15.996   8.917  33.961  1.00  0.00    -0.363 N 
HETATM    4  C1  UNK     1      18.268   8.318  33.225  1.00  0.00     0.146 C 
HETATM    5  C2  UNK     1      16.559   6.549  33.567  1.00  0.00     0.146 C 
HETATM    6  C3  UNK     1      17.425   9.138  34.199  1.00  0.00     0.144 C 
HETATM    7  C4  UNK     1      15.593   7.696  33.261  1.00  0.00     0.144 C 
HETATM    8  C5  UNK     1      18.991   5.966  33.159  1.00  0.00     0.260 C 
ENDROOT
BRANCH   8   9
HETATM    9  C7  UNK     1      18.634   4.536  33.269  1.00  0.00     0.108 A 
HETATM   10  C11 UNK     1      18.314   3.712  32.081  1.00  0.00     0.304 A 
HETATM   11  O3  UNK     1      18.330   4.177  30.946  1.00  0.00    -0.259 OA
HETATM   12  O2  UNK     1      17.992   2.379  32.314  1.00  0.00    -0.274 OA
HETATM   13  C12 UNK     1      17.971   1.834  33.613  1.00  0.00     0.089 A 
HETATM   14  C10 UNK     1      18.274   2.626  34.716  1.00  0.00     0.000 A 
HETATM   15  C17 UNK     1      17.638   0.488  33.746  1.00  0.00     0.039 A 
HETATM   16  C9  UNK     1      18.615   4.025  34.505  1.00  0.00     0.037 A 
HETATM   17  C15 UNK     1      18.243   2.050  35.988  1.00  0.00     0.033 A 
HETATM   18  C18 UNK     1      17.910   0.701  36.137  1.00  0.00     0.011 A 
HETATM   19 Br1  UNK     1      17.867  -0.074  37.861  1.00  0.00    -0.051 Br
HETATM   20  C19 UNK     1      17.608  -0.078  35.018  1.00  0.00     0.022 A 
ENDBRANCH   8   9
BRANCH   3  21
HETATM   21  C6  UNK     1      15.060   9.876  34.337  1.00  0.00     0.125 A 
HETATM   22  N3  UNK     1      15.044  10.367  35.622  1.00  0.00    -0.244 NA
HETATM   23  C14 UNK     1      14.114  11.297  35.936  1.00  0.00     0.119 A 
HETATM   24  C16 UNK     1      13.175  11.787  35.042  1.00  0.00     0.019 A 
HETATM   25  C13 UNK     1      13.192  11.292  33.743  1.00  0.00     0.005 A 
HETATM   26  C8  UNK     1      14.133  10.333  33.382  1.00  0.00     0.050 A 
ENDBRANCH   3  21
TORSDOF 2
ENDMDL
MODEL 2
REMARK VINA RESULT:      -8.4     24.945     26.283
REMARK  2 active torsions:
REMARK  status: ('A' for Active; 'I' for Inactive)
REMARK       I    between atoms: C5_12  and  N1_5 
REMARK    1  A    between atoms: C6_13  and  N2_6 
REMARK    2  A    between atoms: C5_12  and  C7_14 
ROOT
HETATM    1  O1  UNK     1       9.664   5.619   6.917  1.00  0.00    -0.267 OA
HETATM    2  N1  UNK     1      11.012   7.039   8.175  1.00  0.00    -0.345 N 
HETATM    3  N2  UNK     1      13.545   8.363   8.631  1.00  0.00    -0.363 N 
HETATM    4  C1  UNK     1      12.019   7.155   7.122  1.00  0.00     0.146 C 
HETATM    5  C2  UNK     1      11.276   7.788   9.407  1.00  0.00     0.146 C 
HETATM    6  C3  UNK     1      13.430   7.237   7.700  1.00  0.00     0.144 C 
HETATM    7  C4  UNK     1      12.318   8.895   9.227  1.00  0.00     0.144 C 
HETATM    8  C5  UNK     1       9.887   6.247   7.952  1.00  0.00     0.260 C 
ENDROOT
BRANCH   8   9
HETATM    9  C7  UNK     1       8.902   6.152   9.050  1.00  0.00     0.108 A 
HETATM   10  C11 UNK     1       8.853   4.987   9.964  1.00  0.00     0.304 A 
HETATM   11  O3  UNK     1       9.630   4.045   9.855  1.00  0.00    -0.259 OA
HETATM   12  O2  UNK     1       7.879   5.013  10.958  1.00  0.00    -0.274 OA
HETATM   13  C12 UNK     1       6.983   6.091  11.093  1.00  0.00     0.089 A 
HETATM   14  C10 UNK     1       7.045   7.176  10.222  1.00  0.00     0.000 A 
HETATM   15  C17 UNK     1       6.043   6.028  12.119  1.00  0.00     0.039 A 
HETATM   16  C9  UNK     1       8.052   7.178   9.172  1.00  0.00     0.037 A 
HETATM   17  C15 UNK     1       6.138   8.225  10.388  1.00  0.00     0.033 A 
HETATM   18  C18 UNK     1       5.190   8.175  11.413  1.00  0.00     0.011 A 
HETATM   19 Br1  UNK     1       3.964   9.598  11.632  1.00  0.00    -0.051 Br
HETATM   20  C19 UNK     1       5.142   7.079  12.276  1.00  0.00     0.022 A 
ENDBRANCH   8   9
BRANCH   3  21
HETATM   21  C6  UNK     1      14.783   8.946   8.886  1.00  0.00     0.125 A 
HETATM   22  N3  UNK     1      15.109  10.161   8.329  1.00  0.00    -0.244 NA
HETATM   23  C14 UNK     1      16.324  10.683   8.608  1.00  0.00     0.119 A 
HETATM   24  C16 UNK     1      17.264  10.070   9.421  1.00  0.00     0.019 A 
HETATM   25  C13 UNK     1      16.934   8.842   9.986  1.00  0.00     0.005 A 
HETATM   26  C8  UNK     1      15.694   8.272   9.722  1.00  0.00     0.050 A 
ENDBRANCH   3  21
TORSDOF 2
ENDMDL
MODEL 3
REMARK VINA RESULT:      -8.3     24.712     26.039
REMARK  2 active torsions:
REMARK  status: ('A' for Active; 'I' for Inactive)
REMARK       I    between atoms: C5_12  and  N1_5 
REMARK    1  A    between atoms: C6_13  and  N2_6 
REMARK    2  A    between atoms: C5_12  and  C7_14 
ROOT
HETATM    1  O1  UNK     1      10.657   6.832   6.412  1.00  0.00    -0.267 OA
HETATM    2  N1  UNK     1       9.770   5.853   8.328  1.00  0.00    -0.345 N 
HETATM    3  N2  UNK     1       7.505   5.186  10.001  1.00  0.00    -0.363 N 
HETATM    4  C1  UNK     1       8.400   5.901   7.822  1.00  0.00     0.146 C 
HETATM    5  C2  UNK     1       9.945   5.272   9.662  1.00  0.00     0.146 C 
HETATM    6  C3  UNK     1       7.398   6.189   8.938  1.00  0.00     0.144 C 
HETATM    7  C4  UNK     1       8.751   4.427  10.113  1.00  0.00     0.144 C 
HETATM    8  C5  UNK     1      10.804   6.346   7.534  1.00  0.00     0.260 C 
ENDROOT
BRANCH   8   9
HETATM    9  C7  UNK     1      12.171   6.286   8.092  1.00  0.00     0.108 A 
HETATM   10  C11 UNK     1      12.876   5.001   8.306  1.00  0.00     0.304 A 
HETATM   11  O3  UNK     1      12.360   3.924   8.029  1.00  0.00    -0.259 OA
HETATM   12  O2  UNK     1      14.160   5.075   8.839  1.00  0.00    -0.274 OA
HETATM   13  C12 UNK     1      14.763   6.307   9.160  1.00  0.00     0.089 A 
HETATM   14  C10 UNK     1      14.082   7.502   8.952  1.00  0.00     0.000 A 
HETATM   15  C17 UNK     1      16.052   6.279   9.688  1.00  0.00     0.039 A 
HETATM   16  C9  UNK     1      12.738   7.459   8.396  1.00  0.00     0.037 A 
HETATM   17  C15 UNK     1      14.713   8.704   9.283  1.00  0.00     0.033 A 
HETATM   18  C18 UNK     1      16.006   8.691   9.813  1.00  0.00     0.011 A 
HETATM   19 Br1  UNK     1      16.855  10.320  10.261  1.00  0.00    -0.051 Br
HETATM   20  C19 UNK     1      16.673   7.482  10.016  1.00  0.00     0.022 A 
ENDBRANCH   8   9
BRANCH   3  21
HETATM   21  C6  UNK     1       6.423   4.925  10.838  1.00  0.00     0.125 A 
HETATM   22  N3  UNK     1       5.502   3.959  10.504  1.00  0.00    -0.244 NA
HETATM   23  C14 UNK     1       4.470   3.745  11.351  1.00  0.00     0.119 A 
HETATM   24  C16 UNK     1       4.281   4.439  12.535  1.00  0.00     0.019 A 
HETATM   25  C13 UNK     1       5.212   5.415  12.873  1.00  0.00     0.005 A 
HETATM   26  C8  UNK     1       6.288   5.665  12.027  1.00  0.00     0.050 A 
ENDBRANCH   3  21
TORSDOF 2
ENDMDL
MODEL 4
REMARK VINA RESULT:      -8.3      3.501      8.395
REMARK  2 active torsions:
REMARK  status: ('A' for Active; 'I' for Inactive)
REMARK       I    between atoms: C5_12  and  N1_5 
REMARK    1  A    between atoms: C6_13  and  N2_6 
REMARK    2  A    between atoms: C5_12  and  C7_14 
ROOT
HETATM    1  O1  UNK     1      18.627   5.799  30.511  1.00  0.00    -0.267 OA
HETATM    2  N1  UNK     1      18.422   4.617  32.505  1.00  0.00    -0.345 N 
HETATM    3  N2  UNK     1      18.163   2.116  33.938  1.00  0.00    -0.363 N 
HETATM    4  C1  UNK     1      18.733   3.335  31.876  1.00  0.00     0.146 C 
HETATM    5  C2  UNK     1      18.156   4.582  33.946  1.00  0.00     0.146 C 
HETATM    6  C3  UNK     1      17.926   2.195  32.494  1.00  0.00     0.144 C 
HETATM    7  C4  UNK     1      18.668   3.308  34.622  1.00  0.00     0.144 C 
HETATM    8  C5  UNK     1      18.401   5.769  31.720  1.00  0.00     0.260 C 
ENDROOT
BRANCH   8   9
HETATM    9  C7  UNK     1      18.072   7.040  32.398  1.00  0.00     0.108 A 
HETATM   10  C11 UNK     1      19.053   7.756  33.245  1.00  0.00     0.304 A 
HETATM   11  O3  UNK     1      20.188   7.329  33.424  1.00  0.00    -0.259 OA
HETATM   12  O2  UNK     1      18.624   8.944  33.830  1.00  0.00    -0.274 OA
HETATM   13  C12 UNK     1      17.323   9.444  33.630  1.00  0.00     0.089 A 
HETATM   14  C10 UNK     1      16.415   8.755  32.832  1.00  0.00     0.000 A 
HETATM   15  C17 UNK     1      16.985  10.642  34.258  1.00  0.00     0.039 A 
HETATM   16  C9  UNK     1      16.834   7.510  32.205  1.00  0.00     0.037 A 
HETATM   17  C15 UNK     1      15.134   9.283  32.657  1.00  0.00     0.033 A 
HETATM   18  C18 UNK     1      14.781  10.483  33.281  1.00  0.00     0.011 A 
HETATM   19 Br1  UNK     1      13.045  11.193  33.043  1.00  0.00    -0.051 Br
HETATM   20  C19 UNK     1      15.705  11.160  34.079  1.00  0.00     0.022 A 
ENDBRANCH   8   9
BRANCH   3  21
HETATM   21  C6  UNK     1      17.971   0.918  34.622  1.00  0.00     0.125 A 
HETATM   22  N3  UNK     1      19.038   0.262  35.190  1.00  0.00    -0.244 NA
HETATM   23  C14 UNK     1      18.798  -0.897  35.843  1.00  0.00     0.119 A 
HETATM   24  C16 UNK     1      17.541  -1.467  35.974  1.00  0.00     0.019 A 
HETATM   25  C13 UNK     1      16.462  -0.803  35.401  1.00  0.00     0.005 A 
HETATM   26  C8  UNK     1      16.670   0.392  34.721  1.00  0.00     0.050 A 
ENDBRANCH   3  21
TORSDOF 2
ENDMDL
MODEL 5
REMARK VINA RESULT:      -8.2      3.618      8.459
REMARK  2 active torsions:
REMARK  status: ('A' for Active; 'I' for Inactive)
REMARK       I    between atoms: C5_12  and  N1_5 
REMARK    1  A    between atoms: C6_13  and  N2_6 
REMARK    2  A    between atoms: C5_12  and  C7_14 
ROOT
HETATM    1  O1  UNK     1      17.842   6.981  30.331  1.00  0.00    -0.267 OA
HETATM    2  N1  UNK     1      17.787   5.524  32.144  1.00  0.00    -0.345 N 
HETATM    3  N2  UNK     1      18.242   2.904  33.287  1.00  0.00    -0.363 N 
HETATM    4  C1  UNK     1      18.630   4.531  31.481  1.00  0.00     0.146 C 
HETATM    5  C2  UNK     1      17.342   5.189  33.500  1.00  0.00     0.146 C 
HETATM    6  C3  UNK     1      18.209   3.107  31.836  1.00  0.00     0.144 C 
HETATM    7  C4  UNK     1      18.175   4.083  34.152  1.00  0.00     0.144 C 
HETATM    8  C5  UNK     1      17.466   6.700  31.469  1.00  0.00     0.260 C 
ENDROOT
BRANCH   8   9
HETATM    9  C7  UNK     1      16.603   7.669  32.176  1.00  0.00     0.108 A 
HETATM   10  C11 UNK     1      15.129   7.532  32.205  1.00  0.00     0.304 A 
HETATM   11  O3  UNK     1      14.552   6.607  31.644  1.00  0.00    -0.259 OA
HETATM   12  O2  UNK     1      14.424   8.508  32.904  1.00  0.00    -0.274 OA
HETATM   13  C12 UNK     1      15.077   9.575  33.553  1.00  0.00     0.089 A 
HETATM   14  C10 UNK     1      16.463   9.685  33.513  1.00  0.00     0.000 A 
HETATM   15  C17 UNK     1      14.287  10.503  34.228  1.00  0.00     0.039 A 
HETATM   16  C9  UNK     1      17.228   8.680  32.790  1.00  0.00     0.037 A 
HETATM   17  C15 UNK     1      17.074  10.757  34.169  1.00  0.00     0.033 A 
HETATM   18  C18 UNK     1      16.294  11.696  34.850  1.00  0.00     0.011 A 
HETATM   19 Br1  UNK     1      17.124  13.146  35.734  1.00  0.00    -0.051 Br
HETATM   20  C19 UNK     1      14.903  11.569  34.878  1.00  0.00     0.022 A 
ENDBRANCH   8   9
BRANCH   3  21
HETATM   21  C6  UNK     1      18.398   1.626  33.819  1.00  0.00     0.125 A 
HETATM   22  N3  UNK     1      18.495   0.534  32.989  1.00  0.00    -0.244 NA
HETATM   23  C14 UNK     1      18.646  -0.684  33.556  1.00  0.00     0.119 A 
HETATM   24  C16 UNK     1      18.708  -0.901  34.923  1.00  0.00     0.019 A 
HETATM   25  C13 UNK     1      18.611   0.204  35.763  1.00  0.00     0.005 A 
HETATM   26  C8  UNK     1      18.455   1.473  35.217  1.00  0.00     0.050 A 
ENDBRANCH   3  21
TORSDOF 2
ENDMDL
MODEL 6
REMARK VINA RESULT:      -8.1      8.432     11.081
REMARK  2 active torsions:
REMARK  status: ('A' for Active; 'I' for Inactive)
REMARK       I    between atoms: C5_12  and  N1_5 
REMARK    1  A    between atoms: C6_13  and  N2_6 
REMARK    2  A    between atoms: C5_12  and  C7_14 
ROOT
HETATM    1  O1  UNK     1      18.821  -2.399  37.749  1.00  0.00    -0.267 OA
HETATM    2  N1  UNK     1      19.559  -2.532  35.547  1.00  0.00    -0.345 N 
HETATM    3  N2  UNK     1      19.691  -1.456  32.863  1.00  0.00    -0.363 N 
HETATM    4  C1  UNK     1      19.215  -1.141  35.258  1.00  0.00     0.146 C 
HETATM    5  C2  UNK     1      20.150  -3.293  34.442  1.00  0.00     0.146 C 
HETATM    6  C3  UNK     1      18.701  -0.973  33.830  1.00  0.00     0.144 C 
HETATM    7  C4  UNK     1      20.705  -2.404  33.327  1.00  0.00     0.144 C 
HETATM    8  C5  UNK     1      19.315  -3.039  36.821  1.00  0.00     0.260 C 
ENDROOT
BRANCH   8   9
HETATM    9  C7  UNK     1      19.669  -4.454  37.063  1.00  0.00     0.108 A 
HETATM   10  C11 UNK     1      18.702  -5.554  36.846  1.00  0.00     0.304 A 
HETATM   11  O3  UNK     1      17.559  -5.345  36.455  1.00  0.00    -0.259 OA
HETATM   12  O2  UNK     1      19.154  -6.844  37.109  1.00  0.00    -0.274 OA
HETATM   13  C12 UNK     1      20.465  -7.096  37.558  1.00  0.00     0.089 A 
HETATM   14  C10 UNK     1      21.358  -6.047  37.756  1.00  0.00     0.000 A 
HETATM   15  C17 UNK     1      20.826  -8.421  37.794  1.00  0.00     0.039 A 
HETATM   16  C9  UNK     1      20.915  -4.687  37.490  1.00  0.00     0.037 A 
HETATM   17  C15 UNK     1      22.650  -6.337  38.202  1.00  0.00     0.033 A 
HETATM   18  C18 UNK     1      23.026  -7.661  38.443  1.00  0.00     0.011 A 
HETATM   19 Br1  UNK     1      24.775  -8.048  39.048  1.00  0.00    -0.051 Br
HETATM   20  C19 UNK     1      22.116  -8.700  38.240  1.00  0.00     0.022 A 
ENDBRANCH   8   9
BRANCH   3  21
HETATM   21  C6  UNK     1      19.698  -0.973  31.557  1.00  0.00     0.125 A 
HETATM   22  N3  UNK     1      19.129   0.244  31.262  1.00  0.00    -0.244 NA
HETATM   23  C14 UNK     1      19.163   0.667  29.979  1.00  0.00     0.119 A 
HETATM   24  C16 UNK     1      19.734  -0.050  28.940  1.00  0.00     0.019 A 
HETATM   25  C13 UNK     1      20.310  -1.281  29.238  1.00  0.00     0.005 A 
HETATM   26  C8  UNK     1      20.295  -1.750  30.547  1.00  0.00     0.050 A 
ENDBRANCH   3  21
TORSDOF 2
ENDMDL
MODEL 7
REMARK VINA RESULT:      -8.1     24.540     26.045
REMARK  2 active torsions:
REMARK  status: ('A' for Active; 'I' for Inactive)
REMARK       I    between atoms: C5_12  and  N1_5 
REMARK    1  A    between atoms: C6_13  and  N2_6 
REMARK    2  A    between atoms: C5_12  and  C7_14 
ROOT
HETATM    1  O1  UNK     1       6.504   8.066   9.120  1.00  0.00    -0.267 OA
HETATM    2  N1  UNK     1       6.688   6.117  10.377  1.00  0.00    -0.345 N 
HETATM    3  N2  UNK     1       5.826   4.444  12.576  1.00  0.00    -0.363 N 
HETATM    4  C1  UNK     1       5.403   6.323  11.042  1.00  0.00     0.146 C 
HETATM    5  C2  UNK     1       7.425   4.909  10.758  1.00  0.00     0.146 C 
HETATM    6  C3  UNK     1       5.440   5.856  12.496  1.00  0.00     0.144 C 
HETATM    7  C4  UNK     1       6.548   3.859  11.446  1.00  0.00     0.144 C 
HETATM    8  C5  UNK     1       7.125   7.053   9.442  1.00  0.00     0.260 C 
ENDROOT
BRANCH   8   9
HETATM    9  C7  UNK     1       8.434   6.807   8.803  1.00  0.00     0.108 A 
HETATM   10  C11 UNK     1       8.634   5.726   7.811  1.00  0.00     0.304 A 
HETATM   11  O3  UNK     1       7.721   4.983   7.470  1.00  0.00    -0.259 OA
HETATM   12  O2  UNK     1       9.914   5.594   7.281  1.00  0.00    -0.274 OA
HETATM   13  C12 UNK     1      10.970   6.443   7.664  1.00  0.00     0.089 A 
HETATM   14  C10 UNK     1      10.761   7.453   8.600  1.00  0.00     0.000 A 
HETATM   15  C17 UNK     1      12.216   6.234   7.078  1.00  0.00     0.039 A 
HETATM   16  C9  UNK     1       9.434   7.617   9.172  1.00  0.00     0.037 A 
HETATM   17  C15 UNK     1      11.833   8.275   8.955  1.00  0.00     0.033 A 
HETATM   18  C18 UNK     1      13.089   8.076   8.374  1.00  0.00     0.011 A 
HETATM   19 Br1  UNK     1      14.538   9.191   8.860  1.00  0.00    -0.051 Br
HETATM   20  C19 UNK     1      13.280   7.058   7.438  1.00  0.00     0.022 A 
ENDBRANCH   8   9
BRANCH   3  21
HETATM   21  C6  UNK     1       5.455   3.672  13.674  1.00  0.00     0.125 A 
HETATM   22  N3  UNK     1       6.183   3.726  14.841  1.00  0.00    -0.244 NA
HETATM   23  C14 UNK     1       5.782   2.956  15.877  1.00  0.00     0.119 A 
HETATM   24  C16 UNK     1       4.681   2.115  15.837  1.00  0.00     0.019 A 
HETATM   25  C13 UNK     1       3.945   2.061  14.659  1.00  0.00     0.005 A 
HETATM   26  C8  UNK     1       4.327   2.838  13.570  1.00  0.00     0.050 A 
ENDBRANCH   3  21
TORSDOF 2
ENDMDL
MODEL 8
REMARK VINA RESULT:      -8.1     25.386     27.127
REMARK  2 active torsions:
REMARK  status: ('A' for Active; 'I' for Inactive)
REMARK       I    between atoms: C5_12  and  N1_5 
REMARK    1  A    between atoms: C6_13  and  N2_6 
REMARK    2  A    between atoms: C5_12  and  C7_14 
ROOT
HETATM    1  O1  UNK     1      17.678   8.419  10.150  1.00  0.00    -0.267 OA
HETATM    2  N1  UNK     1      15.503   8.733   9.386  1.00  0.00    -0.345 N 
HETATM    3  N2  UNK     1      12.933   7.668   8.587  1.00  0.00    -0.363 N 
HETATM    4  C1  UNK     1      15.097   7.370   9.724  1.00  0.00     0.146 C 
HETATM    5  C2  UNK     1      14.470   9.585   8.789  1.00  0.00     0.146 C 
HETATM    6  C3  UNK     1      14.113   6.807   8.700  1.00  0.00     0.144 C 
HETATM    7  C4  UNK     1      13.050   9.062   9.019  1.00  0.00     0.144 C 
HETATM    8  C5  UNK     1      16.812   9.134   9.647  1.00  0.00     0.260 C 
ENDROOT
BRANCH   8   9
HETATM    9  C7  UNK     1      17.179  10.518   9.279  1.00  0.00     0.108 A 
HETATM   10  C11 UNK     1      16.866  11.672  10.152  1.00  0.00     0.304 A 
HETATM   11  O3  UNK     1      16.288  11.536  11.224  1.00  0.00    -0.259 OA
HETATM   12  O2  UNK     1      17.262  12.926   9.696  1.00  0.00    -0.274 OA
HETATM   13  C12 UNK     1      17.929  13.094   8.466  1.00  0.00     0.089 A 
HETATM   14  C10 UNK     1      18.212  11.995   7.660  1.00  0.00     0.000 A 
HETATM   15  C17 UNK     1      18.287  14.388   8.094  1.00  0.00     0.039 A 
HETATM   16  C9  UNK     1      17.811  10.671   8.110  1.00  0.00     0.037 A 
HETATM   17  C15 UNK     1      18.874  12.202   6.447  1.00  0.00     0.033 A 
HETATM   18  C18 UNK     1      19.239  13.495   6.062  1.00  0.00     0.011 A 
HETATM   19 Br1  UNK     1      20.134  13.770   4.418  1.00  0.00    -0.051 Br
HETATM   20  C19 UNK     1      18.945  14.585   6.883  1.00  0.00     0.022 A 
ENDBRANCH   8   9
BRANCH   3  21
HETATM   21  C6  UNK     1      11.720   7.151   8.139  1.00  0.00     0.125 A 
HETATM   22  N3  UNK     1      10.698   6.907   9.026  1.00  0.00    -0.244 NA
HETATM   23  C14 UNK     1       9.541   6.404   8.540  1.00  0.00     0.119 A 
HETATM   24  C16 UNK     1       9.321   6.118   7.201  1.00  0.00     0.019 A 
HETATM   25  C13 UNK     1      10.354   6.366   6.304  1.00  0.00     0.005 A 
HETATM   26  C8  UNK     1      11.560   6.883   6.767  1.00  0.00     0.050 A 
ENDBRANCH   3  21
TORSDOF 2
ENDMDL
MODEL 9
REMARK VINA RESULT:      -8.0     20.331     22.658
REMARK  2 active torsions:
REMARK  status: ('A' for Active; 'I' for Inactive)
REMARK       I    between atoms: C5_12  and  N1_5 
REMARK    1  A    between atoms: C6_13  and  N2_6 
REMARK    2  A    between atoms: C5_12  and  C7_14 
ROOT
HETATM    1  O1  UNK     1      17.056  -5.868  14.055  1.00  0.00    -0.267 OA
HETATM    2  N1  UNK     1      18.415  -4.167  14.875  1.00  0.00    -0.345 N 
HETATM    3  N2  UNK     1      18.773  -1.765  16.450  1.00  0.00    -0.363 N 
HETATM    4  C1  UNK     1      17.433  -3.748  15.873  1.00  0.00     0.146 C 
HETATM    5  C2  UNK     1      19.671  -3.411  14.849  1.00  0.00     0.146 C 
HETATM    6  C3  UNK     1      17.438  -2.233  16.067  1.00  0.00     0.144 C 
HETATM    7  C4  UNK     1      19.922  -2.615  16.132  1.00  0.00     0.144 C 
HETATM    8  C5  UNK     1      18.110  -5.233  14.031  1.00  0.00     0.260 C 
ENDROOT
BRANCH   8   9
HETATM    9  C7  UNK     1      19.130  -5.613  13.031  1.00  0.00     0.108 A 
HETATM   10  C11 UNK     1      19.274  -4.896  11.744  1.00  0.00     0.304 A 
HETATM   11  O3  UNK     1      18.554  -3.949  11.445  1.00  0.00    -0.259 OA
HETATM   12  O2  UNK     1      20.271  -5.349  10.885  1.00  0.00    -0.274 OA
HETATM   13  C12 UNK     1      21.105  -6.434  11.219  1.00  0.00     0.089 A 
HETATM   14  C10 UNK     1      20.952  -7.095  12.434  1.00  0.00     0.000 A 
HETATM   15  C17 UNK     1      22.075  -6.814  10.294  1.00  0.00     0.039 A 
HETATM   16  C9  UNK     1      19.918  -6.645  13.354  1.00  0.00     0.037 A 
HETATM   17  C15 UNK     1      21.797  -8.167  12.729  1.00  0.00     0.033 A 
HETATM   18  C18 UNK     1      22.775  -8.559  11.811  1.00  0.00     0.011 A 
HETATM   19 Br1  UNK     1      23.916 -10.012  12.214  1.00  0.00    -0.051 Br
HETATM   20  C19 UNK     1      22.913  -7.885  10.596  1.00  0.00     0.022 A 
ENDBRANCH   8   9
BRANCH   3  21
HETATM   21  C6  UNK     1      18.930  -0.572  17.152  1.00  0.00     0.125 A 
HETATM   22  N3  UNK     1      19.046   0.622  16.480  1.00  0.00    -0.244 NA
HETATM   23  C14 UNK     1      19.196   1.750  17.208  1.00  0.00     0.119 A 
HETATM   24  C16 UNK     1      19.241   1.779  18.594  1.00  0.00     0.019 A 
HETATM   25  C13 UNK     1      19.123   0.571  19.274  1.00  0.00     0.005 A 
HETATM   26  C8  UNK     1      18.967  -0.611  18.558  1.00  0.00     0.050 A 
ENDBRANCH   3  21
TORSDOF 2
ENDMDL
MODEL 10
REMARK VINA RESULT:      -8.0      8.564     13.722
REMARK  2 active torsions:
REMARK  status: ('A' for Active; 'I' for Inactive)
REMARK       I    between atoms: C5_12  and  N1_5 
REMARK    1  A    between atoms: C6_13  and  N2_6 
REMARK    2  A    between atoms: C5_12  and  C7_14 
ROOT
HETATM    1  O1  UNK     1      20.175  -2.632  38.209  1.00  0.00    -0.267 OA
HETATM    2  N1  UNK     1      20.071  -4.540  36.881  1.00  0.00    -0.345 N 
HETATM    3  N2  UNK     1      20.692  -7.330  36.423  1.00  0.00    -0.363 N 
HETATM    4  C1  UNK     1      20.492  -5.422  37.967  1.00  0.00     0.146 C 
HETATM    5  C2  UNK     1      19.802  -5.186  35.593  1.00  0.00     0.146 C 
HETATM    6  C3  UNK     1      21.381  -6.556  37.459  1.00  0.00     0.144 C 
HETATM    7  C4  UNK     1      19.582  -6.696  35.710  1.00  0.00     0.144 C 
HETATM    8  C5  UNK     1      19.951  -3.174  37.126  1.00  0.00     0.260 C 
ENDROOT
BRANCH   8   9
HETATM    9  C7  UNK     1      19.532  -2.320  35.995  1.00  0.00     0.108 A 
HETATM   10  C11 UNK     1      18.511  -1.259  36.147  1.00  0.00     0.304 A 
HETATM   11  O3  UNK     1      17.963  -1.036  37.221  1.00  0.00    -0.259 OA
HETATM   12  O2  UNK     1      18.201  -0.522  35.008  1.00  0.00    -0.274 OA
HETATM   13  C12 UNK     1      18.825  -0.769  33.769  1.00  0.00     0.089 A 
HETATM   14  C10 UNK     1      19.782  -1.772  33.648  1.00  0.00     0.000 A 
HETATM   15  C17 UNK     1      18.450   0.022  32.685  1.00  0.00     0.039 A 
HETATM   16  C9  UNK     1      20.128  -2.560  34.821  1.00  0.00     0.037 A 
HETATM   17  C15 UNK     1      20.379  -1.987  32.403  1.00  0.00     0.033 A 
HETATM   18  C18 UNK     1      20.012  -1.201  31.307  1.00  0.00     0.011 A 
HETATM   19 Br1  UNK     1      20.822  -1.497  29.624  1.00  0.00    -0.051 Br
HETATM   20  C19 UNK     1      19.049  -0.200  31.448  1.00  0.00     0.022 A 
ENDBRANCH   8   9
BRANCH   3  21
HETATM   21  C6  UNK     1      21.049  -8.652  36.173  1.00  0.00     0.125 A 
HETATM   22  N3  UNK     1      21.556  -9.017  34.948  1.00  0.00    -0.244 NA
HETATM   23  C14 UNK     1      21.887 -10.314  34.757  1.00  0.00     0.119 A 
HETATM   24  C16 UNK     1      21.747 -11.300  35.721  1.00  0.00     0.019 A 
HETATM   25  C13 UNK     1      21.235 -10.931  36.960  1.00  0.00     0.005 A 
HETATM   26  C8  UNK     1      20.883  -9.606  37.194  1.00  0.00     0.050 A 
ENDBRANCH   3  21
TORSDOF 2
ENDMDL
