MODEL 1
REMARK VINA RESULT:      -8.8      0.000      0.000
REMARK  7 active torsions:
REMARK  status: ('A' for Active; 'I' for Inactive)
REMARK    1  A    between atoms: C5_11  and  N1_4 
REMARK    2  A    between atoms: C6_12  and  N2_5 
REMARK    3  A    between atoms: C13_19  and  N3_6 
REMARK    4  A    between atoms: C15_21  and  N3_6 
REMARK       I    between atoms: C8_14  and  N3_6 
REMARK    5  A    between atoms: C5_11  and  C7_13 
REMARK    6  A    between atoms: C6_12  and  C8_14 
REMARK    7  A    between atoms: C14_20  and  C19_25 
ROOT
HETATM    1  N1  UNK     1      18.640   2.944  30.994  1.00  0.00     0.096 N 
HETATM    2  N2  UNK     1      18.496   5.743  31.705  1.00  0.00     0.100 N 
HETATM    3  C1  UNK     1      17.849   3.400  32.144  1.00  0.00     0.303 C 
HETATM    4  C2  UNK     1      18.709   3.995  29.971  1.00  0.00     0.303 C 
HETATM    5  C3  UNK     1      18.429   4.692  32.728  1.00  0.00     0.303 C 
HETATM    6  C4  UNK     1      19.287   5.289  30.554  1.00  0.00     0.303 C 
ENDROOT
BRANCH   1   7
HETATM    7  C5  UNK     1      18.085   1.713  30.437  1.00  0.00     0.312 C 
BRANCH   7   8
HETATM    8  C7  UNK     1      19.091   0.618  30.381  1.00  0.00    -0.011 A 
HETATM    9  C10 UNK     1      19.842   0.423  29.288  1.00  0.00     0.092 A 
HETATM   10  C16 UNK     1      20.851  -0.646  29.185  1.00  0.00     0.288 A 
HETATM   11  O1  UNK     1      21.002  -1.468  30.290  1.00  0.00    -0.275 OA
HETATM   12  O3  UNK     1      21.520  -0.792  28.168  1.00  0.00    -0.260 OA
HETATM   13  C11 UNK     1      20.227  -1.287  31.454  1.00  0.00     0.090 A 
HETATM   14  C9  UNK     1      19.275  -0.270  31.537  1.00  0.00     0.007 A 
HETATM   15  C17 UNK     1      20.464  -2.174  32.506  1.00  0.00     0.039 A 
HETATM   16  C12 UNK     1      18.545  -0.159  32.728  1.00  0.00     0.022 A 
HETATM   17  C14 UNK     1      18.772  -1.040  33.791  1.00  0.00    -0.058 A 
HETATM   18  C18 UNK     1      19.730  -2.047  33.680  1.00  0.00     0.010 A 
BRANCH  17  19
HETATM   19  C19 UNK     1      17.983  -0.902  35.050  1.00  0.00     0.034 C 
HETATM   20  C24 UNK     1      16.715  -0.076  34.853  1.00  0.00     0.010 C 
ENDBRANCH  17  19
ENDBRANCH   7   8
ENDBRANCH   1   7
BRANCH   2  21
HETATM   21  C6  UNK     1      19.050   6.976  32.262  1.00  0.00     0.375 C 
BRANCH  21  22
HETATM   22  C8  UNK     1      17.915   7.937  32.593  1.00  0.00     0.252 C 
HETATM   23  O2  UNK     1      17.019   8.137  31.769  1.00  0.00    -0.271 OA
HETATM   24  N3  UNK     1      18.008   8.577  33.852  1.00  0.00    -0.317 N 
BRANCH  24  25
HETATM   25  C13 UNK     1      19.103   8.298  34.794  1.00  0.00     0.128 C 
HETATM   26  C20 UNK     1      20.278   9.226  34.570  1.00  0.00     0.027 C 
ENDBRANCH  24  25
BRANCH  24  27
HETATM   27  C15 UNK     1      17.079   9.622  34.232  1.00  0.00     0.037 A 
HETATM   28  C21 UNK     1      17.412  10.961  34.025  1.00  0.00     0.036 A 
HETATM   29  C23 UNK     1      16.517  11.967  34.390  1.00  0.00    -0.060 A 
HETATM   30  C26 UNK     1      15.289  11.634  34.962  1.00  0.00     0.007 A 
HETATM   31  C27 UNK     1      16.874  13.398  34.171  1.00  0.00     0.048 C 
HETATM   32  C25 UNK     1      14.955  10.295  35.167  1.00  0.00     0.003 A 
HETATM   33  C22 UNK     1      15.850   9.290  34.803  1.00  0.00     0.030 A 
ENDBRANCH  24  27
ENDBRANCH  21  22
ENDBRANCH   2  21
TORSDOF 7
ENDMDL
MODEL 2
REMARK VINA RESULT:      -8.6     12.952     17.244
REMARK  7 active torsions:
REMARK  status: ('A' for Active; 'I' for Inactive)
REMARK    1  A    between atoms: C5_11  and  N1_4 
REMARK    2  A    between atoms: C6_12  and  N2_5 
REMARK    3  A    between atoms: C13_19  and  N3_6 
REMARK    4  A    between atoms: C15_21  and  N3_6 
REMARK       I    between atoms: C8_14  and  N3_6 
REMARK    5  A    between atoms: C5_11  and  C7_13 
REMARK    6  A    between atoms: C6_12  and  C8_14 
REMARK    7  A    between atoms: C14_20  and  C19_25 
ROOT
HETATM    1  N1  UNK     1      29.572  -8.683  37.599  1.00  0.00     0.096 N 
HETATM    2  N2  UNK     1      26.698  -8.861  37.332  1.00  0.00     0.100 N 
HETATM    3  C1  UNK     1      28.843  -7.854  36.631  1.00  0.00     0.303 C 
HETATM    4  C2  UNK     1      28.717  -8.998  38.751  1.00  0.00     0.303 C 
HETATM    5  C3  UNK     1      27.553  -8.548  36.180  1.00  0.00     0.303 C 
HETATM    6  C4  UNK     1      27.427  -9.691  38.300  1.00  0.00     0.303 C 
ENDROOT
BRANCH   1   7
HETATM    7  C5  UNK     1      30.800  -8.019  38.030  1.00  0.00     0.312 C 
BRANCH   7   8
HETATM    8  C7  UNK     1      30.671  -6.536  38.017  1.00  0.00    -0.011 A 
HETATM    9  C10 UNK     1      29.808  -5.908  38.830  1.00  0.00     0.092 A 
HETATM   10  C16 UNK     1      29.645  -4.445  38.854  1.00  0.00     0.288 A 
HETATM   11  O1  UNK     1      30.438  -3.715  37.982  1.00  0.00    -0.275 OA
HETATM   12  O3  UNK     1      28.846  -3.907  39.613  1.00  0.00    -0.260 OA
HETATM   13  C11 UNK     1      31.354  -4.347  37.116  1.00  0.00     0.090 A 
HETATM   14  C9  UNK     1      31.497  -5.735  37.104  1.00  0.00     0.007 A 
HETATM   15  C17 UNK     1      32.100  -3.513  36.280  1.00  0.00     0.039 A 
HETATM   16  C12 UNK     1      32.428  -6.284  36.213  1.00  0.00     0.022 A 
HETATM   17  C14 UNK     1      33.184  -5.461  35.370  1.00  0.00    -0.058 A 
HETATM   18  C18 UNK     1      33.019  -4.077  35.403  1.00  0.00     0.010 A 
BRANCH  17  19
HETATM   19  C19 UNK     1      34.170  -6.069  34.429  1.00  0.00     0.034 C 
HETATM   20  C24 UNK     1      35.526  -6.310  35.085  1.00  0.00     0.010 C 
ENDBRANCH  17  19
ENDBRANCH   7   8
ENDBRANCH   1   7
BRANCH   2  21
HETATM   21  C6  UNK     1      25.468  -9.524  36.902  1.00  0.00     0.375 C 
BRANCH  21  22
HETATM   22  C8  UNK     1      24.265  -8.732  37.396  1.00  0.00     0.252 C 
HETATM   23  O2  UNK     1      24.430  -7.780  38.163  1.00  0.00    -0.271 OA
HETATM   24  N3  UNK     1      23.006  -9.196  36.949  1.00  0.00    -0.317 N 
BRANCH  24  25
HETATM   25  C13 UNK     1      22.872 -10.339  36.033  1.00  0.00     0.128 C 
HETATM   26  C20 UNK     1      21.756 -10.121  35.033  1.00  0.00     0.027 C 
ENDBRANCH  24  25
BRANCH  24  27
HETATM   27  C15 UNK     1      21.774  -8.628  37.459  1.00  0.00     0.037 A 
HETATM   28  C21 UNK     1      21.237  -7.483  36.871  1.00  0.00     0.036 A 
HETATM   29  C23 UNK     1      20.051  -6.936  37.361  1.00  0.00    -0.060 A 
HETATM   30  C26 UNK     1      19.401  -7.536  38.440  1.00  0.00     0.007 A 
HETATM   31  C27 UNK     1      19.478  -5.711  36.732  1.00  0.00     0.048 C 
HETATM   32  C25 UNK     1      19.937  -8.682  39.027  1.00  0.00     0.003 A 
HETATM   33  C22 UNK     1      21.123  -9.227  38.538  1.00  0.00     0.030 A 
ENDBRANCH  24  27
ENDBRANCH  21  22
ENDBRANCH   2  21
TORSDOF 7
ENDMDL
MODEL 3
REMARK VINA RESULT:      -8.6     13.470     16.716
REMARK  7 active torsions:
REMARK  status: ('A' for Active; 'I' for Inactive)
REMARK    1  A    between atoms: C5_11  and  N1_4 
REMARK    2  A    between atoms: C6_12  and  N2_5 
REMARK    3  A    between atoms: C13_19  and  N3_6 
REMARK    4  A    between atoms: C15_21  and  N3_6 
REMARK       I    between atoms: C8_14  and  N3_6 
REMARK    5  A    between atoms: C5_11  and  C7_13 
REMARK    6  A    between atoms: C6_12  and  C8_14 
REMARK    7  A    between atoms: C14_20  and  C19_25 
ROOT
HETATM    1  N1  UNK     1      25.442  -8.289  38.491  1.00  0.00     0.096 N 
HETATM    2  N2  UNK     1      28.321  -8.450  38.281  1.00  0.00     0.100 N 
HETATM    3  C1  UNK     1      26.183  -9.438  39.025  1.00  0.00     0.303 C 
HETATM    4  C2  UNK     1      26.278  -7.082  38.521  1.00  0.00     0.303 C 
HETATM    5  C3  UNK     1      27.486  -9.657  38.249  1.00  0.00     0.303 C 
HETATM    6  C4  UNK     1      27.582  -7.300  37.746  1.00  0.00     0.303 C 
ENDROOT
BRANCH   1   7
HETATM    7  C5  UNK     1      24.201  -8.080  39.234  1.00  0.00     0.312 C 
BRANCH   7   8
HETATM    8  C7  UNK     1      23.084  -7.647  38.350  1.00  0.00    -0.011 A 
HETATM    9  C10 UNK     1      22.455  -6.481  38.551  1.00  0.00     0.092 A 
HETATM   10  C16 UNK     1      21.346  -6.009  37.705  1.00  0.00     0.288 A 
HETATM   11  O1  UNK     1      20.963  -6.837  36.661  1.00  0.00    -0.275 OA
HETATM   12  O3  UNK     1      20.795  -4.934  37.919  1.00  0.00    -0.260 OA
HETATM   13  C11 UNK     1      21.606  -8.069  36.425  1.00  0.00     0.090 A 
HETATM   14  C9  UNK     1      22.656  -8.502  37.236  1.00  0.00     0.007 A 
HETATM   15  C17 UNK     1      21.137  -8.821  35.346  1.00  0.00     0.039 A 
HETATM   16  C12 UNK     1      23.240  -9.740  36.935  1.00  0.00     0.022 A 
HETATM   17  C14 UNK     1      22.782 -10.505  35.856  1.00  0.00    -0.058 A 
HETATM   18  C18 UNK     1      21.731 -10.046  35.063  1.00  0.00     0.010 A 
BRANCH  17  19
HETATM   19  C19 UNK     1      23.420 -11.819  35.554  1.00  0.00     0.034 C 
HETATM   20  C24 UNK     1      24.854 -11.901  36.071  1.00  0.00     0.010 C 
ENDBRANCH  17  19
ENDBRANCH   7   8
ENDBRANCH   1   7
BRANCH   2  21
HETATM   21  C6  UNK     1      29.564  -8.659  37.540  1.00  0.00     0.375 C 
BRANCH  21  22
HETATM   22  C8  UNK     1      30.414  -7.397  37.610  1.00  0.00     0.252 C 
HETATM   23  O2  UNK     1      30.788  -6.967  38.704  1.00  0.00    -0.271 OA
HETATM   24  N3  UNK     1      30.682  -6.775  36.367  1.00  0.00    -0.317 N 
BRANCH  24  25
HETATM   25  C13 UNK     1      30.209  -7.335  35.092  1.00  0.00     0.128 C 
HETATM   26  C20 UNK     1      29.140  -6.463  34.466  1.00  0.00     0.027 C 
ENDBRANCH  24  25
BRANCH  24  27
HETATM   27  C15 UNK     1      31.352  -5.491  36.301  1.00  0.00     0.037 A 
HETATM   28  C21 UNK     1      32.526  -5.354  35.559  1.00  0.00     0.036 A 
HETATM   29  C23 UNK     1      33.170  -4.119  35.494  1.00  0.00    -0.060 A 
HETATM   30  C26 UNK     1      32.641  -3.020  36.172  1.00  0.00     0.007 A 
HETATM   31  C27 UNK     1      34.425  -3.973  34.702  1.00  0.00     0.048 C 
HETATM   32  C25 UNK     1      31.467  -3.157  36.912  1.00  0.00     0.003 A 
HETATM   33  C22 UNK     1      30.823  -4.392  36.977  1.00  0.00     0.030 A 
ENDBRANCH  24  27
ENDBRANCH  21  22
ENDBRANCH   2  21
TORSDOF 7
ENDMDL
MODEL 4
REMARK VINA RESULT:      -8.5      5.507     12.605
REMARK  7 active torsions:
REMARK  status: ('A' for Active; 'I' for Inactive)
REMARK    1  A    between atoms: C5_11  and  N1_4 
REMARK    2  A    between atoms: C6_12  and  N2_5 
REMARK    3  A    between atoms: C13_19  and  N3_6 
REMARK    4  A    between atoms: C15_21  and  N3_6 
REMARK       I    between atoms: C8_14  and  N3_6 
REMARK    5  A    between atoms: C5_11  and  C7_13 
REMARK    6  A    between atoms: C6_12  and  C8_14 
REMARK    7  A    between atoms: C14_20  and  C19_25 
ROOT
HETATM    1  N1  UNK     1      18.914  -0.776  35.290  1.00  0.00     0.096 N 
HETATM    2  N2  UNK     1      19.449  -3.310  36.576  1.00  0.00     0.100 N 
HETATM    3  C1  UNK     1      19.415  -1.927  34.529  1.00  0.00     0.303 C 
HETATM    4  C2  UNK     1      18.124  -1.228  36.442  1.00  0.00     0.303 C 
HETATM    5  C3  UNK     1      20.240  -2.857  35.424  1.00  0.00     0.303 C 
HETATM    6  C4  UNK     1      18.948  -2.159  37.338  1.00  0.00     0.303 C 
ENDROOT
BRANCH   1   7
HETATM    7  C5  UNK     1      18.125   0.108  34.435  1.00  0.00     0.312 C 
BRANCH   7   8
HETATM    8  C7  UNK     1      18.614   0.113  33.028  1.00  0.00    -0.011 A 
HETATM    9  C10 UNK     1      19.050  -1.012  32.443  1.00  0.00     0.092 A 
HETATM   10  C16 UNK     1      19.542  -1.058  31.056  1.00  0.00     0.288 A 
HETATM   11  O1  UNK     1      19.538   0.137  30.354  1.00  0.00    -0.275 OA
HETATM   12  O3  UNK     1      19.931  -2.107  30.555  1.00  0.00    -0.260 OA
HETATM   13  C11 UNK     1      19.085   1.335  30.942  1.00  0.00     0.090 A 
HETATM   14  C9  UNK     1      18.622   1.363  32.258  1.00  0.00     0.007 A 
HETATM   15  C17 UNK     1      19.127   2.478  30.141  1.00  0.00     0.039 A 
HETATM   16  C12 UNK     1      18.191   2.595  32.769  1.00  0.00     0.022 A 
HETATM   17  C14 UNK     1      18.226   3.749  31.978  1.00  0.00    -0.058 A 
HETATM   18  C18 UNK     1      18.694   3.691  30.666  1.00  0.00     0.010 A 
BRANCH  17  19
HETATM   19  C19 UNK     1      17.761   5.050  32.543  1.00  0.00     0.034 C 
HETATM   20  C24 UNK     1      18.485   6.243  31.925  1.00  0.00     0.010 C 
ENDBRANCH  17  19
ENDBRANCH   7   8
ENDBRANCH   1   7
BRANCH   2  21
HETATM   21  C6  UNK     1      20.237  -4.196  37.431  1.00  0.00     0.375 C 
BRANCH  21  22
HETATM   22  C8  UNK     1      19.889  -5.645  37.117  1.00  0.00     0.252 C 
HETATM   23  O2  UNK     1      18.846  -5.909  36.513  1.00  0.00    -0.271 OA
HETATM   24  N3  UNK     1      20.806  -6.609  37.597  1.00  0.00    -0.317 N 
BRANCH  24  25
HETATM   25  C13 UNK     1      22.035  -6.233  38.313  1.00  0.00     0.128 C 
HETATM   26  C20 UNK     1      22.205  -7.037  39.585  1.00  0.00     0.027 C 
ENDBRANCH  24  25
BRANCH  24  27
HETATM   27  C15 UNK     1      20.524  -8.027  37.498  1.00  0.00     0.037 A 
HETATM   28  C21 UNK     1      21.214  -8.813  36.575  1.00  0.00     0.036 A 
HETATM   29  C23 UNK     1      20.943 -10.178  36.479  1.00  0.00    -0.060 A 
HETATM   30  C26 UNK     1      19.982 -10.758  37.307  1.00  0.00     0.007 A 
HETATM   31  C27 UNK     1      21.680 -11.017  35.491  1.00  0.00     0.048 C 
HETATM   32  C25 UNK     1      19.293  -9.972  38.231  1.00  0.00     0.003 A 
HETATM   33  C22 UNK     1      19.563  -8.607  38.326  1.00  0.00     0.030 A 
ENDBRANCH  24  27
ENDBRANCH  21  22
ENDBRANCH   2  21
TORSDOF 7
ENDMDL
MODEL 5
REMARK VINA RESULT:      -8.5     14.274     18.025
REMARK  7 active torsions:
REMARK  status: ('A' for Active; 'I' for Inactive)
REMARK    1  A    between atoms: C5_11  and  N1_4 
REMARK    2  A    between atoms: C6_12  and  N2_5 
REMARK    3  A    between atoms: C13_19  and  N3_6 
REMARK    4  A    between atoms: C15_21  and  N3_6 
REMARK       I    between atoms: C8_14  and  N3_6 
REMARK    5  A    between atoms: C5_11  and  C7_13 
REMARK    6  A    between atoms: C6_12  and  C8_14 
REMARK    7  A    between atoms: C14_20  and  C19_25 
ROOT
HETATM    1  N1  UNK     1      26.740  -9.313  37.574  1.00  0.00     0.096 N 
HETATM    2  N2  UNK     1      29.568  -9.005  38.091  1.00  0.00     0.100 N 
HETATM    3  C1  UNK     1      27.281  -9.409  38.935  1.00  0.00     0.303 C 
HETATM    4  C2  UNK     1      27.574  -8.427  36.752  1.00  0.00     0.303 C 
HETATM    5  C3  UNK     1      28.735  -9.894  38.912  1.00  0.00     0.303 C 
HETATM    6  C4  UNK     1      29.028  -8.909  36.729  1.00  0.00     0.303 C 
ENDROOT
BRANCH   1   7
HETATM    7  C5  UNK     1      25.355  -8.849  37.597  1.00  0.00     0.312 C 
BRANCH   7   8
HETATM    8  C7  UNK     1      24.445  -9.758  36.848  1.00  0.00    -0.011 A 
HETATM    9  C10 UNK     1      24.899 -10.895  36.301  1.00  0.00     0.092 A 
HETATM   10  C16 UNK     1      24.038 -11.827  35.552  1.00  0.00     0.288 A 
HETATM   11  O1  UNK     1      22.702 -11.478  35.429  1.00  0.00    -0.275 OA
HETATM   12  O3  UNK     1      24.490 -12.858  35.067  1.00  0.00    -0.260 OA
HETATM   13  C11 UNK     1      22.196 -10.290  35.994  1.00  0.00     0.090 A 
HETATM   14  C9  UNK     1      23.024  -9.417  36.701  1.00  0.00     0.007 A 
HETATM   15  C17 UNK     1      20.835 -10.040  35.807  1.00  0.00     0.039 A 
HETATM   16  C12 UNK     1      22.444  -8.256  37.229  1.00  0.00     0.022 A 
HETATM   17  C14 UNK     1      21.081  -7.992  37.051  1.00  0.00    -0.058 A 
HETATM   18  C18 UNK     1      20.278  -8.883  36.340  1.00  0.00     0.010 A 
BRANCH  17  19
HETATM   19  C19 UNK     1      20.484  -6.750  37.624  1.00  0.00     0.034 C 
HETATM   20  C24 UNK     1      20.115  -6.909  39.096  1.00  0.00     0.010 C 
ENDBRANCH  17  19
ENDBRANCH   7   8
ENDBRANCH   1   7
BRANCH   2  21
HETATM   21  C6  UNK     1      30.955  -9.468  38.069  1.00  0.00     0.375 C 
BRANCH  21  22
HETATM   22  C8  UNK     1      31.884  -8.277  37.875  1.00  0.00     0.252 C 
HETATM   23  O2  UNK     1      31.964  -7.412  38.751  1.00  0.00    -0.271 OA
HETATM   24  N3  UNK     1      32.576  -8.239  36.642  1.00  0.00    -0.317 N 
BRANCH  24  25
HETATM   25  C13 UNK     1      32.440  -9.303  35.635  1.00  0.00     0.128 C 
HETATM   26  C20 UNK     1      31.835  -8.776  34.350  1.00  0.00     0.027 C 
ENDBRANCH  24  25
BRANCH  24  27
HETATM   27  C15 UNK     1      33.377  -7.092  36.266  1.00  0.00     0.037 A 
HETATM   28  C21 UNK     1      32.788  -5.831  36.170  1.00  0.00     0.036 A 
HETATM   29  C23 UNK     1      33.559  -4.726  35.810  1.00  0.00    -0.060 A 
HETATM   30  C26 UNK     1      34.920  -4.881  35.544  1.00  0.00     0.007 A 
HETATM   31  C27 UNK     1      32.929  -3.378  35.706  1.00  0.00     0.048 C 
HETATM   32  C25 UNK     1      35.509  -6.142  35.642  1.00  0.00     0.003 A 
HETATM   33  C22 UNK     1      34.738  -7.247  36.002  1.00  0.00     0.030 A 
ENDBRANCH  24  27
ENDBRANCH  21  22
ENDBRANCH   2  21
TORSDOF 7
ENDMDL
MODEL 6
REMARK VINA RESULT:      -8.5     11.815     16.626
REMARK  7 active torsions:
REMARK  status: ('A' for Active; 'I' for Inactive)
REMARK    1  A    between atoms: C5_11  and  N1_4 
REMARK    2  A    between atoms: C6_12  and  N2_5 
REMARK    3  A    between atoms: C13_19  and  N3_6 
REMARK    4  A    between atoms: C15_21  and  N3_6 
REMARK       I    between atoms: C8_14  and  N3_6 
REMARK    5  A    between atoms: C5_11  and  C7_13 
REMARK    6  A    between atoms: C6_12  and  C8_14 
REMARK    7  A    between atoms: C14_20  and  C19_25 
ROOT
HETATM    1  N1  UNK     1      23.760  -9.269  37.242  1.00  0.00     0.096 N 
HETATM    2  N2  UNK     1      26.275  -8.433  38.397  1.00  0.00     0.100 N 
HETATM    3  C1  UNK     1      23.872  -8.017  38.000  1.00  0.00     0.303 C 
HETATM    4  C2  UNK     1      25.040  -9.597  36.602  1.00  0.00     0.303 C 
HETATM    5  C3  UNK     1      24.995  -8.106  39.039  1.00  0.00     0.303 C 
HETATM    6  C4  UNK     1      26.164  -9.685  37.639  1.00  0.00     0.303 C 
ENDROOT
BRANCH   1   7
HETATM    7  C5  UNK     1      22.690  -9.182  36.251  1.00  0.00     0.312 C 
BRANCH   7   8
HETATM    8  C7  UNK     1      21.343  -9.350  36.861  1.00  0.00    -0.011 A 
HETATM    9  C10 UNK     1      20.964 -10.523  37.389  1.00  0.00     0.092 A 
HETATM   10  C16 UNK     1      19.643 -10.738  38.004  1.00  0.00     0.288 A 
HETATM   11  O1  UNK     1      18.779  -9.655  38.020  1.00  0.00    -0.275 OA
HETATM   12  O3  UNK     1      19.333 -11.826  38.477  1.00  0.00    -0.260 OA
HETATM   13  C11 UNK     1      19.150  -8.409  37.473  1.00  0.00     0.090 A 
HETATM   14  C9  UNK     1      20.405  -8.220  36.894  1.00  0.00     0.007 A 
HETATM   15  C17 UNK     1      18.200  -7.388  37.544  1.00  0.00     0.039 A 
HETATM   16  C12 UNK     1      20.695  -6.952  36.371  1.00  0.00     0.022 A 
HETATM   17  C14 UNK     1      19.754  -5.919  36.436  1.00  0.00    -0.058 A 
HETATM   18  C18 UNK     1      18.507  -6.137  37.021  1.00  0.00     0.010 A 
BRANCH  17  19
HETATM   19  C19 UNK     1      20.085  -4.577  35.874  1.00  0.00     0.034 C 
HETATM   20  C24 UNK     1      20.108  -3.489  36.943  1.00  0.00     0.010 C 
ENDBRANCH  17  19
ENDBRANCH   7   8
ENDBRANCH   1   7
BRANCH   2  21
HETATM   21  C6  UNK     1      27.346  -8.518  39.389  1.00  0.00     0.375 C 
BRANCH  21  22
HETATM   22  C8  UNK     1      28.309  -7.354  39.197  1.00  0.00     0.252 C 
HETATM   23  O2  UNK     1      28.041  -6.249  39.677  1.00  0.00    -0.271 OA
HETATM   24  N3  UNK     1      29.458  -7.636  38.420  1.00  0.00    -0.317 N 
BRANCH  24  25
HETATM   25  C13 UNK     1      29.723  -8.975  37.873  1.00  0.00     0.128 C 
HETATM   26  C20 UNK     1      29.556  -9.002  36.368  1.00  0.00     0.027 C 
ENDBRANCH  24  25
BRANCH  24  27
HETATM   27  C15 UNK     1      30.379  -6.585  38.036  1.00  0.00     0.037 A 
HETATM   28  C21 UNK     1      31.755  -6.793  38.137  1.00  0.00     0.036 A 
HETATM   29  C23 UNK     1      32.643  -5.782  37.768  1.00  0.00    -0.060 A 
HETATM   30  C26 UNK     1      32.154  -4.563  37.297  1.00  0.00     0.007 A 
HETATM   31  C27 UNK     1      34.113  -6.004  37.877  1.00  0.00     0.048 C 
HETATM   32  C25 UNK     1      30.778  -4.356  37.195  1.00  0.00     0.003 A 
HETATM   33  C22 UNK     1      29.891  -5.366  37.565  1.00  0.00     0.030 A 
ENDBRANCH  24  27
ENDBRANCH  21  22
ENDBRANCH   2  21
TORSDOF 7
ENDMDL
MODEL 7
REMARK VINA RESULT:      -8.3     15.940     19.527
REMARK  7 active torsions:
REMARK  status: ('A' for Active; 'I' for Inactive)
REMARK    1  A    between atoms: C5_11  and  N1_4 
REMARK    2  A    between atoms: C6_12  and  N2_5 
REMARK    3  A    between atoms: C13_19  and  N3_6 
REMARK    4  A    between atoms: C15_21  and  N3_6 
REMARK       I    between atoms: C8_14  and  N3_6 
REMARK    5  A    between atoms: C5_11  and  C7_13 
REMARK    6  A    between atoms: C6_12  and  C8_14 
REMARK    7  A    between atoms: C14_20  and  C19_25 
ROOT
HETATM    1  N1  UNK     1      32.463  -8.107  35.754  1.00  0.00     0.096 N 
HETATM    2  N2  UNK     1      33.389  -9.897  33.681  1.00  0.00     0.100 N 
HETATM    3  C1  UNK     1      31.917  -9.463  35.618  1.00  0.00     0.303 C 
HETATM    4  C2  UNK     1      33.848  -8.060  35.269  1.00  0.00     0.303 C 
HETATM    5  C3  UNK     1      32.003  -9.942  34.165  1.00  0.00     0.303 C 
HETATM    6  C4  UNK     1      33.935  -8.540  33.817  1.00  0.00     0.303 C 
ENDROOT
BRANCH   1   7
HETATM    7  C5  UNK     1      32.383  -7.653  37.141  1.00  0.00     0.312 C 
BRANCH   7   8
HETATM    8  C7  UNK     1      31.689  -6.341  37.263  1.00  0.00    -0.011 A 
HETATM    9  C10 UNK     1      32.257  -5.213  36.812  1.00  0.00     0.092 A 
HETATM   10  C16 UNK     1      31.611  -3.893  36.910  1.00  0.00     0.288 A 
HETATM   11  O1  UNK     1      30.358  -3.855  37.501  1.00  0.00    -0.275 OA
HETATM   12  O3  UNK     1      32.162  -2.884  36.484  1.00  0.00    -0.260 OA
HETATM   13  C11 UNK     1      29.736  -5.024  37.983  1.00  0.00     0.090 A 
HETATM   14  C9  UNK     1      30.361  -6.268  37.884  1.00  0.00     0.007 A 
HETATM   15  C17 UNK     1      28.474  -4.867  38.560  1.00  0.00     0.039 A 
HETATM   16  C12 UNK     1      29.676  -7.381  38.390  1.00  0.00     0.022 A 
HETATM   17  C14 UNK     1      28.410  -7.240  38.970  1.00  0.00    -0.058 A 
HETATM   18  C18 UNK     1      27.810  -5.983  39.056  1.00  0.00     0.010 A 
BRANCH  17  19
HETATM   19  C19 UNK     1      27.699  -8.439  39.502  1.00  0.00     0.034 C 
HETATM   20  C24 UNK     1      28.375  -9.744  39.091  1.00  0.00     0.010 C 
ENDBRANCH  17  19
ENDBRANCH   7   8
ENDBRANCH   1   7
BRANCH   2  21
HETATM   21  C6  UNK     1      33.470 -10.353  32.294  1.00  0.00     0.375 C 
BRANCH  21  22
HETATM   22  C8  UNK     1      32.333  -9.736  31.490  1.00  0.00     0.252 C 
HETATM   23  O2  UNK     1      32.260  -8.511  31.369  1.00  0.00    -0.271 OA
HETATM   24  N3  UNK     1      31.395 -10.654  30.960  1.00  0.00    -0.317 N 
BRANCH  24  25
HETATM   25  C13 UNK     1      31.535 -12.107  31.137  1.00  0.00     0.128 C 
HETATM   26  C20 UNK     1      30.530 -12.644  32.135  1.00  0.00     0.027 C 
ENDBRANCH  24  25
BRANCH  24  27
HETATM   27  C15 UNK     1      30.188 -10.196  30.302  1.00  0.00     0.037 A 
HETATM   28  C21 UNK     1      29.387  -9.227  30.907  1.00  0.00     0.036 A 
HETATM   29  C23 UNK     1      28.226  -8.786  30.274  1.00  0.00    -0.060 A 
HETATM   30  C26 UNK     1      27.865  -9.313  29.033  1.00  0.00     0.007 A 
HETATM   31  C27 UNK     1      27.369  -7.752  30.922  1.00  0.00     0.048 C 
HETATM   32  C25 UNK     1      28.666 -10.280  28.427  1.00  0.00     0.003 A 
HETATM   33  C22 UNK     1      29.827 -10.722  29.061  1.00  0.00     0.030 A 
ENDBRANCH  24  27
ENDBRANCH  21  22
ENDBRANCH   2  21
TORSDOF 7
ENDMDL
MODEL 8
REMARK VINA RESULT:      -8.2     22.467     25.467
REMARK  7 active torsions:
REMARK  status: ('A' for Active; 'I' for Inactive)
REMARK    1  A    between atoms: C5_11  and  N1_4 
REMARK    2  A    between atoms: C6_12  and  N2_5 
REMARK    3  A    between atoms: C13_19  and  N3_6 
REMARK    4  A    between atoms: C15_21  and  N3_6 
REMARK       I    between atoms: C8_14  and  N3_6 
REMARK    5  A    between atoms: C5_11  and  C7_13 
REMARK    6  A    between atoms: C6_12  and  C8_14 
REMARK    7  A    between atoms: C14_20  and  C19_25 
ROOT
HETATM    1  N1  UNK     1      16.963   9.710   9.408  1.00  0.00     0.096 N 
HETATM    2  N2  UNK     1      14.905   7.681   9.462  1.00  0.00     0.100 N 
HETATM    3  C1  UNK     1      15.545  10.059   9.263  1.00  0.00     0.303 C 
HETATM    4  C2  UNK     1      17.112   8.494  10.217  1.00  0.00     0.303 C 
HETATM    5  C3  UNK     1      14.756   8.896   8.651  1.00  0.00     0.303 C 
HETATM    6  C4  UNK     1      16.323   7.331   9.607  1.00  0.00     0.303 C 
ENDROOT
BRANCH   1   7
HETATM    7  C5  UNK     1      17.713  10.819   9.994  1.00  0.00     0.312 C 
BRANCH   7   8
HETATM    8  C7  UNK     1      18.628  11.461   9.010  1.00  0.00    -0.011 A 
HETATM    9  C10 UNK     1      18.286  11.575   7.719  1.00  0.00     0.092 A 
HETATM   10  C16 UNK     1      19.155  12.202   6.709  1.00  0.00     0.288 A 
HETATM   11  O1  UNK     1      20.376  12.685   7.152  1.00  0.00    -0.275 OA
HETATM   12  O3  UNK     1      18.807  12.288   5.536  1.00  0.00    -0.260 OA
HETATM   13  C11 UNK     1      20.763  12.580   8.504  1.00  0.00     0.090 A 
HETATM   14  C9  UNK     1      19.928  11.983   9.449  1.00  0.00     0.007 A 
HETATM   15  C17 UNK     1      22.015  13.101   8.837  1.00  0.00     0.039 A 
HETATM   16  C12 UNK     1      20.388  11.917  10.771  1.00  0.00     0.022 A 
HETATM   17  C14 UNK     1      21.640  12.435  11.121  1.00  0.00    -0.058 A 
HETATM   18  C18 UNK     1      22.453  13.026  10.154  1.00  0.00     0.010 A 
BRANCH  17  19
HETATM   19  C19 UNK     1      22.108  12.354  12.535  1.00  0.00     0.034 C 
HETATM   20  C24 UNK     1      20.993  12.652  13.534  1.00  0.00     0.010 C 
ENDBRANCH  17  19
ENDBRANCH   7   8
ENDBRANCH   1   7
BRANCH   2  21
HETATM   21  C6  UNK     1      14.153   6.571   8.877  1.00  0.00     0.375 C 
BRANCH  21  22
HETATM   22  C8  UNK     1      12.745   6.552   9.458  1.00  0.00     0.252 C 
HETATM   23  O2  UNK     1      12.534   7.028  10.576  1.00  0.00    -0.271 OA
HETATM   24  N3  UNK     1      11.763   5.928   8.651  1.00  0.00    -0.317 N 
BRANCH  24  25
HETATM   25  C13 UNK     1      12.075   5.377   7.323  1.00  0.00     0.128 C 
HETATM   26  C20 UNK     1      11.563   6.275   6.216  1.00  0.00     0.027 C 
ENDBRANCH  24  25
BRANCH  24  27
HETATM   27  C15 UNK     1      10.418   5.709   9.143  1.00  0.00     0.037 A 
HETATM   28  C21 UNK     1       9.443   6.691   8.969  1.00  0.00     0.036 A 
HETATM   29  C23 UNK     1       8.147   6.480   9.442  1.00  0.00    -0.060 A 
HETATM   30  C26 UNK     1       7.827   5.287  10.089  1.00  0.00     0.007 A 
HETATM   31  C27 UNK     1       7.106   7.531   9.257  1.00  0.00     0.048 C 
HETATM   32  C25 UNK     1       8.802   4.304  10.261  1.00  0.00     0.003 A 
HETATM   33  C22 UNK     1      10.097   4.515   9.789  1.00  0.00     0.030 A 
ENDBRANCH  24  27
ENDBRANCH  21  22
ENDBRANCH   2  21
TORSDOF 7
ENDMDL
MODEL 9
REMARK VINA RESULT:      -8.2     13.399     16.588
REMARK  7 active torsions:
REMARK  status: ('A' for Active; 'I' for Inactive)
REMARK    1  A    between atoms: C5_11  and  N1_4 
REMARK    2  A    between atoms: C6_12  and  N2_5 
REMARK    3  A    between atoms: C13_19  and  N3_6 
REMARK    4  A    between atoms: C15_21  and  N3_6 
REMARK       I    between atoms: C8_14  and  N3_6 
REMARK    5  A    between atoms: C5_11  and  C7_13 
REMARK    6  A    between atoms: C6_12  and  C8_14 
REMARK    7  A    between atoms: C14_20  and  C19_25 
ROOT
HETATM    1  N1  UNK     1      25.404  -8.000  38.613  1.00  0.00     0.096 N 
HETATM    2  N2  UNK     1      28.275  -7.665  38.642  1.00  0.00     0.100 N 
HETATM    3  C1  UNK     1      26.282  -8.997  39.237  1.00  0.00     0.303 C 
HETATM    4  C2  UNK     1      26.015  -6.666  38.678  1.00  0.00     0.303 C 
HETATM    5  C3  UNK     1      27.664  -8.998  38.575  1.00  0.00     0.303 C 
HETATM    6  C4  UNK     1      27.398  -6.667  38.017  1.00  0.00     0.303 C 
ENDROOT
BRANCH   1   7
HETATM    7  C5  UNK     1      24.087  -7.999  39.247  1.00  0.00     0.312 C 
BRANCH   7   8
HETATM    8  C7  UNK     1      23.005  -7.636  38.292  1.00  0.00    -0.011 A 
HETATM    9  C10 UNK     1      22.325  -6.487  38.419  1.00  0.00     0.092 A 
HETATM   10  C16 UNK     1      21.247  -6.084  37.500  1.00  0.00     0.288 A 
HETATM   11  O1  UNK     1      20.950  -6.959  36.467  1.00  0.00    -0.275 OA
HETATM   12  O3  UNK     1      20.649  -5.024  37.648  1.00  0.00    -0.260 OA
HETATM   13  C11 UNK     1      21.648  -8.174  36.307  1.00  0.00     0.090 A 
HETATM   14  C9  UNK     1      22.667  -8.542  37.186  1.00  0.00     0.007 A 
HETATM   15  C17 UNK     1      21.263  -8.978  35.232  1.00  0.00     0.039 A 
HETATM   16  C12 UNK     1      23.309  -9.766  36.959  1.00  0.00     0.022 A 
HETATM   17  C14 UNK     1      22.937 -10.582  35.885  1.00  0.00    -0.058 A 
HETATM   18  C18 UNK     1      21.914 -10.188  35.023  1.00  0.00     0.010 A 
BRANCH  17  19
HETATM   19  C19 UNK     1      23.636 -11.882  35.663  1.00  0.00     0.034 C 
HETATM   20  C24 UNK     1      25.094 -11.841  36.111  1.00  0.00     0.010 C 
ENDBRANCH  17  19
ENDBRANCH   7   8
ENDBRANCH   1   7
BRANCH   2  21
HETATM   21  C6  UNK     1      29.594  -7.666  38.010  1.00  0.00     0.375 C 
BRANCH  21  22
HETATM   22  C8  UNK     1      29.526  -6.901  36.695  1.00  0.00     0.252 C 
HETATM   23  O2  UNK     1      29.466  -5.669  36.703  1.00  0.00    -0.271 OA
HETATM   24  N3  UNK     1      29.497  -7.700  35.527  1.00  0.00    -0.317 N 
BRANCH  24  25
HETATM   25  C13 UNK     1      29.572  -9.168  35.581  1.00  0.00     0.128 C 
HETATM   26  C20 UNK     1      28.266  -9.806  35.154  1.00  0.00     0.027 C 
ENDBRANCH  24  25
BRANCH  24  27
HETATM   27  C15 UNK     1      29.286  -7.110  34.221  1.00  0.00     0.037 A 
HETATM   28  C21 UNK     1      30.302  -7.147  33.266  1.00  0.00     0.036 A 
HETATM   29  C23 UNK     1      30.099  -6.580  32.007  1.00  0.00    -0.060 A 
HETATM   30  C26 UNK     1      28.878  -5.975  31.704  1.00  0.00     0.007 A 
HETATM   31  C27 UNK     1      31.185  -6.618  30.987  1.00  0.00     0.048 C 
HETATM   32  C25 UNK     1      27.862  -5.940  32.659  1.00  0.00     0.003 A 
HETATM   33  C22 UNK     1      28.066  -6.506  33.916  1.00  0.00     0.030 A 
ENDBRANCH  24  27
ENDBRANCH  21  22
ENDBRANCH   2  21
TORSDOF 7
ENDMDL
MODEL 10
REMARK VINA RESULT:      -8.2     23.247     26.240
REMARK  7 active torsions:
REMARK  status: ('A' for Active; 'I' for Inactive)
REMARK    1  A    between atoms: C5_11  and  N1_4 
REMARK    2  A    between atoms: C6_12  and  N2_5 
REMARK    3  A    between atoms: C13_19  and  N3_6 
REMARK    4  A    between atoms: C15_21  and  N3_6 
REMARK       I    between atoms: C8_14  and  N3_6 
REMARK    5  A    between atoms: C5_11  and  C7_13 
REMARK    6  A    between atoms: C6_12  and  C8_14 
REMARK    7  A    between atoms: C14_20  and  C19_25 
ROOT
HETATM    1  N1  UNK     1      16.577  11.506   9.131  1.00  0.00     0.096 N 
HETATM    2  N2  UNK     1      14.568   9.557   9.853  1.00  0.00     0.100 N 
HETATM    3  C1  UNK     1      15.378  11.307   8.309  1.00  0.00     0.303 C 
HETATM    4  C2  UNK     1      16.295  11.187  10.537  1.00  0.00     0.303 C 
HETATM    5  C3  UNK     1      14.852   9.874   8.448  1.00  0.00     0.303 C 
HETATM    6  C4  UNK     1      15.768   9.754  10.676  1.00  0.00     0.303 C 
ENDROOT
BRANCH   1   7
HETATM    7  C5  UNK     1      17.076  12.873   9.000  1.00  0.00     0.312 C 
BRANCH   7   8
HETATM    8  C7  UNK     1      18.249  12.958   8.088  1.00  0.00    -0.011 A 
HETATM    9  C10 UNK     1      18.094  13.226   6.783  1.00  0.00     0.092 A 
HETATM   10  C16 UNK     1      19.222  13.321   5.842  1.00  0.00     0.288 A 
HETATM   11  O1  UNK     1      20.489  13.118   6.366  1.00  0.00    -0.275 OA
HETATM   12  O3  UNK     1      19.040  13.569   4.655  1.00  0.00    -0.260 OA
HETATM   13  C11 UNK     1      20.684  12.836   7.733  1.00  0.00     0.090 A 
HETATM   14  C9  UNK     1      19.604  12.749   8.613  1.00  0.00     0.007 A 
HETATM   15  C17 UNK     1      22.004  12.650   8.150  1.00  0.00     0.039 A 
HETATM   16  C12 UNK     1      19.883  12.463   9.956  1.00  0.00     0.022 A 
HETATM   17  C14 UNK     1      21.200  12.275  10.390  1.00  0.00    -0.058 A 
HETATM   18  C18 UNK     1      22.259  12.367   9.487  1.00  0.00     0.010 A 
BRANCH  17  19
HETATM   19  C19 UNK     1      21.473  11.972  11.826  1.00  0.00     0.034 C 
HETATM   20  C24 UNK     1      20.541  12.731  12.766  1.00  0.00     0.010 C 
ENDBRANCH  17  19
ENDBRANCH   7   8
ENDBRANCH   1   7
BRANCH   2  21
HETATM   21  C6  UNK     1      14.067   8.189   9.985  1.00  0.00     0.375 C 
BRANCH  21  22
HETATM   22  C8  UNK     1      12.713   8.076   9.297  1.00  0.00     0.252 C 
HETATM   23  O2  UNK     1      11.797   8.839   9.615  1.00  0.00    -0.271 OA
HETATM   24  N3  UNK     1      12.601   7.040   8.341  1.00  0.00    -0.317 N 
BRANCH  24  25
HETATM   25  C13 UNK     1      13.731   6.160   8.003  1.00  0.00     0.128 C 
HETATM   26  C20 UNK     1      13.515   4.755   8.525  1.00  0.00     0.027 C 
ENDBRANCH  24  25
BRANCH  24  27
HETATM   27  C15 UNK     1      11.330   6.727   7.720  1.00  0.00     0.037 A 
HETATM   28  C21 UNK     1      10.261   6.288   8.501  1.00  0.00     0.036 A 
HETATM   29  C23 UNK     1       9.036   5.988   7.904  1.00  0.00    -0.060 A 
HETATM   30  C26 UNK     1       8.881   6.126   6.524  1.00  0.00     0.007 A 
HETATM   31  C27 UNK     1       7.894   5.517   8.740  1.00  0.00     0.048 C 
HETATM   32  C25 UNK     1       9.950   6.566   5.744  1.00  0.00     0.003 A 
HETATM   33  C22 UNK     1      11.174   6.866   6.341  1.00  0.00     0.030 A 
ENDBRANCH  24  27
ENDBRANCH  21  22
ENDBRANCH   2  21
TORSDOF 7
ENDMDL
