MODEL 1
REMARK VINA RESULT:      -8.8      0.000      0.000
REMARK  6 active torsions:
REMARK  status: ('A' for Active; 'I' for Inactive)
REMARK    1  A    between atoms: C12_20  and  O2_3 
REMARK    2  A    between atoms: C6_14  and  O2_3 
REMARK    3  A    between atoms: C1_9  and  N1_7 
REMARK    4  A    between atoms: C3_11  and  N1_7 
REMARK    5  A    between atoms: C5_13  and  N2_8 
REMARK    6  A    between atoms: C3_11  and  C6_14 
ROOT
HETATM    1  O1  UNK     1      18.719   1.469  31.516  1.00  0.00    -0.273 OA
HETATM    2  O3  UNK     1      17.810   2.518  33.326  1.00  0.00    -0.257 OA
HETATM    3  C1  UNK     1      19.015  -0.885  33.127  1.00  0.00     0.081 A 
HETATM    4  C2  UNK     1      19.454  -0.863  31.707  1.00  0.00     0.027 A 
HETATM    5  C4  UNK     1      19.289   0.308  30.958  1.00  0.00     0.092 A 
HETATM    6  C5  UNK     1      18.484   0.260  33.589  1.00  0.00     0.205 A 
HETATM    7  C7  UNK     1      20.040  -1.957  31.047  1.00  0.00     0.017 A 
HETATM    8  C8  UNK     1      18.300   1.508  32.835  1.00  0.00     0.324 A 
HETATM    9  C9  UNK     1      19.676   0.408  29.618  1.00  0.00     0.038 A 
HETATM   10  C10 UNK     1      20.433  -1.871  29.705  1.00  0.00     0.001 A 
HETATM   11  C11 UNK     1      20.252  -0.691  28.991  1.00  0.00     0.003 A 
ENDROOT
BRANCH   3  12
HETATM   12  N1  UNK     1      19.181  -2.046  33.836  1.00  0.00    -0.385 N 
HETATM   13  H3  UNK     1      18.514  -2.796  33.710  1.00  0.00     0.159 HD
BRANCH  12  14
HETATM   14  C3  UNK     1      20.353  -2.330  34.616  1.00  0.00     0.146 C 
BRANCH  14  15
HETATM   15  C6  UNK     1      19.954  -2.748  36.021  1.00  0.00     0.195 C 
BRANCH  15  16
HETATM   16  O2  UNK     1      20.953  -3.603  36.563  1.00  0.00    -0.350 OA
BRANCH  16  17
HETATM   17  C12 UNK     1      20.529  -4.801  37.074  1.00  0.00     0.068 A 
HETATM   18  C13 UNK     1      19.394  -5.411  36.551  1.00  0.00     0.038 A 
HETATM   19  C15 UNK     1      18.962  -6.630  37.072  1.00  0.00     0.026 A 
HETATM   20  C17 UNK     1      19.668  -7.232  38.114  1.00  0.00     0.034 A 
HETATM   21  C16 UNK     1      20.804  -6.615  38.635  1.00  0.00     0.026 A 
HETATM   22 Cl1  UNK     1      19.133  -8.736  38.758  1.00  0.00    -0.084 Cl
HETATM   23  C14 UNK     1      21.237  -5.396  38.113  1.00  0.00     0.038 A 
ENDBRANCH  16  17
ENDBRANCH  15  16
ENDBRANCH  14  15
ENDBRANCH  12  14
ENDBRANCH   3  12
BRANCH   6  24
HETATM   24  N2  UNK     1      18.050   0.278  34.950  1.00  0.00    -0.107 N 
HETATM   25  O4  UNK     1      16.892  -0.093  35.175  1.00  0.00    -0.531 OA
HETATM   26  O5  UNK     1      18.867   0.664  35.794  1.00  0.00    -0.531 OA
ENDBRANCH   6  24
TORSDOF 6
ENDMDL
MODEL 2
REMARK VINA RESULT:      -8.6      5.226      8.849
REMARK  6 active torsions:
REMARK  status: ('A' for Active; 'I' for Inactive)
REMARK    1  A    between atoms: C12_20  and  O2_3 
REMARK    2  A    between atoms: C6_14  and  O2_3 
REMARK    3  A    between atoms: C1_9  and  N1_7 
REMARK    4  A    between atoms: C3_11  and  N1_7 
REMARK    5  A    between atoms: C5_13  and  N2_8 
REMARK    6  A    between atoms: C3_11  and  C6_14 
ROOT
HETATM    1  O1  UNK     1      19.619  -1.538  32.865  1.00  0.00    -0.273 OA
HETATM    2  O3  UNK     1      18.740  -1.317  34.957  1.00  0.00    -0.257 OA
HETATM    3  C1  UNK     1      18.456   0.994  32.192  1.00  0.00     0.081 A 
HETATM    4  C2  UNK     1      19.236   0.217  31.195  1.00  0.00     0.027 A 
HETATM    5  C4  UNK     1      19.788  -1.015  31.567  1.00  0.00     0.092 A 
HETATM    6  C5  UNK     1      18.335   0.430  33.406  1.00  0.00     0.205 A 
HETATM    7  C7  UNK     1      19.465   0.636  29.873  1.00  0.00     0.017 A 
HETATM    8  C8  UNK     1      18.894  -0.861  33.831  1.00  0.00     0.324 A 
HETATM    9  C9  UNK     1      20.535  -1.804  30.689  1.00  0.00     0.038 A 
HETATM   10  C10 UNK     1      20.211  -0.145  28.981  1.00  0.00     0.001 A 
HETATM   11  C11 UNK     1      20.746  -1.364  29.388  1.00  0.00     0.003 A 
ENDROOT
BRANCH   3  12
HETATM   12  N1  UNK     1      17.933   2.201  31.804  1.00  0.00    -0.385 N 
HETATM   13  H3  UNK     1      16.977   2.237  31.474  1.00  0.00     0.159 HD
BRANCH  12  14
HETATM   14  C3  UNK     1      18.607   3.452  32.010  1.00  0.00     0.146 C 
BRANCH  14  15
HETATM   15  C6  UNK     1      18.887   4.117  30.673  1.00  0.00     0.195 C 
BRANCH  15  16
HETATM   16  O2  UNK     1      19.646   5.302  30.882  1.00  0.00    -0.350 OA
BRANCH  16  17
HETATM   17  C12 UNK     1      19.078   6.268  31.670  1.00  0.00     0.068 A 
HETATM   18  C13 UNK     1      19.757   6.730  32.791  1.00  0.00     0.038 A 
HETATM   19  C15 UNK     1      19.177   7.712  33.594  1.00  0.00     0.026 A 
HETATM   20  C17 UNK     1      17.921   8.226  33.270  1.00  0.00     0.034 A 
HETATM   21  C16 UNK     1      17.245   7.757  32.144  1.00  0.00     0.026 A 
HETATM   22 Cl1  UNK     1      17.206   9.437  34.260  1.00  0.00    -0.084 Cl
HETATM   23  C14 UNK     1      17.825   6.775  31.341  1.00  0.00     0.038 A 
ENDBRANCH  16  17
ENDBRANCH  15  16
ENDBRANCH  14  15
ENDBRANCH  12  14
ENDBRANCH   3  12
BRANCH   6  24
HETATM   24  N2  UNK     1      17.590   1.147  34.391  1.00  0.00    -0.107 N 
HETATM   25  O4  UNK     1      18.224   1.913  35.126  1.00  0.00    -0.531 OA
HETATM   26  O5  UNK     1      16.372   0.944  34.431  1.00  0.00    -0.531 OA
ENDBRANCH   6  24
TORSDOF 6
ENDMDL
MODEL 3
REMARK VINA RESULT:      -8.5      2.321      4.212
REMARK  6 active torsions:
REMARK  status: ('A' for Active; 'I' for Inactive)
REMARK    1  A    between atoms: C12_20  and  O2_3 
REMARK    2  A    between atoms: C6_14  and  O2_3 
REMARK    3  A    between atoms: C1_9  and  N1_7 
REMARK    4  A    between atoms: C3_11  and  N1_7 
REMARK    5  A    between atoms: C5_13  and  N2_8 
REMARK    6  A    between atoms: C3_11  and  C6_14 
ROOT
HETATM    1  O1  UNK     1      17.935  -0.498  33.260  1.00  0.00    -0.273 OA
HETATM    2  O3  UNK     1      19.284  -1.324  31.618  1.00  0.00    -0.257 OA
HETATM    3  C1  UNK     1      19.572  -1.857  35.182  1.00  0.00     0.081 A 
HETATM    4  C2  UNK     1      18.394  -1.056  35.604  1.00  0.00     0.027 A 
HETATM    5  C4  UNK     1      17.624  -0.407  34.632  1.00  0.00     0.092 A 
HETATM    6  C5  UNK     1      19.804  -1.899  33.859  1.00  0.00     0.205 A 
HETATM    7  C7  UNK     1      17.986  -0.899  36.940  1.00  0.00     0.017 A 
HETATM    8  C8  UNK     1      19.015  -1.238  32.810  1.00  0.00     0.324 A 
HETATM    9  C9  UNK     1      16.502   0.365  34.948  1.00  0.00     0.038 A 
HETATM   10  C10 UNK     1      16.863  -0.128  37.272  1.00  0.00     0.001 A 
HETATM   11  C11 UNK     1      16.122   0.503  36.277  1.00  0.00     0.003 A 
ENDROOT
BRANCH   3  12
HETATM   12  N1  UNK     1      20.314  -2.475  36.155  1.00  0.00    -0.385 N 
HETATM   13  H3  UNK     1      20.973  -1.926  36.692  1.00  0.00     0.159 HD
BRANCH  12  14
HETATM   14  C3  UNK     1      20.080  -3.827  36.582  1.00  0.00     0.146 C 
BRANCH  14  15
HETATM   15  C6  UNK     1      20.994  -4.170  37.746  1.00  0.00     0.195 C 
BRANCH  15  16
HETATM   16  O2  UNK     1      21.749  -5.333  37.430  1.00  0.00    -0.350 OA
BRANCH  16  17
HETATM   17  C12 UNK     1      21.176  -6.541  37.729  1.00  0.00     0.068 A 
HETATM   18  C13 UNK     1      20.580  -6.732  38.970  1.00  0.00     0.038 A 
HETATM   19  C15 UNK     1      19.998  -7.963  39.274  1.00  0.00     0.026 A 
HETATM   20  C17 UNK     1      20.016  -8.994  38.335  1.00  0.00     0.034 A 
HETATM   21  C16 UNK     1      20.617  -8.795  37.092  1.00  0.00     0.026 A 
HETATM   22 Cl1  UNK     1      19.299 -10.512  38.711  1.00  0.00    -0.084 Cl
HETATM   23  C14 UNK     1      21.198  -7.565  36.788  1.00  0.00     0.038 A 
ENDBRANCH  16  17
ENDBRANCH  15  16
ENDBRANCH  14  15
ENDBRANCH  12  14
ENDBRANCH   3  12
BRANCH   6  24
HETATM   24  N2  UNK     1      20.928  -2.661  33.414  1.00  0.00    -0.107 N 
HETATM   25  O4  UNK     1      20.727  -3.850  33.143  1.00  0.00    -0.531 OA
HETATM   26  O5  UNK     1      22.010  -2.070  33.336  1.00  0.00    -0.531 OA
ENDBRANCH   6  24
TORSDOF 6
ENDMDL
MODEL 4
REMARK VINA RESULT:      -8.4      6.581      9.883
REMARK  6 active torsions:
REMARK  status: ('A' for Active; 'I' for Inactive)
REMARK    1  A    between atoms: C12_20  and  O2_3 
REMARK    2  A    between atoms: C6_14  and  O2_3 
REMARK    3  A    between atoms: C1_9  and  N1_7 
REMARK    4  A    between atoms: C3_11  and  N1_7 
REMARK    5  A    between atoms: C5_13  and  N2_8 
REMARK    6  A    between atoms: C3_11  and  C6_14 
ROOT
HETATM    1  O1  UNK     1      16.556  10.353  33.487  1.00  0.00    -0.273 OA
HETATM    2  O3  UNK     1      14.380  10.088  32.860  1.00  0.00    -0.257 OA
HETATM    3  C1  UNK     1      16.889   7.515  33.252  1.00  0.00     0.081 A 
HETATM    4  C2  UNK     1      18.015   8.390  33.672  1.00  0.00     0.027 A 
HETATM    5  C4  UNK     1      17.808   9.771  33.771  1.00  0.00     0.092 A 
HETATM    6  C5  UNK     1      15.727   8.142  33.001  1.00  0.00     0.205 A 
HETATM    7  C7  UNK     1      19.302   7.922  33.985  1.00  0.00     0.017 A 
HETATM    8  C8  UNK     1      15.471   9.585  33.101  1.00  0.00     0.324 A 
HETATM    9  C9  UNK     1      18.815  10.660  34.158  1.00  0.00     0.038 A 
HETATM   10  C10 UNK     1      20.322   8.801  34.375  1.00  0.00     0.001 A 
HETATM   11  C11 UNK     1      20.079  10.168  34.461  1.00  0.00     0.003 A 
ENDROOT
BRANCH   3  12
HETATM   12  N1  UNK     1      17.121   6.168  33.155  1.00  0.00    -0.385 N 
HETATM   13  H3  UNK     1      16.727   5.551  33.854  1.00  0.00     0.159 HD
BRANCH  12  14
HETATM   14  C3  UNK     1      17.741   5.557  32.012  1.00  0.00     0.146 C 
BRANCH  14  15
HETATM   15  C6  UNK     1      17.912   4.066  32.248  1.00  0.00     0.195 C 
BRANCH  15  16
HETATM   16  O2  UNK     1      17.327   3.345  31.171  1.00  0.00    -0.350 OA
BRANCH  16  17
HETATM   17  C12 UNK     1      18.084   2.349  30.612  1.00  0.00     0.068 A 
HETATM   18  C13 UNK     1      17.935   2.044  29.264  1.00  0.00     0.038 A 
HETATM   19  C15 UNK     1      18.704   1.028  28.697  1.00  0.00     0.026 A 
HETATM   20  C17 UNK     1      19.618   0.324  29.482  1.00  0.00     0.034 A 
HETATM   21  C16 UNK     1      19.761   0.635  30.833  1.00  0.00     0.026 A 
HETATM   22 Cl1  UNK     1      20.566  -0.929  28.781  1.00  0.00    -0.084 Cl
HETATM   23  C14 UNK     1      18.992   1.650  31.401  1.00  0.00     0.038 A 
ENDBRANCH  16  17
ENDBRANCH  15  16
ENDBRANCH  14  15
ENDBRANCH  12  14
ENDBRANCH   3  12
BRANCH   6  24
HETATM   24  N2  UNK     1      14.621   7.334  32.596  1.00  0.00    -0.107 N 
HETATM   25  O4  UNK     1      14.537   7.059  31.394  1.00  0.00    -0.531 OA
HETATM   26  O5  UNK     1      13.835   6.974  33.481  1.00  0.00    -0.531 OA
ENDBRANCH   6  24
TORSDOF 6
ENDMDL
MODEL 5
REMARK VINA RESULT:      -8.4     11.567     13.160
REMARK  6 active torsions:
REMARK  status: ('A' for Active; 'I' for Inactive)
REMARK    1  A    between atoms: C12_20  and  O2_3 
REMARK    2  A    between atoms: C6_14  and  O2_3 
REMARK    3  A    between atoms: C1_9  and  N1_7 
REMARK    4  A    between atoms: C3_11  and  N1_7 
REMARK    5  A    between atoms: C5_13  and  N2_8 
REMARK    6  A    between atoms: C3_11  and  C6_14 
ROOT
HETATM    1  O1  UNK     1      30.789  -3.873  38.068  1.00  0.00    -0.273 OA
HETATM    2  O3  UNK     1      29.499  -3.874  39.949  1.00  0.00    -0.257 OA
HETATM    3  C1  UNK     1      29.200  -6.041  37.070  1.00  0.00     0.081 A 
HETATM    4  C2  UNK     1      30.332  -5.491  36.282  1.00  0.00     0.027 A 
HETATM    5  C4  UNK     1      31.081  -4.430  36.807  1.00  0.00     0.092 A 
HETATM    6  C5  UNK     1      28.984  -5.460  38.263  1.00  0.00     0.205 A 
HETATM    7  C7  UNK     1      30.718  -5.969  35.018  1.00  0.00     0.017 A 
HETATM    8  C8  UNK     1      29.751  -4.352  38.849  1.00  0.00     0.324 A 
HETATM    9  C9  UNK     1      32.159  -3.858  36.127  1.00  0.00     0.038 A 
HETATM   10  C10 UNK     1      31.798  -5.405  34.325  1.00  0.00     0.001 A 
HETATM   11  C11 UNK     1      32.518  -4.351  34.878  1.00  0.00     0.003 A 
ENDROOT
BRANCH   3  12
HETATM   12  N1  UNK     1      28.478  -7.074  36.530  1.00  0.00    -0.385 N 
HETATM   13  H3  UNK     1      27.572  -6.879  36.125  1.00  0.00     0.159 HD
BRANCH  12  14
HETATM   14  C3  UNK     1      29.015  -8.393  36.341  1.00  0.00     0.146 C 
BRANCH  14  15
HETATM   15  C6  UNK     1      29.592  -8.910  37.648  1.00  0.00     0.195 C 
BRANCH  15  16
HETATM   16  O2  UNK     1      30.826  -9.571  37.393  1.00  0.00    -0.350 OA
BRANCH  16  17
HETATM   17  C12 UNK     1      31.912  -8.775  37.143  1.00  0.00     0.068 A 
HETATM   18  C13 UNK     1      32.325  -7.853  38.098  1.00  0.00     0.038 A 
HETATM   19  C15 UNK     1      33.430  -7.041  37.842  1.00  0.00     0.026 A 
HETATM   20  C17 UNK     1      34.115  -7.156  36.632  1.00  0.00     0.034 A 
HETATM   21  C16 UNK     1      33.695  -8.083  35.678  1.00  0.00     0.026 A 
HETATM   22 Cl1  UNK     1      35.478  -6.154  36.316  1.00  0.00    -0.084 Cl
HETATM   23  C14 UNK     1      32.590  -8.895  35.934  1.00  0.00     0.038 A 
ENDBRANCH  16  17
ENDBRANCH  15  16
ENDBRANCH  14  15
ENDBRANCH  12  14
ENDBRANCH   3  12
BRANCH   6  24
HETATM   24  N2  UNK     1      27.904  -5.963  39.052  1.00  0.00    -0.107 N 
HETATM   25  O4  UNK     1      26.806  -5.410  38.917  1.00  0.00    -0.531 OA
HETATM   26  O5  UNK     1      28.153  -6.910  39.806  1.00  0.00    -0.531 OA
ENDBRANCH   6  24
TORSDOF 6
ENDMDL
MODEL 6
REMARK VINA RESULT:      -7.9      1.719      2.378
REMARK  6 active torsions:
REMARK  status: ('A' for Active; 'I' for Inactive)
REMARK    1  A    between atoms: C12_20  and  O2_3 
REMARK    2  A    between atoms: C6_14  and  O2_3 
REMARK    3  A    between atoms: C1_9  and  N1_7 
REMARK    4  A    between atoms: C3_11  and  N1_7 
REMARK    5  A    between atoms: C5_13  and  N2_8 
REMARK    6  A    between atoms: C3_11  and  C6_14 
ROOT
HETATM    1  O1  UNK     1      17.959  -0.213  33.163  1.00  0.00    -0.273 OA
HETATM    2  O3  UNK     1      16.630   0.847  34.684  1.00  0.00    -0.257 OA
HETATM    3  C1  UNK     1      19.269  -1.534  35.344  1.00  0.00     0.081 A 
HETATM    4  C2  UNK     1      19.680  -1.779  33.937  1.00  0.00     0.027 A 
HETATM    5  C4  UNK     1      19.011  -1.113  32.903  1.00  0.00     0.092 A 
HETATM    6  C5  UNK     1      18.261  -0.662  35.513  1.00  0.00     0.205 A 
HETATM    7  C7  UNK     1      20.717  -2.649  33.560  1.00  0.00     0.017 A 
HETATM    8  C8  UNK     1      17.540   0.059  34.454  1.00  0.00     0.324 A 
HETATM    9  C9  UNK     1      19.338  -1.290  31.556  1.00  0.00     0.038 A 
HETATM   10  C10 UNK     1      21.056  -2.836  32.213  1.00  0.00     0.001 A 
HETATM   11  C11 UNK     1      20.367  -2.158  31.212  1.00  0.00     0.003 A 
ENDROOT
BRANCH   3  12
HETATM   12  N1  UNK     1      19.935  -2.205  36.337  1.00  0.00    -0.385 N 
HETATM   13  H3  UNK     1      20.733  -1.764  36.776  1.00  0.00     0.159 HD
BRANCH  12  14
HETATM   14  C3  UNK     1      19.454  -3.427  36.920  1.00  0.00     0.146 C 
BRANCH  14  15
HETATM   15  C6  UNK     1      20.622  -4.342  37.244  1.00  0.00     0.195 C 
BRANCH  15  16
HETATM   16  O2  UNK     1      20.743  -5.333  36.231  1.00  0.00    -0.350 OA
BRANCH  16  17
HETATM   17  C12 UNK     1      20.464  -6.624  36.593  1.00  0.00     0.068 A 
HETATM   18  C13 UNK     1      20.784  -7.667  35.731  1.00  0.00     0.038 A 
HETATM   19  C15 UNK     1      20.498  -8.981  36.101  1.00  0.00     0.026 A 
HETATM   20  C17 UNK     1      19.893  -9.244  37.330  1.00  0.00     0.034 A 
HETATM   21  C16 UNK     1      19.574  -8.193  38.189  1.00  0.00     0.026 A 
HETATM   22 Cl1  UNK     1      19.540 -10.866  37.785  1.00  0.00    -0.084 Cl
HETATM   23  C14 UNK     1      19.860  -6.879  37.820  1.00  0.00     0.038 A 
ENDBRANCH  16  17
ENDBRANCH  15  16
ENDBRANCH  14  15
ENDBRANCH  12  14
ENDBRANCH   3  12
BRANCH   6  24
HETATM   24  N2  UNK     1      17.838  -0.399  36.852  1.00  0.00    -0.107 N 
HETATM   25  O4  UNK     1      16.977  -1.150  37.325  1.00  0.00    -0.531 OA
HETATM   26  O5  UNK     1      18.366   0.557  37.430  1.00  0.00    -0.531 OA
ENDBRANCH   6  24
TORSDOF 6
ENDMDL
MODEL 7
REMARK VINA RESULT:      -7.8      5.808      8.441
REMARK  6 active torsions:
REMARK  status: ('A' for Active; 'I' for Inactive)
REMARK    1  A    between atoms: C12_20  and  O2_3 
REMARK    2  A    between atoms: C6_14  and  O2_3 
REMARK    3  A    between atoms: C1_9  and  N1_7 
REMARK    4  A    between atoms: C3_11  and  N1_7 
REMARK    5  A    between atoms: C5_13  and  N2_8 
REMARK    6  A    between atoms: C3_11  and  C6_14 
ROOT
HETATM    1  O1  UNK     1      21.150  -5.218  37.304  1.00  0.00    -0.273 OA
HETATM    2  O3  UNK     1      19.630  -4.451  35.787  1.00  0.00    -0.257 OA
HETATM    3  C1  UNK     1      19.553  -7.581  37.594  1.00  0.00     0.081 A 
HETATM    4  C2  UNK     1      20.805  -7.398  38.373  1.00  0.00     0.027 A 
HETATM    5  C4  UNK     1      21.555  -6.229  38.199  1.00  0.00     0.092 A 
HETATM    6  C5  UNK     1      19.230  -6.574  36.765  1.00  0.00     0.205 A 
HETATM    7  C7  UNK     1      21.302  -8.334  39.295  1.00  0.00     0.017 A 
HETATM    8  C8  UNK     1      19.988  -5.332  36.560  1.00  0.00     0.324 A 
HETATM    9  C9  UNK     1      22.742  -5.983  38.893  1.00  0.00     0.038 A 
HETATM   10  C10 UNK     1      22.492  -8.101  40.000  1.00  0.00     0.001 A 
HETATM   11  C11 UNK     1      23.211  -6.927  39.799  1.00  0.00     0.003 A 
ENDROOT
BRANCH   3  12
HETATM   12  N1  UNK     1      18.842  -8.739  37.778  1.00  0.00    -0.385 N 
HETATM   13  H3  UNK     1      17.909  -8.684  38.166  1.00  0.00     0.159 HD
BRANCH  12  14
HETATM   14  C3  UNK     1      19.275 -10.015  37.279  1.00  0.00     0.146 C 
BRANCH  14  15
HETATM   15  C6  UNK     1      20.251  -9.819  36.132  1.00  0.00     0.195 C 
BRANCH  15  16
HETATM   16  O2  UNK     1      21.061 -10.981  35.995  1.00  0.00    -0.350 OA
BRANCH  16  17
HETATM   17  C12 UNK     1      22.413 -10.810  36.127  1.00  0.00     0.068 A 
HETATM   18  C13 UNK     1      22.914  -9.592  36.571  1.00  0.00     0.038 A 
HETATM   19  C15 UNK     1      24.291  -9.417  36.703  1.00  0.00     0.026 A 
HETATM   20  C17 UNK     1      25.160 -10.463  36.389  1.00  0.00     0.034 A 
HETATM   21  C16 UNK     1      24.651 -11.682  35.943  1.00  0.00     0.026 A 
HETATM   22 Cl1  UNK     1      26.859 -10.247  36.552  1.00  0.00    -0.084 Cl
HETATM   23  C14 UNK     1      23.274 -11.857  35.811  1.00  0.00     0.038 A 
ENDBRANCH  16  17
ENDBRANCH  15  16
ENDBRANCH  14  15
ENDBRANCH  12  14
ENDBRANCH   3  12
BRANCH   6  24
HETATM   24  N2  UNK     1      18.032  -6.713  35.999  1.00  0.00    -0.107 N 
HETATM   25  O4  UNK     1      18.134  -7.252  34.891  1.00  0.00    -0.531 OA
HETATM   26  O5  UNK     1      16.990  -6.283  36.505  1.00  0.00    -0.531 OA
ENDBRANCH   6  24
TORSDOF 6
ENDMDL
MODEL 8
REMARK VINA RESULT:      -7.8      4.029      8.478
REMARK  6 active torsions:
REMARK  status: ('A' for Active; 'I' for Inactive)
REMARK    1  A    between atoms: C12_20  and  O2_3 
REMARK    2  A    between atoms: C6_14  and  O2_3 
REMARK    3  A    between atoms: C1_9  and  N1_7 
REMARK    4  A    between atoms: C3_11  and  N1_7 
REMARK    5  A    between atoms: C5_13  and  N2_8 
REMARK    6  A    between atoms: C3_11  and  C6_14 
ROOT
HETATM    1  O1  UNK     1      20.394  -8.975  37.678  1.00  0.00    -0.273 OA
HETATM    2  O3  UNK     1      18.457  -9.547  36.618  1.00  0.00    -0.257 OA
HETATM    3  C1  UNK     1      19.758  -6.222  37.190  1.00  0.00     0.081 A 
HETATM    4  C2  UNK     1      21.006  -6.610  37.897  1.00  0.00     0.027 A 
HETATM    5  C4  UNK     1      21.276  -7.966  38.115  1.00  0.00     0.092 A 
HETATM    6  C5  UNK     1      18.969  -7.238  36.800  1.00  0.00     0.205 A 
HETATM    7  C7  UNK     1      21.959  -5.693  38.373  1.00  0.00     0.017 A 
HETATM    8  C8  UNK     1      19.222  -8.671  37.006  1.00  0.00     0.324 A 
HETATM    9  C9  UNK     1      22.426  -8.411  38.772  1.00  0.00     0.038 A 
HETATM   10  C10 UNK     1      23.118  -6.125  39.033  1.00  0.00     0.001 A 
HETATM   11  C11 UNK     1      23.351  -7.482  39.233  1.00  0.00     0.003 A 
ENDROOT
BRANCH   3  12
HETATM   12  N1  UNK     1      19.514  -4.887  36.996  1.00  0.00    -0.385 N 
HETATM   13  H3  UNK     1      19.116  -4.347  37.754  1.00  0.00     0.159 HD
BRANCH  12  14
HETATM   14  C3  UNK     1      19.960  -4.167  35.836  1.00  0.00     0.146 C 
BRANCH  14  15
HETATM   15  C6  UNK     1      20.549  -2.829  36.250  1.00  0.00     0.195 C 
BRANCH  15  16
HETATM   16  O2  UNK     1      20.131  -1.823  35.334  1.00  0.00    -0.350 OA
BRANCH  16  17
HETATM   17  C12 UNK     1      18.936  -1.208  35.596  1.00  0.00     0.068 A 
HETATM   18  C13 UNK     1      18.155  -0.741  34.545  1.00  0.00     0.038 A 
HETATM   19  C15 UNK     1      16.940  -0.113  34.813  1.00  0.00     0.026 A 
HETATM   20  C17 UNK     1      16.512   0.045  36.132  1.00  0.00     0.034 A 
HETATM   21  C16 UNK     1      17.301  -0.424  37.181  1.00  0.00     0.026 A 
HETATM   22 Cl1  UNK     1      15.012   0.821  36.462  1.00  0.00    -0.084 Cl
HETATM   23  C14 UNK     1      18.516  -1.053  36.913  1.00  0.00     0.038 A 
ENDBRANCH  16  17
ENDBRANCH  15  16
ENDBRANCH  14  15
ENDBRANCH  12  14
ENDBRANCH   3  12
BRANCH   6  24
HETATM   24  N2  UNK     1      17.760  -6.905  36.116  1.00  0.00    -0.107 N 
HETATM   25  O4  UNK     1      16.906  -6.282  36.757  1.00  0.00    -0.531 OA
HETATM   26  O5  UNK     1      17.664  -7.268  34.938  1.00  0.00    -0.531 OA
ENDBRANCH   6  24
TORSDOF 6
ENDMDL
MODEL 9
REMARK VINA RESULT:      -7.8      6.179      9.004
REMARK  6 active torsions:
REMARK  status: ('A' for Active; 'I' for Inactive)
REMARK    1  A    between atoms: C12_20  and  O2_3 
REMARK    2  A    between atoms: C6_14  and  O2_3 
REMARK    3  A    between atoms: C1_9  and  N1_7 
REMARK    4  A    between atoms: C3_11  and  N1_7 
REMARK    5  A    between atoms: C5_13  and  N2_8 
REMARK    6  A    between atoms: C3_11  and  C6_14 
ROOT
HETATM    1  O1  UNK     1      16.576  10.281  33.456  1.00  0.00    -0.273 OA
HETATM    2  O3  UNK     1      14.392  10.041  32.846  1.00  0.00    -0.257 OA
HETATM    3  C1  UNK     1      16.866   7.436  33.253  1.00  0.00     0.081 A 
HETATM    4  C2  UNK     1      18.007   8.299  33.654  1.00  0.00     0.027 A 
HETATM    5  C4  UNK     1      17.821   9.684  33.739  1.00  0.00     0.092 A 
HETATM    6  C5  UNK     1      15.711   8.076  33.002  1.00  0.00     0.205 A 
HETATM    7  C7  UNK     1      19.289   7.815  33.964  1.00  0.00     0.017 A 
HETATM    8  C8  UNK     1      15.477   9.525  33.086  1.00  0.00     0.324 A 
HETATM    9  C9  UNK     1      18.843  10.562  34.108  1.00  0.00     0.038 A 
HETATM   10  C10 UNK     1      20.324   8.683  34.337  1.00  0.00     0.001 A 
HETATM   11  C11 UNK     1      20.102  10.055  34.409  1.00  0.00     0.003 A 
ENDROOT
BRANCH   3  12
HETATM   12  N1  UNK     1      17.077   6.084  33.170  1.00  0.00    -0.385 N 
HETATM   13  H3  UNK     1      16.682   5.482  33.880  1.00  0.00     0.159 HD
BRANCH  12  14
HETATM   14  C3  UNK     1      17.676   5.451  32.028  1.00  0.00     0.146 C 
BRANCH  14  15
HETATM   15  C6  UNK     1      18.111   4.040  32.385  1.00  0.00     0.195 C 
BRANCH  15  16
HETATM   16  O2  UNK     1      18.344   3.955  33.786  1.00  0.00    -0.350 OA
BRANCH  16  17
HETATM   17  C12 UNK     1      18.329   2.703  34.340  1.00  0.00     0.068 A 
HETATM   18  C13 UNK     1      18.472   2.555  35.714  1.00  0.00     0.038 A 
HETATM   19  C15 UNK     1      18.458   1.279  36.277  1.00  0.00     0.026 A 
HETATM   20  C17 UNK     1      18.300   0.158  35.461  1.00  0.00     0.034 A 
HETATM   21  C16 UNK     1      18.158   0.314  34.083  1.00  0.00     0.026 A 
HETATM   22 Cl1  UNK     1      18.284  -1.416  36.156  1.00  0.00    -0.084 Cl
HETATM   23  C14 UNK     1      18.172   1.590  33.520  1.00  0.00     0.038 A 
ENDBRANCH  16  17
ENDBRANCH  15  16
ENDBRANCH  14  15
ENDBRANCH  12  14
ENDBRANCH   3  12
BRANCH   6  24
HETATM   24  N2  UNK     1      14.590   7.280  32.614  1.00  0.00    -0.107 N 
HETATM   25  O4  UNK     1      13.818   6.923  33.511  1.00  0.00    -0.531 OA
HETATM   26  O5  UNK     1      14.482   7.012  31.412  1.00  0.00    -0.531 OA
ENDBRANCH   6  24
TORSDOF 6
ENDMDL
MODEL 10
REMARK VINA RESULT:      -7.8      2.183      4.033
REMARK  6 active torsions:
REMARK  status: ('A' for Active; 'I' for Inactive)
REMARK    1  A    between atoms: C12_20  and  O2_3 
REMARK    2  A    between atoms: C6_14  and  O2_3 
REMARK    3  A    between atoms: C1_9  and  N1_7 
REMARK    4  A    between atoms: C3_11  and  N1_7 
REMARK    5  A    between atoms: C5_13  and  N2_8 
REMARK    6  A    between atoms: C3_11  and  C6_14 
ROOT
HETATM    1  O1  UNK     1      17.848   1.902  34.626  1.00  0.00    -0.273 OA
HETATM    2  O3  UNK     1      18.224   1.865  32.377  1.00  0.00    -0.257 OA
HETATM    3  C1  UNK     1      18.668  -0.844  34.731  1.00  0.00     0.081 A 
HETATM    4  C2  UNK     1      18.239  -0.122  35.956  1.00  0.00     0.027 A 
HETATM    5  C4  UNK     1      17.848   1.219  35.859  1.00  0.00     0.092 A 
HETATM    6  C5  UNK     1      18.638  -0.129  33.593  1.00  0.00     0.205 A 
HETATM    7  C7  UNK     1      18.193  -0.700  37.236  1.00  0.00     0.017 A 
HETATM    8  C8  UNK     1      18.230   1.276  33.451  1.00  0.00     0.324 A 
HETATM    9  C9  UNK     1      17.432   1.967  36.965  1.00  0.00     0.038 A 
HETATM   10  C10 UNK     1      17.778   0.037  38.354  1.00  0.00     0.001 A 
HETATM   11  C11 UNK     1      17.398   1.369  38.218  1.00  0.00     0.003 A 
ENDROOT
BRANCH   3  12
HETATM   12  N1  UNK     1      19.053  -2.154  34.855  1.00  0.00    -0.385 N 
HETATM   13  H3  UNK     1      18.449  -2.878  34.488  1.00  0.00     0.159 HD
BRANCH  12  14
HETATM   14  C3  UNK     1      20.355  -2.549  35.314  1.00  0.00     0.146 C 
BRANCH  14  15
HETATM   15  C6  UNK     1      20.224  -3.604  36.400  1.00  0.00     0.195 C 
BRANCH  15  16
HETATM   16  O2  UNK     1      20.277  -4.899  35.812  1.00  0.00    -0.350 OA
BRANCH  16  17
HETATM   17  C12 UNK     1      20.209  -5.968  36.666  1.00  0.00     0.068 A 
HETATM   18  C13 UNK     1      19.160  -6.873  36.557  1.00  0.00     0.038 A 
HETATM   19  C15 UNK     1      19.091  -7.959  37.428  1.00  0.00     0.026 A 
HETATM   20  C17 UNK     1      20.073  -8.134  38.404  1.00  0.00     0.034 A 
HETATM   21  C16 UNK     1      21.122  -7.222  38.509  1.00  0.00     0.026 A 
HETATM   22 Cl1  UNK     1      19.987  -9.475  39.479  1.00  0.00    -0.084 Cl
HETATM   23  C14 UNK     1      21.191  -6.135  37.637  1.00  0.00     0.038 A 
ENDBRANCH  16  17
ENDBRANCH  15  16
ENDBRANCH  14  15
ENDBRANCH  12  14
ENDBRANCH   3  12
BRANCH   6  24
HETATM   24  N2  UNK     1      19.043  -0.789  32.393  1.00  0.00    -0.107 N 
HETATM   25  O4  UNK     1      18.215  -1.533  31.855  1.00  0.00    -0.531 OA
HETATM   26  O5  UNK     1      20.189  -0.564  31.988  1.00  0.00    -0.531 OA
ENDBRANCH   6  24
TORSDOF 6
ENDMDL
