MODEL 1
REMARK VINA RESULT:      -9.7      0.000      0.000
REMARK  2 active torsions:
REMARK  status: ('A' for Active; 'I' for Inactive)
REMARK       I    between atoms: C11_18  and  N1_5 
REMARK    1  A    between atoms: C2_9  and  N1_5 
REMARK    2  A    between atoms: C11_18  and  C5_12 
ROOT
HETATM    1  O2  UNK     1      16.930  -1.828  16.921  1.00  0.00    -0.267 OA
HETATM    2  N1  UNK     1      19.120  -0.973  16.796  1.00  0.00    -0.323 N 
HETATM    3  C11 UNK     1      18.044  -1.757  16.404  1.00  0.00     0.262 C 
HETATM    4  H5  UNK     1      19.987  -1.047  16.269  1.00  0.00     0.169 HD
ENDROOT
BRANCH   3   5
HETATM    5  C5  UNK     1      18.351  -2.572  15.223  1.00  0.00     0.108 A 
HETATM    6  C13 UNK     1      19.093  -2.025  14.064  1.00  0.00     0.304 A 
HETATM    7  O1  UNK     1      19.324  -2.894  13.002  1.00  0.00    -0.274 OA
HETATM    8  O3  UNK     1      19.486  -0.863  14.036  1.00  0.00    -0.259 OA
HETATM    9  C7  UNK     1      18.875  -4.229  13.024  1.00  0.00     0.089 A 
HETATM   10  C15 UNK     1      19.154  -5.024  11.915  1.00  0.00     0.039 A 
HETATM   11  C4  UNK     1      18.179  -4.724  14.123  1.00  0.00     0.000 A 
HETATM   12  C17 UNK     1      18.723  -6.350  11.908  1.00  0.00     0.022 A 
HETATM   13  C16 UNK     1      18.024  -6.863  13.002  1.00  0.00     0.011 A 
HETATM   14 Br1  UNK     1      17.441  -8.662  12.985  1.00  0.00    -0.051 Br
HETATM   15  C12 UNK     1      17.752  -6.053  14.108  1.00  0.00     0.033 A 
HETATM   16  C8  UNK     1      17.922  -3.839  15.249  1.00  0.00     0.037 A 
ENDBRANCH   3   5
BRANCH   2  17
HETATM   17  C2  UNK     1      19.181  -0.070  17.884  1.00  0.00     0.037 A 
HETATM   18  C6  UNK     1      19.469  -0.571  19.148  1.00  0.00     0.061 A 
HETATM   19  C1  UNK     1      19.518   0.361  20.185  1.00  0.00     0.064 A 
HETATM   20  N2  UNK     1      19.769   0.223  21.524  1.00  0.00    -0.278 N 
HETATM   21  C3  UNK     1      19.296   1.721  19.994  1.00  0.00     0.011 A 
HETATM   22  H7  UNK     1      19.975  -0.631  22.029  1.00  0.00     0.189 HD
HETATM   23  N3  UNK     1      19.728   1.374  22.215  1.00  0.00    -0.186 NA
HETATM   24  C14 UNK     1      19.440   2.284  21.281  1.00  0.00     0.152 A 
HETATM   25  C10 UNK     1      19.007   2.196  18.704  1.00  0.00     0.017 A 
HETATM   26  C9  UNK     1      18.953   1.277  17.649  1.00  0.00     0.030 A 
ENDBRANCH   2  17
TORSDOF 2
ENDMDL
MODEL 2
REMARK VINA RESULT:      -9.4     14.328     18.829
REMARK  2 active torsions:
REMARK  status: ('A' for Active; 'I' for Inactive)
REMARK       I    between atoms: C11_18  and  N1_5 
REMARK    1  A    between atoms: C2_9  and  N1_5 
REMARK    2  A    between atoms: C11_18  and  C5_12 
ROOT
HETATM    1  O2  UNK     1      19.071   5.506  30.300  1.00  0.00    -0.267 OA
HETATM    2  N1  UNK     1      18.055   3.672  31.372  1.00  0.00    -0.323 N 
HETATM    3  C11 UNK     1      18.386   5.008  31.192  1.00  0.00     0.262 C 
HETATM    4  H5  UNK     1      17.491   3.420  32.180  1.00  0.00     0.169 HD
ENDROOT
BRANCH   3   5
HETATM    5  C5  UNK     1      17.809   5.868  32.232  1.00  0.00     0.108 A 
HETATM    6  C13 UNK     1      18.088   5.654  33.671  1.00  0.00     0.304 A 
HETATM    7  O1  UNK     1      17.483   6.535  34.563  1.00  0.00    -0.274 OA
HETATM    8  O3  UNK     1      18.814   4.746  34.062  1.00  0.00    -0.259 OA
HETATM    9  C7  UNK     1      16.647   7.579  34.122  1.00  0.00     0.089 A 
HETATM   10  C15 UNK     1      16.087   8.411  35.090  1.00  0.00     0.039 A 
HETATM   11  C4  UNK     1      16.398   7.763  32.765  1.00  0.00     0.000 A 
HETATM   12  C17 UNK     1      15.256   9.454  34.685  1.00  0.00     0.022 A 
HETATM   13  C16 UNK     1      14.995   9.654  33.328  1.00  0.00     0.011 A 
HETATM   14 Br1  UNK     1      13.865  11.071  32.787  1.00  0.00    -0.051 Br
HETATM   15  C12 UNK     1      15.565   8.812  32.369  1.00  0.00     0.033 A 
HETATM   16  C8  UNK     1      17.016   6.858  31.808  1.00  0.00     0.037 A 
ENDBRANCH   3   5
BRANCH   2  17
HETATM   17  C2  UNK     1      18.433   2.571  30.566  1.00  0.00     0.037 A 
HETATM   18  C6  UNK     1      19.333   1.647  31.081  1.00  0.00     0.061 A 
HETATM   19  C1  UNK     1      19.671   0.581  30.246  1.00  0.00     0.064 A 
HETATM   20  N2  UNK     1      20.508  -0.487  30.425  1.00  0.00    -0.278 N 
HETATM   21  C3  UNK     1      19.152   0.428  28.965  1.00  0.00     0.011 A 
HETATM   22  H7  UNK     1      21.063  -0.707  31.243  1.00  0.00     0.189 HD
HETATM   23  N3  UNK     1      20.575  -1.318  29.372  1.00  0.00    -0.186 NA
HETATM   24  C14 UNK     1      19.749  -0.758  28.485  1.00  0.00     0.152 A 
HETATM   25  C10 UNK     1      18.243   1.380  28.472  1.00  0.00     0.017 A 
HETATM   26  C9  UNK     1      17.891   2.457  29.295  1.00  0.00     0.030 A 
ENDBRANCH   2  17
TORSDOF 2
ENDMDL
MODEL 3
REMARK VINA RESULT:      -9.3     13.724     16.362
REMARK  2 active torsions:
REMARK  status: ('A' for Active; 'I' for Inactive)
REMARK       I    between atoms: C11_18  and  N1_5 
REMARK    1  A    between atoms: C2_9  and  N1_5 
REMARK    2  A    between atoms: C11_18  and  C5_12 
ROOT
HETATM    1  O2  UNK     1      17.581   3.203  32.849  1.00  0.00    -0.267 OA
HETATM    2  N1  UNK     1      18.833   4.678  31.508  1.00  0.00    -0.323 N 
HETATM    3  C11 UNK     1      18.320   3.448  31.897  1.00  0.00     0.262 C 
HETATM    4  H5  UNK     1      19.452   4.708  30.701  1.00  0.00     0.169 HD
ENDROOT
BRANCH   3   5
HETATM    5  C5  UNK     1      18.756   2.360  31.015  1.00  0.00     0.108 A 
HETATM    6  C13 UNK     1      18.712   2.480  29.539  1.00  0.00     0.304 A 
HETATM    7  O1  UNK     1      19.152   1.380  28.809  1.00  0.00    -0.274 OA
HETATM    8  O3  UNK     1      18.307   3.496  28.984  1.00  0.00    -0.259 OA
HETATM    9  C7  UNK     1      19.617   0.208  29.439  1.00  0.00     0.089 A 
HETATM   10  C15 UNK     1      20.039  -0.840  28.624  1.00  0.00     0.039 A 
HETATM   11  C4  UNK     1      19.651   0.116  30.827  1.00  0.00     0.000 A 
HETATM   12  C17 UNK     1      20.505  -2.012  29.217  1.00  0.00     0.022 A 
HETATM   13  C16 UNK     1      20.546  -2.122  30.609  1.00  0.00     0.011 A 
HETATM   14 Br1  UNK     1      21.178  -3.716  31.407  1.00  0.00    -0.051 Br
HETATM   15  C12 UNK     1      20.120  -1.061  31.413  1.00  0.00     0.033 A 
HETATM   16  C8  UNK     1      19.197   1.250  31.618  1.00  0.00     0.037 A 
ENDBRANCH   3   5
BRANCH   2  17
HETATM   17  C2  UNK     1      18.622   5.936  32.121  1.00  0.00     0.037 A 
HETATM   18  C6  UNK     1      17.408   6.580  31.917  1.00  0.00     0.061 A 
HETATM   19  C1  UNK     1      17.252   7.817  32.544  1.00  0.00     0.064 A 
HETATM   20  N2  UNK     1      16.211   8.706  32.560  1.00  0.00    -0.278 N 
HETATM   21  C3  UNK     1      18.239   8.396  33.335  1.00  0.00     0.011 A 
HETATM   22  H7  UNK     1      15.318   8.619  32.092  1.00  0.00     0.189 HD
HETATM   23  N3  UNK     1      16.439   9.809  33.292  1.00  0.00    -0.186 NA
HETATM   24  C14 UNK     1      17.674   9.618  33.762  1.00  0.00     0.152 A 
HETATM   25  C10 UNK     1      19.456   7.719  33.522  1.00  0.00     0.017 A 
HETATM   26  C9  UNK     1      19.633   6.477  32.901  1.00  0.00     0.030 A 
ENDBRANCH   2  17
TORSDOF 2
ENDMDL
MODEL 4
REMARK VINA RESULT:      -9.2     19.749     20.794
REMARK  2 active torsions:
REMARK  status: ('A' for Active; 'I' for Inactive)
REMARK       I    between atoms: C11_18  and  N1_5 
REMARK    1  A    between atoms: C2_9  and  N1_5 
REMARK    2  A    between atoms: C11_18  and  C5_12 
ROOT
HETATM    1  O2  UNK     1      21.079  -3.868  36.850  1.00  0.00    -0.267 OA
HETATM    2  N1  UNK     1      18.744  -3.679  36.614  1.00  0.00    -0.323 N 
HETATM    3  C11 UNK     1      19.953  -4.350  36.740  1.00  0.00     0.262 C 
HETATM    4  H5  UNK     1      17.896  -4.230  36.511  1.00  0.00     0.169 HD
ENDROOT
BRANCH   3   5
HETATM    5  C5  UNK     1      19.782  -5.807  36.735  1.00  0.00     0.108 A 
HETATM    6  C13 UNK     1      18.462  -6.444  36.949  1.00  0.00     0.304 A 
HETATM    7  O1  UNK     1      18.426  -7.835  36.922  1.00  0.00    -0.274 OA
HETATM    8  O3  UNK     1      17.447  -5.781  37.142  1.00  0.00    -0.259 OA
HETATM    9  C7  UNK     1      19.587  -8.603  36.701  1.00  0.00     0.089 A 
HETATM   10  C15 UNK     1      19.451  -9.989  36.690  1.00  0.00     0.039 A 
HETATM   11  C4  UNK     1      20.817  -7.985  36.502  1.00  0.00     0.000 A 
HETATM   12  C17 UNK     1      20.581 -10.777  36.474  1.00  0.00     0.022 A 
HETATM   13  C16 UNK     1      21.825 -10.174  36.272  1.00  0.00     0.011 A 
HETATM   14 Br1  UNK     1      23.354 -11.248  35.981  1.00  0.00    -0.051 Br
HETATM   15  C12 UNK     1      21.944  -8.781  36.285  1.00  0.00     0.033 A 
HETATM   16  C8  UNK     1      20.887  -6.532  36.525  1.00  0.00     0.037 A 
ENDBRANCH   3   5
BRANCH   2  17
HETATM   17  C2  UNK     1      18.531  -2.279  36.583  1.00  0.00     0.037 A 
HETATM   18  C6  UNK     1      18.859  -1.582  35.427  1.00  0.00     0.061 A 
HETATM   19  C1  UNK     1      18.629  -0.206  35.449  1.00  0.00     0.064 A 
HETATM   20  N2  UNK     1      18.830   0.767  34.507  1.00  0.00    -0.278 N 
HETATM   21  C3  UNK     1      18.102   0.456  36.552  1.00  0.00     0.011 A 
HETATM   22  H7  UNK     1      19.205   0.655  33.573  1.00  0.00     0.189 HD
HETATM   23  N3  UNK     1      18.480   2.001  34.905  1.00  0.00    -0.186 NA
HETATM   24  C14 UNK     1      18.037   1.809  36.150  1.00  0.00     0.152 A 
HETATM   25  C10 UNK     1      17.780  -0.277  37.706  1.00  0.00     0.017 A 
HETATM   26  C9  UNK     1      18.004  -1.659  37.704  1.00  0.00     0.030 A 
ENDBRANCH   2  17
TORSDOF 2
ENDMDL
MODEL 5
REMARK VINA RESULT:      -9.0      2.274      2.985
REMARK  2 active torsions:
REMARK  status: ('A' for Active; 'I' for Inactive)
REMARK       I    between atoms: C11_18  and  N1_5 
REMARK    1  A    between atoms: C2_9  and  N1_5 
REMARK    2  A    between atoms: C11_18  and  C5_12 
ROOT
HETATM    1  O2  UNK     1      19.627   0.948  14.771  1.00  0.00    -0.267 OA
HETATM    2  N1  UNK     1      19.141  -0.629  16.452  1.00  0.00    -0.323 N 
HETATM    3  C11 UNK     1      19.360  -0.191  15.153  1.00  0.00     0.262 C 
HETATM    4  H5  UNK     1      18.908  -1.608  16.597  1.00  0.00     0.169 HD
ENDROOT
BRANCH   3   5
HETATM    5  C5  UNK     1      19.243  -1.277  14.173  1.00  0.00     0.108 A 
HETATM    6  C13 UNK     1      18.257  -2.372  14.330  1.00  0.00     0.304 A 
HETATM    7  O1  UNK     1      18.240  -3.345  13.335  1.00  0.00    -0.274 OA
HETATM    8  O3  UNK     1      17.492  -2.422  15.288  1.00  0.00    -0.259 OA
HETATM    9  C7  UNK     1      19.116  -3.295  12.232  1.00  0.00     0.089 A 
HETATM   10  C15 UNK     1      19.023  -4.315  11.287  1.00  0.00     0.039 A 
HETATM   11  C4  UNK     1      20.034  -2.258  12.104  1.00  0.00     0.000 A 
HETATM   12  C17 UNK     1      19.876  -4.293  10.185  1.00  0.00     0.022 A 
HETATM   13  C16 UNK     1      20.804  -3.259  10.039  1.00  0.00     0.011 A 
HETATM   14 Br1  UNK     1      21.959  -3.237   8.542  1.00  0.00    -0.051 Br
HETATM   15  C12 UNK     1      20.884  -2.243  10.996  1.00  0.00     0.033 A 
HETATM   16  C8  UNK     1      20.076  -1.225  13.128  1.00  0.00     0.037 A 
ENDBRANCH   3   5
BRANCH   2  17
HETATM   17  C2  UNK     1      19.176   0.139  17.640  1.00  0.00     0.037 A 
HETATM   18  C6  UNK     1      19.464  -0.502  18.838  1.00  0.00     0.061 A 
HETATM   19  C1  UNK     1      19.486   0.301  19.980  1.00  0.00     0.064 A 
HETATM   20  N2  UNK     1      19.729   0.010  21.295  1.00  0.00    -0.278 N 
HETATM   21  C3  UNK     1      19.238   1.669  19.948  1.00  0.00     0.011 A 
HETATM   22  H7  UNK     1      19.948  -0.894  21.697  1.00  0.00     0.189 HD
HETATM   23  N3  UNK     1      19.660   1.069  22.117  1.00  0.00    -0.186 NA
HETATM   24  C14 UNK     1      19.360   2.078  21.295  1.00  0.00     0.152 A 
HETATM   25  C10 UNK     1      18.950   2.289  18.721  1.00  0.00     0.017 A 
HETATM   26  C9  UNK     1      18.923   1.500  17.564  1.00  0.00     0.030 A 
ENDBRANCH   2  17
TORSDOF 2
ENDMDL
MODEL 6
REMARK VINA RESULT:      -9.0     18.880     21.258
REMARK  2 active torsions:
REMARK  status: ('A' for Active; 'I' for Inactive)
REMARK       I    between atoms: C11_18  and  N1_5 
REMARK    1  A    between atoms: C2_9  and  N1_5 
REMARK    2  A    between atoms: C11_18  and  C5_12 
ROOT
HETATM    1  O2  UNK     1      21.209  -4.433  37.056  1.00  0.00    -0.267 OA
HETATM    2  N1  UNK     1      19.613  -5.519  35.707  1.00  0.00    -0.323 N 
HETATM    3  C11 UNK     1      20.294  -4.430  36.234  1.00  0.00     0.262 C 
HETATM    4  H5  UNK     1      18.860  -5.343  35.046  1.00  0.00     0.169 HD
ENDROOT
BRANCH   3   5
HETATM    5  C5  UNK     1      19.804  -3.156  35.695  1.00  0.00     0.108 A 
HETATM    6  C13 UNK     1      20.142  -2.701  34.326  1.00  0.00     0.304 A 
HETATM    7  O1  UNK     1      19.619  -1.474  33.928  1.00  0.00    -0.274 OA
HETATM    8  O3  UNK     1      20.849  -3.368  33.578  1.00  0.00    -0.259 OA
HETATM    9  C7  UNK     1      18.807  -0.701  34.781  1.00  0.00     0.089 A 
HETATM   10  C15 UNK     1      18.329   0.513  34.293  1.00  0.00     0.039 A 
HETATM   11  C4  UNK     1      18.501  -1.147  36.063  1.00  0.00     0.000 A 
HETATM   12  C17 UNK     1      17.523   1.301  35.114  1.00  0.00     0.022 A 
HETATM   13  C16 UNK     1      17.205   0.869  36.403  1.00  0.00     0.011 A 
HETATM   14 Br1  UNK     1      16.112   1.944  37.511  1.00  0.00    -0.051 Br
HETATM   15  C12 UNK     1      17.693  -0.352  36.878  1.00  0.00     0.033 A 
HETATM   16  C8  UNK     1      19.034  -2.425  36.509  1.00  0.00     0.037 A 
ENDBRANCH   3   5
BRANCH   2  17
HETATM   17  C2  UNK     1      19.819  -6.889  35.997  1.00  0.00     0.037 A 
HETATM   18  C6  UNK     1      19.067  -7.476  37.007  1.00  0.00     0.061 A 
HETATM   19  C1  UNK     1      19.308  -8.829  37.251  1.00  0.00     0.064 A 
HETATM   20  N2  UNK     1      18.762  -9.704  38.151  1.00  0.00    -0.278 N 
HETATM   21  C3  UNK     1      20.243  -9.572  36.538  1.00  0.00     0.011 A 
HETATM   22  H7  UNK     1      18.044  -9.514  38.840  1.00  0.00     0.189 HD
HETATM   23  N3  UNK     1      19.262 -10.949  38.082  1.00  0.00    -0.186 NA
HETATM   24  C14 UNK     1      20.163 -10.866  37.100  1.00  0.00     0.152 A 
HETATM   25  C10 UNK     1      20.987  -8.950  35.522  1.00  0.00     0.017 A 
HETATM   26  C9  UNK     1      20.760  -7.594  35.262  1.00  0.00     0.030 A 
ENDBRANCH   2  17
TORSDOF 2
ENDMDL
MODEL 7
REMARK VINA RESULT:      -8.9     16.885     21.466
REMARK  2 active torsions:
REMARK  status: ('A' for Active; 'I' for Inactive)
REMARK       I    between atoms: C11_18  and  N1_5 
REMARK    1  A    between atoms: C2_9  and  N1_5 
REMARK    2  A    between atoms: C11_18  and  C5_12 
ROOT
HETATM    1  O2  UNK     1      19.427   7.487  34.184  1.00  0.00    -0.267 OA
HETATM    2  N1  UNK     1      17.812   7.335  32.477  1.00  0.00    -0.323 N 
HETATM    3  C11 UNK     1      18.446   7.906  33.572  1.00  0.00     0.262 C 
HETATM    4  H5  UNK     1      16.992   7.802  32.097  1.00  0.00     0.169 HD
ENDROOT
BRANCH   3   5
HETATM    5  C5  UNK     1      17.809   9.160  33.990  1.00  0.00     0.108 A 
HETATM    6  C13 UNK     1      16.485   9.185  34.654  1.00  0.00     0.304 A 
HETATM    7  O1  UNK     1      15.984  10.436  35.003  1.00  0.00    -0.274 OA
HETATM    8  O3  UNK     1      15.856   8.157  34.884  1.00  0.00    -0.259 OA
HETATM    9  C7  UNK     1      16.698  11.622  34.741  1.00  0.00     0.089 A 
HETATM   10  C15 UNK     1      16.116  12.826  35.129  1.00  0.00     0.039 A 
HETATM   11  C4  UNK     1      17.941  11.576  34.118  1.00  0.00     0.000 A 
HETATM   12  C17 UNK     1      16.798  14.016  34.884  1.00  0.00     0.022 A 
HETATM   13  C16 UNK     1      18.047  13.990  34.259  1.00  0.00     0.011 A 
HETATM   14 Br1  UNK     1      18.967  15.609  33.928  1.00  0.00    -0.051 Br
HETATM   15  C12 UNK     1      18.618  12.774  33.876  1.00  0.00     0.033 A 
HETATM   16  C8  UNK     1      18.491  10.284  33.739  1.00  0.00     0.037 A 
ENDBRANCH   3   5
BRANCH   2  17
HETATM   17  C2  UNK     1      18.154   6.134  31.811  1.00  0.00     0.037 A 
HETATM   18  C6  UNK     1      17.756   4.926  32.371  1.00  0.00     0.061 A 
HETATM   19  C1  UNK     1      18.117   3.772  31.674  1.00  0.00     0.064 A 
HETATM   20  N2  UNK     1      17.896   2.446  31.930  1.00  0.00    -0.278 N 
HETATM   21  C3  UNK     1      18.834   3.800  30.483  1.00  0.00     0.011 A 
HETATM   22  H7  UNK     1      17.404   2.042  32.717  1.00  0.00     0.189 HD
HETATM   23  N3  UNK     1      18.408   1.614  31.008  1.00  0.00    -0.186 NA
HETATM   24  C14 UNK     1      18.979   2.441  30.129  1.00  0.00     0.152 A 
HETATM   25  C10 UNK     1      19.222   5.038  29.941  1.00  0.00     0.017 A 
HETATM   26  C9  UNK     1      18.869   6.207  30.626  1.00  0.00     0.030 A 
ENDBRANCH   2  17
TORSDOF 2
ENDMDL
MODEL 8
REMARK VINA RESULT:      -8.9     23.283     24.874
REMARK  2 active torsions:
REMARK  status: ('A' for Active; 'I' for Inactive)
REMARK       I    between atoms: C11_18  and  N1_5 
REMARK    1  A    between atoms: C2_9  and  N1_5 
REMARK    2  A    between atoms: C11_18  and  C5_12 
ROOT
HETATM    1  O2  UNK     1      26.125  -9.147  39.245  1.00  0.00    -0.267 OA
HETATM    2  N1  UNK     1      24.680  -7.429  38.535  1.00  0.00    -0.323 N 
HETATM    3  C11 UNK     1      25.901  -7.997  38.870  1.00  0.00     0.262 C 
HETATM    4  H5  UNK     1      24.664  -6.449  38.262  1.00  0.00     0.169 HD
ENDROOT
BRANCH   3   5
HETATM    5  C5  UNK     1      27.012  -7.048  38.735  1.00  0.00     0.108 A 
HETATM    6  C13 UNK     1      26.805  -5.583  38.805  1.00  0.00     0.304 A 
HETATM    7  O1  UNK     1      27.936  -4.784  38.662  1.00  0.00    -0.274 OA
HETATM    8  O3  UNK     1      25.694  -5.093  38.978  1.00  0.00    -0.259 OA
HETATM    9  C7  UNK     1      29.216  -5.338  38.462  1.00  0.00     0.089 A 
HETATM   10  C15 UNK     1      30.288  -4.458  38.331  1.00  0.00     0.039 A 
HETATM   11  C4  UNK     1      29.388  -6.717  38.400  1.00  0.00     0.000 A 
HETATM   12  C17 UNK     1      31.566  -4.975  38.132  1.00  0.00     0.022 A 
HETATM   13  C16 UNK     1      31.759  -6.357  38.067  1.00  0.00     0.011 A 
HETATM   14 Br1  UNK     1      33.496  -7.053  37.796  1.00  0.00    -0.051 Br
HETATM   15  C12 UNK     1      30.673  -7.227  38.201  1.00  0.00     0.033 A 
HETATM   16  C8  UNK     1      28.225  -7.579  38.545  1.00  0.00     0.037 A 
ENDBRANCH   3   5
BRANCH   2  17
HETATM   17  C2  UNK     1      23.406  -8.046  38.547  1.00  0.00     0.037 A 
HETATM   18  C6  UNK     1      22.964  -8.680  37.393  1.00  0.00     0.061 A 
HETATM   19  C1  UNK     1      21.702  -9.274  37.459  1.00  0.00     0.064 A 
HETATM   20  N2  UNK     1      20.971  -9.967  36.532  1.00  0.00    -0.278 N 
HETATM   21  C3  UNK     1      20.911  -9.247  38.602  1.00  0.00     0.011 A 
HETATM   22  H7  UNK     1      21.231 -10.184  35.577  1.00  0.00     0.189 HD
HETATM   23  N3  UNK     1      19.777 -10.390  36.976  1.00  0.00    -0.186 NA
HETATM   24  C14 UNK     1      19.743  -9.951  38.236  1.00  0.00     0.152 A 
HETATM   25  C10 UNK     1      21.387  -8.598  39.754  1.00  0.00     0.017 A 
HETATM   26  C9  UNK     1      22.650  -7.996  39.708  1.00  0.00     0.030 A 
ENDBRANCH   2  17
TORSDOF 2
ENDMDL
MODEL 9
REMARK VINA RESULT:      -8.8     17.301     20.810
REMARK  2 active torsions:
REMARK  status: ('A' for Active; 'I' for Inactive)
REMARK       I    between atoms: C11_18  and  N1_5 
REMARK    1  A    between atoms: C2_9  and  N1_5 
REMARK    2  A    between atoms: C11_18  and  C5_12 
ROOT
HETATM    1  O2  UNK     1      21.394  -4.176  37.123  1.00  0.00    -0.267 OA
HETATM    2  N1  UNK     1      19.336  -5.247  36.719  1.00  0.00    -0.323 N 
HETATM    3  C11 UNK     1      20.274  -4.229  36.617  1.00  0.00     0.262 C 
HETATM    4  H5  UNK     1      18.441  -5.125  36.253  1.00  0.00     0.169 HD
ENDROOT
BRANCH   3   5
HETATM    5  C5  UNK     1      19.798  -3.115  35.788  1.00  0.00     0.108 A 
HETATM    6  C13 UNK     1      18.876  -2.083  36.316  1.00  0.00     0.304 A 
HETATM    7  O1  UNK     1      18.494  -1.076  35.433  1.00  0.00    -0.274 OA
HETATM    8  O3  UNK     1      18.466  -2.110  37.471  1.00  0.00    -0.259 OA
HETATM    9  C7  UNK     1      18.959  -1.038  34.104  1.00  0.00     0.089 A 
HETATM   10  C15 UNK     1      18.523   0.010  33.296  1.00  0.00     0.039 A 
HETATM   11  C4  UNK     1      19.826  -2.018  33.629  1.00  0.00     0.000 A 
HETATM   12  C17 UNK     1      18.966   0.075  31.977  1.00  0.00     0.022 A 
HETATM   13  C16 UNK     1      19.836  -0.899  31.482  1.00  0.00     0.011 A 
HETATM   14 Br1  UNK     1      20.432  -0.804  29.690  1.00  0.00    -0.051 Br
HETATM   15  C12 UNK     1      20.266  -1.944  32.305  1.00  0.00     0.033 A 
HETATM   16  C8  UNK     1      20.243  -3.083  34.527  1.00  0.00     0.037 A 
ENDBRANCH   3   5
BRANCH   2  17
HETATM   17  C2  UNK     1      19.456  -6.464  37.431  1.00  0.00     0.037 A 
HETATM   18  C6  UNK     1      19.131  -7.649  36.783  1.00  0.00     0.061 A 
HETATM   19  C1  UNK     1      19.267  -8.820  37.530  1.00  0.00     0.064 A 
HETATM   20  N2  UNK     1      19.041 -10.133  37.216  1.00  0.00    -0.278 N 
HETATM   21  C3  UNK     1      19.701  -8.830  38.851  1.00  0.00     0.011 A 
HETATM   22  H7  UNK     1      18.714 -10.510  36.334  1.00  0.00     0.189 HD
HETATM   23  N3  UNK     1      19.290 -10.991  38.219  1.00  0.00    -0.186 NA
HETATM   24  C14 UNK     1      19.692 -10.195  39.213  1.00  0.00     0.152 A 
HETATM   25  C10 UNK     1      20.022  -7.615  39.479  1.00  0.00     0.017 A 
HETATM   26  C9  UNK     1      19.892  -6.429  38.747  1.00  0.00     0.030 A 
ENDBRANCH   2  17
TORSDOF 2
ENDMDL
MODEL 10
REMARK VINA RESULT:      -8.8     19.655     21.179
REMARK  2 active torsions:
REMARK  status: ('A' for Active; 'I' for Inactive)
REMARK       I    between atoms: C11_18  and  N1_5 
REMARK    1  A    between atoms: C2_9  and  N1_5 
REMARK    2  A    between atoms: C11_18  and  C5_12 
ROOT
HETATM    1  O2  UNK     1      20.877  -3.760  37.860  1.00  0.00    -0.267 OA
HETATM    2  N1  UNK     1      18.925  -3.604  36.551  1.00  0.00    -0.323 N 
HETATM    3  C11 UNK     1      19.983  -4.253  37.173  1.00  0.00     0.262 C 
HETATM    4  H5  UNK     1      18.279  -4.160  35.997  1.00  0.00     0.169 HD
ENDROOT
BRANCH   3   5
HETATM    5  C5  UNK     1      19.964  -5.701  36.936  1.00  0.00     0.108 A 
HETATM    6  C13 UNK     1      20.142  -6.278  35.584  1.00  0.00     0.304 A 
HETATM    7  O1  UNK     1      20.104  -7.665  35.486  1.00  0.00    -0.274 OA
HETATM    8  O3  UNK     1      20.313  -5.571  34.596  1.00  0.00    -0.259 OA
HETATM    9  C7  UNK     1      19.906  -8.485  36.615  1.00  0.00     0.089 A 
HETATM   10  C15 UNK     1      19.885  -9.863  36.417  1.00  0.00     0.039 A 
HETATM   11  C4  UNK     1      19.742  -7.923  37.877  1.00  0.00     0.000 A 
HETATM   12  C17 UNK     1      19.692 -10.700  37.515  1.00  0.00     0.022 A 
HETATM   13  C16 UNK     1      19.525 -10.154  38.789  1.00  0.00     0.011 A 
HETATM   14 Br1  UNK     1      19.263 -11.296  40.274  1.00  0.00    -0.051 Br
HETATM   15  C12 UNK     1      19.550  -8.769  38.971  1.00  0.00     0.033 A 
HETATM   16  C8  UNK     1      19.776  -6.475  38.012  1.00  0.00     0.037 A 
ENDBRANCH   3   5
BRANCH   2  17
HETATM   17  C2  UNK     1      18.631  -2.220  36.566  1.00  0.00     0.037 A 
HETATM   18  C6  UNK     1      18.969  -1.457  35.455  1.00  0.00     0.061 A 
HETATM   19  C1  UNK     1      18.656  -0.098  35.521  1.00  0.00     0.064 A 
HETATM   20  N2  UNK     1      18.842   0.924  34.630  1.00  0.00    -0.278 N 
HETATM   21  C3  UNK     1      18.041   0.486  36.623  1.00  0.00     0.011 A 
HETATM   22  H7  UNK     1      19.264   0.874  33.711  1.00  0.00     0.189 HD
HETATM   23  N3  UNK     1      18.401   2.118  35.059  1.00  0.00    -0.186 NA
HETATM   24  C14 UNK     1      17.914   1.848  36.273  1.00  0.00     0.152 A 
HETATM   25  C10 UNK     1      17.712  -0.314  37.731  1.00  0.00     0.017 A 
HETATM   26  C9  UNK     1      18.017  -1.679  37.685  1.00  0.00     0.030 A 
ENDBRANCH   2  17
TORSDOF 2
ENDMDL
