MODEL 1
REMARK VINA RESULT:      -8.6      0.000      0.000
REMARK  3 active torsions:
REMARK  status: ('A' for Active; 'I' for Inactive)
REMARK    1  A    between atoms: C9_13  and  O2_2 
REMARK    2  A    between atoms: C10_14  and  O3_3 
REMARK    3  A    between atoms: C3_7  and  C4_8 
ROOT
HETATM    1  O1  UNK     1      18.945  -0.264  33.066  1.00  0.00    -0.309 OA
HETATM    2  O4  UNK     1      21.311  -3.525  32.458  1.00  0.00    -0.287 OA
HETATM    3  C1  UNK     1      20.243  -1.631  31.533  1.00  0.00     0.048 A 
HETATM    4  C2  UNK     1      19.429  -0.533  31.811  1.00  0.00     0.093 A 
HETATM    5  C3  UNK     1      19.273  -1.129  34.100  1.00  0.00     0.093 A 
HETATM    6  C5  UNK     1      20.600  -2.544  32.629  1.00  0.00     0.187 A 
HETATM    7  C6  UNK     1      20.051  -2.213  33.959  1.00  0.00     0.094 A 
HETATM    8  C7  UNK     1      19.077   0.350  30.790  1.00  0.00     0.075 A 
HETATM    9  C8  UNK     1      20.707  -1.854  30.235  1.00  0.00     0.021 A 
HETATM   10  C10 UNK     1      19.539   0.129  29.493  1.00  0.00     0.070 A 
HETATM   11  C12 UNK     1      20.353  -0.971  29.216  1.00  0.00     0.038 A 
ENDROOT
BRANCH   5  12
HETATM   12  C4  UNK     1      18.704  -0.743  35.406  1.00  0.00     0.031 A 
HETATM   13  C11 UNK     1      18.198  -1.738  36.249  1.00  0.00     0.017 A 
HETATM   14  C14 UNK     1      17.655  -1.398  37.489  1.00  0.00     0.001 A 
HETATM   15  C15 UNK     1      17.614  -0.064  37.891  1.00  0.00     0.003 A 
HETATM   16  C13 UNK     1      18.118   0.932  37.053  1.00  0.00     0.038 A 
HETATM   17  C9  UNK     1      18.661   0.593  35.815  1.00  0.00     0.081 A 
BRANCH  17  18
HETATM   18  O2  UNK     1      19.146   1.586  35.016  1.00  0.00    -0.355 OA
HETATM   19  C16 UNK     1      18.278   2.686  34.751  1.00  0.00     0.210 C 
ENDBRANCH  17  18
ENDBRANCH   5  12
BRANCH  10  20
HETATM   20  O3  UNK     1      19.197   0.988  28.493  1.00  0.00    -0.356 OA
HETATM   21  C17 UNK     1      17.997   1.740  28.667  1.00  0.00     0.210 C 
ENDBRANCH  10  20
TORSDOF 3
ENDMDL
MODEL 2
REMARK VINA RESULT:      -8.5     24.458     26.559
REMARK  3 active torsions:
REMARK  status: ('A' for Active; 'I' for Inactive)
REMARK    1  A    between atoms: C9_13  and  O2_2 
REMARK    2  A    between atoms: C10_14  and  O3_3 
REMARK    3  A    between atoms: C3_7  and  C4_8 
ROOT
HETATM    1  O1  UNK     1      13.374   7.481   8.518  1.00  0.00    -0.309 OA
HETATM    2  O4  UNK     1      15.393   4.146   9.704  1.00  0.00    -0.287 OA
HETATM    3  C1  UNK     1      15.345   6.504   9.549  1.00  0.00     0.048 A 
HETATM    4  C2  UNK     1      14.601   7.602   9.120  1.00  0.00     0.093 A 
HETATM    5  C3  UNK     1      12.858   6.209   8.321  1.00  0.00     0.093 A 
HETATM    6  C5  UNK     1      14.796   5.153   9.351  1.00  0.00     0.187 A 
HETATM    7  C6  UNK     1      13.475   5.077   8.695  1.00  0.00     0.094 A 
HETATM    8  C7  UNK     1      15.098   8.893   9.298  1.00  0.00     0.075 A 
HETATM    9  C8  UNK     1      16.589   6.688  10.157  1.00  0.00     0.021 A 
HETATM   10  C10 UNK     1      16.340   9.080   9.905  1.00  0.00     0.070 A 
HETATM   11  C12 UNK     1      17.084   7.979  10.334  1.00  0.00     0.038 A 
ENDROOT
BRANCH   5  12
HETATM   12  C4  UNK     1      11.533   6.194   7.671  1.00  0.00     0.031 A 
HETATM   13  C11 UNK     1      11.444   6.454   6.300  1.00  0.00     0.017 A 
HETATM   14  C14 UNK     1      10.202   6.446   5.663  1.00  0.00     0.001 A 
HETATM   15  C15 UNK     1       9.045   6.179   6.394  1.00  0.00     0.003 A 
HETATM   16  C13 UNK     1       9.128   5.919   7.763  1.00  0.00     0.038 A 
HETATM   17  C9  UNK     1      10.369   5.927   8.399  1.00  0.00     0.081 A 
BRANCH  17  18
HETATM   18  O2  UNK     1      10.423   5.669   9.737  1.00  0.00    -0.355 OA
HETATM   19  C16 UNK     1      10.018   4.370  10.163  1.00  0.00     0.210 C 
ENDBRANCH  17  18
ENDBRANCH   5  12
BRANCH  10  20
HETATM   20  O3  UNK     1      16.829  10.339  10.080  1.00  0.00    -0.356 OA
HETATM   21  C17 UNK     1      17.564  10.906   8.997  1.00  0.00     0.210 C 
ENDBRANCH  10  20
TORSDOF 3
ENDMDL
MODEL 3
REMARK VINA RESULT:      -8.4     24.161     27.019
REMARK  3 active torsions:
REMARK  status: ('A' for Active; 'I' for Inactive)
REMARK    1  A    between atoms: C9_13  and  O2_2 
REMARK    2  A    between atoms: C10_14  and  O3_3 
REMARK    3  A    between atoms: C3_7  and  C4_8 
ROOT
HETATM    1  O1  UNK     1      11.670   7.776   9.118  1.00  0.00    -0.309 OA
HETATM    2  O4  UNK     1      11.929   6.030   5.445  1.00  0.00    -0.287 OA
HETATM    3  C1  UNK     1      10.545   6.782   7.207  1.00  0.00     0.048 A 
HETATM    4  C2  UNK     1      10.528   7.385   8.464  1.00  0.00     0.093 A 
HETATM    5  C3  UNK     1      12.892   7.551   8.503  1.00  0.00     0.093 A 
HETATM    6  C5  UNK     1      11.840   6.552   6.548  1.00  0.00     0.187 A 
HETATM    7  C6  UNK     1      13.038   6.986   7.294  1.00  0.00     0.094 A 
HETATM    8  C7  UNK     1       9.314   7.616   9.110  1.00  0.00     0.075 A 
HETATM    9  C8  UNK     1       9.351   6.406   6.589  1.00  0.00     0.021 A 
HETATM   10  C10 UNK     1       8.119   7.242   8.495  1.00  0.00     0.070 A 
HETATM   11  C12 UNK     1       8.138   6.638   7.237  1.00  0.00     0.038 A 
ENDROOT
BRANCH   5  12
HETATM   12  C4  UNK     1      14.053   8.014   9.291  1.00  0.00     0.031 A 
HETATM   13  C11 UNK     1      14.538   9.310   9.091  1.00  0.00     0.017 A 
HETATM   14  C14 UNK     1      15.633   9.770   9.823  1.00  0.00     0.001 A 
HETATM   15  C15 UNK     1      16.248   8.936  10.756  1.00  0.00     0.003 A 
HETATM   16  C13 UNK     1      15.768   7.642  10.959  1.00  0.00     0.038 A 
HETATM   17  C9  UNK     1      14.673   7.183  10.228  1.00  0.00     0.081 A 
BRANCH  17  18
HETATM   18  O2  UNK     1      14.223   5.913  10.445  1.00  0.00    -0.355 OA
HETATM   19  C16 UNK     1      15.044   4.847   9.974  1.00  0.00     0.210 C 
ENDBRANCH  17  18
ENDBRANCH   5  12
BRANCH  10  20
HETATM   20  O3  UNK     1       6.932   7.466   9.123  1.00  0.00    -0.356 OA
HETATM   21  C17 UNK     1       6.987   7.865  10.492  1.00  0.00     0.210 C 
ENDBRANCH  10  20
TORSDOF 3
ENDMDL
MODEL 4
REMARK VINA RESULT:      -8.3      1.118      2.075
REMARK  3 active torsions:
REMARK  status: ('A' for Active; 'I' for Inactive)
REMARK    1  A    between atoms: C9_13  and  O2_2 
REMARK    2  A    between atoms: C10_14  and  O3_3 
REMARK    3  A    between atoms: C3_7  and  C4_8 
ROOT
HETATM    1  O1  UNK     1      18.940  -0.219  33.053  1.00  0.00    -0.309 OA
HETATM    2  O4  UNK     1      21.285  -3.481  32.376  1.00  0.00    -0.287 OA
HETATM    3  C1  UNK     1      20.217  -1.569  31.488  1.00  0.00     0.048 A 
HETATM    4  C2  UNK     1      19.411  -0.472  31.789  1.00  0.00     0.093 A 
HETATM    5  C3  UNK     1      19.274  -1.100  34.071  1.00  0.00     0.093 A 
HETATM    6  C5  UNK     1      20.581  -2.500  32.567  1.00  0.00     0.187 A 
HETATM    7  C6  UNK     1      20.046  -2.186  33.907  1.00  0.00     0.094 A 
HETATM    8  C7  UNK     1      19.053   0.427  30.784  1.00  0.00     0.075 A 
HETATM    9  C8  UNK     1      20.668  -1.776  30.183  1.00  0.00     0.021 A 
HETATM   10  C10 UNK     1      19.502   0.222  29.480  1.00  0.00     0.070 A 
HETATM   11  C12 UNK     1      20.309  -0.877  29.180  1.00  0.00     0.038 A 
ENDROOT
BRANCH   5  12
HETATM   12  C4  UNK     1      18.719  -0.730  35.388  1.00  0.00     0.031 A 
HETATM   13  C11 UNK     1      18.188   0.551  35.568  1.00  0.00     0.017 A 
HETATM   14  C14 UNK     1      17.658   0.923  36.804  1.00  0.00     0.001 A 
HETATM   15  C15 UNK     1      17.658   0.018  37.865  1.00  0.00     0.003 A 
HETATM   16  C13 UNK     1      18.187  -1.262  37.690  1.00  0.00     0.038 A 
HETATM   17  C9  UNK     1      18.716  -1.634  36.455  1.00  0.00     0.081 A 
BRANCH  17  18
HETATM   18  O2  UNK     1      19.227  -2.890  36.311  1.00  0.00    -0.355 OA
HETATM   19  C16 UNK     1      20.118  -3.346  37.326  1.00  0.00     0.210 C 
ENDBRANCH  17  18
ENDBRANCH   5  12
BRANCH  10  20
HETATM   20  O3  UNK     1      19.154   1.097  28.496  1.00  0.00    -0.356 OA
HETATM   21  C17 UNK     1      17.956   1.848  28.689  1.00  0.00     0.210 C 
ENDBRANCH  10  20
TORSDOF 3
ENDMDL
MODEL 5
REMARK VINA RESULT:      -8.3      2.438      5.445
REMARK  3 active torsions:
REMARK  status: ('A' for Active; 'I' for Inactive)
REMARK    1  A    between atoms: C9_13  and  O2_2 
REMARK    2  A    between atoms: C10_14  and  O3_3 
REMARK    3  A    between atoms: C3_7  and  C4_8 
ROOT
HETATM    1  O1  UNK     1      19.324   2.024  31.256  1.00  0.00    -0.309 OA
HETATM    2  O4  UNK     1      17.776   2.007  27.487  1.00  0.00    -0.287 OA
HETATM    3  C1  UNK     1      18.953   0.836  29.169  1.00  0.00     0.048 A 
HETATM    4  C2  UNK     1      19.457   0.909  30.466  1.00  0.00     0.093 A 
HETATM    5  C3  UNK     1      18.666   3.127  30.734  1.00  0.00     0.093 A 
HETATM    6  C5  UNK     1      18.245   2.002  28.616  1.00  0.00     0.187 A 
HETATM    7  C6  UNK     1      18.132   3.177  29.503  1.00  0.00     0.094 A 
HETATM    8  C7  UNK     1      20.131  -0.182  31.015  1.00  0.00     0.075 A 
HETATM    9  C8  UNK     1      19.118  -0.324  28.411  1.00  0.00     0.021 A 
HETATM   10  C10 UNK     1      20.298  -1.344  30.261  1.00  0.00     0.070 A 
HETATM   11  C12 UNK     1      19.792  -1.415  28.962  1.00  0.00     0.038 A 
ENDROOT
BRANCH   5  12
HETATM   12  C4  UNK     1      18.574   4.267  31.668  1.00  0.00     0.031 A 
HETATM   13  C11 UNK     1      18.906   5.548  31.214  1.00  0.00     0.017 A 
HETATM   14  C14 UNK     1      18.828   6.640  32.079  1.00  0.00     0.001 A 
HETATM   15  C15 UNK     1      18.419   6.458  33.399  1.00  0.00     0.003 A 
HETATM   16  C13 UNK     1      18.086   5.182  33.856  1.00  0.00     0.038 A 
HETATM   17  C9  UNK     1      18.164   4.090  32.993  1.00  0.00     0.081 A 
BRANCH  17  18
HETATM   18  O2  UNK     1      17.834   2.854  33.465  1.00  0.00    -0.355 OA
HETATM   19  C16 UNK     1      18.351   2.491  34.744  1.00  0.00     0.210 C 
ENDBRANCH  17  18
ENDBRANCH   5  12
BRANCH  10  20
HETATM   20  O3  UNK     1      20.955  -2.411  30.792  1.00  0.00    -0.356 OA
HETATM   21  C17 UNK     1      20.946  -2.536  32.214  1.00  0.00     0.210 C 
ENDBRANCH  10  20
TORSDOF 3
ENDMDL
MODEL 6
REMARK VINA RESULT:      -8.3     24.617     26.769
REMARK  3 active torsions:
REMARK  status: ('A' for Active; 'I' for Inactive)
REMARK    1  A    between atoms: C9_13  and  O2_2 
REMARK    2  A    between atoms: C10_14  and  O3_3 
REMARK    3  A    between atoms: C3_7  and  C4_8 
ROOT
HETATM    1  O1  UNK     1      13.368   7.724   8.416  1.00  0.00    -0.309 OA
HETATM    2  O4  UNK     1      15.295   4.347   9.633  1.00  0.00    -0.287 OA
HETATM    3  C1  UNK     1      15.319   6.702   9.442  1.00  0.00     0.048 A 
HETATM    4  C2  UNK     1      14.604   7.816   9.003  1.00  0.00     0.093 A 
HETATM    5  C3  UNK     1      12.810   6.465   8.244  1.00  0.00     0.093 A 
HETATM    6  C5  UNK     1      14.726   5.367   9.270  1.00  0.00     0.187 A 
HETATM    7  C6  UNK     1      13.396   5.321   8.630  1.00  0.00     0.094 A 
HETATM    8  C7  UNK     1      15.143   9.094   9.155  1.00  0.00     0.075 A 
HETATM    9  C8  UNK     1      16.573   6.856  10.033  1.00  0.00     0.021 A 
HETATM   10  C10 UNK     1      16.396   9.252   9.746  1.00  0.00     0.070 A 
HETATM   11  C12 UNK     1      17.110   8.135  10.185  1.00  0.00     0.038 A 
ENDROOT
BRANCH   5  12
HETATM   12  C4  UNK     1      11.478   6.482   7.608  1.00  0.00     0.031 A 
HETATM   13  C11 UNK     1      11.336   5.977   6.311  1.00  0.00     0.017 A 
HETATM   14  C14 UNK     1      10.087   5.982   5.689  1.00  0.00     0.001 A 
HETATM   15  C15 UNK     1       8.976   6.492   6.359  1.00  0.00     0.003 A 
HETATM   16  C13 UNK     1       9.112   6.996   7.653  1.00  0.00     0.038 A 
HETATM   17  C9  UNK     1      10.360   6.991   8.275  1.00  0.00     0.081 A 
BRANCH  17  18
HETATM   18  O2  UNK     1      10.466   7.490   9.540  1.00  0.00    -0.355 OA
HETATM   19  C16 UNK     1      10.347   8.903   9.690  1.00  0.00     0.210 C 
ENDBRANCH  17  18
ENDBRANCH   5  12
BRANCH  10  20
HETATM   20  O3  UNK     1      16.925  10.497   9.896  1.00  0.00    -0.356 OA
HETATM   21  C17 UNK     1      17.569  11.070   8.759  1.00  0.00     0.210 C 
ENDBRANCH  10  20
TORSDOF 3
ENDMDL
MODEL 7
REMARK VINA RESULT:      -8.2      1.579      5.962
REMARK  3 active torsions:
REMARK  status: ('A' for Active; 'I' for Inactive)
REMARK    1  A    between atoms: C9_13  and  O2_2 
REMARK    2  A    between atoms: C10_14  and  O3_3 
REMARK    3  A    between atoms: C3_7  and  C4_8 
ROOT
HETATM    1  O1  UNK     1      18.712  -0.548  33.505  1.00  0.00    -0.309 OA
HETATM    2  O4  UNK     1      20.620  -3.482  35.593  1.00  0.00    -0.287 OA
HETATM    3  C1  UNK     1      19.076  -1.692  35.618  1.00  0.00     0.048 A 
HETATM    4  C2  UNK     1      18.458  -0.711  34.844  1.00  0.00     0.093 A 
HETATM    5  C3  UNK     1      19.629  -1.394  32.900  1.00  0.00     0.093 A 
HETATM    6  C5  UNK     1      20.043  -2.597  34.976  1.00  0.00     0.187 A 
HETATM    7  C6  UNK     1      20.283  -2.379  33.535  1.00  0.00     0.094 A 
HETATM    8  C7  UNK     1      17.537   0.159  35.427  1.00  0.00     0.075 A 
HETATM    9  C8  UNK     1      18.779  -1.811  36.976  1.00  0.00     0.021 A 
HETATM   10  C10 UNK     1      17.237   0.043  36.785  1.00  0.00     0.070 A 
HETATM   11  C12 UNK     1      17.857  -0.941  37.558  1.00  0.00     0.038 A 
ENDROOT
BRANCH   5  12
HETATM   12  C4  UNK     1      19.822  -1.135  31.459  1.00  0.00     0.031 A 
HETATM   13  C11 UNK     1      20.367  -2.140  30.654  1.00  0.00     0.017 A 
HETATM   14  C14 UNK     1      20.559  -1.919  29.289  1.00  0.00     0.001 A 
HETATM   15  C15 UNK     1      20.207  -0.694  28.724  1.00  0.00     0.003 A 
HETATM   16  C13 UNK     1      19.662   0.312  29.524  1.00  0.00     0.038 A 
HETATM   17  C9  UNK     1      19.471   0.091  30.887  1.00  0.00     0.081 A 
BRANCH  17  18
HETATM   18  O2  UNK     1      18.937   1.091  31.646  1.00  0.00    -0.355 OA
HETATM   19  C16 UNK     1      18.567   2.290  30.968  1.00  0.00     0.210 C 
ENDBRANCH  17  18
ENDBRANCH   5  12
BRANCH  10  20
HETATM   20  O3  UNK     1      16.339   0.890  37.358  1.00  0.00    -0.356 OA
HETATM   21  C17 UNK     1      15.051   0.979  36.749  1.00  0.00     0.210 C 
ENDBRANCH  10  20
TORSDOF 3
ENDMDL
MODEL 8
REMARK VINA RESULT:      -8.1      2.090      6.592
REMARK  3 active torsions:
REMARK  status: ('A' for Active; 'I' for Inactive)
REMARK    1  A    between atoms: C9_13  and  O2_2 
REMARK    2  A    between atoms: C10_14  and  O3_3 
REMARK    3  A    between atoms: C3_7  and  C4_8 
ROOT
HETATM    1  O1  UNK     1      19.816  -1.753  33.677  1.00  0.00    -0.309 OA
HETATM    2  O4  UNK     1      16.806   0.459  35.305  1.00  0.00    -0.287 OA
HETATM    3  C1  UNK     1      18.488  -1.170  35.626  1.00  0.00     0.048 A 
HETATM    4  C2  UNK     1      19.506  -1.894  35.006  1.00  0.00     0.093 A 
HETATM    5  C3  UNK     1      19.079  -0.857  32.918  1.00  0.00     0.093 A 
HETATM    6  C5  UNK     1      17.711  -0.211  34.826  1.00  0.00     0.187 A 
HETATM    7  C6  UNK     1      18.081  -0.099  33.401  1.00  0.00     0.094 A 
HETATM    8  C7  UNK     1      20.259  -2.808  35.743  1.00  0.00     0.075 A 
HETATM    9  C8  UNK     1      18.217  -1.355  36.983  1.00  0.00     0.021 A 
HETATM   10  C10 UNK     1      19.990  -2.995  37.098  1.00  0.00     0.070 A 
HETATM   11  C12 UNK     1      18.971  -2.269  37.718  1.00  0.00     0.038 A 
ENDROOT
BRANCH   5  12
HETATM   12  C4  UNK     1      19.499  -0.781  31.505  1.00  0.00     0.031 A 
HETATM   13  C11 UNK     1      20.091  -1.899  30.909  1.00  0.00     0.017 A 
HETATM   14  C14 UNK     1      20.497  -1.851  29.575  1.00  0.00     0.001 A 
HETATM   15  C15 UNK     1      20.315  -0.686  28.832  1.00  0.00     0.003 A 
HETATM   16  C13 UNK     1      19.725   0.433  29.422  1.00  0.00     0.038 A 
HETATM   17  C9  UNK     1      19.319   0.385  30.754  1.00  0.00     0.081 A 
BRANCH  17  18
HETATM   18  O2  UNK     1      18.745   1.492  31.307  1.00  0.00    -0.355 OA
HETATM   19  C16 UNK     1      18.641   2.648  30.479  1.00  0.00     0.210 C 
ENDBRANCH  17  18
ENDBRANCH   5  12
BRANCH  10  20
HETATM   20  O3  UNK     1      20.723  -3.887  37.820  1.00  0.00    -0.356 OA
HETATM   21  C17 UNK     1      20.787  -5.224  37.327  1.00  0.00     0.210 C 
ENDBRANCH  10  20
TORSDOF 3
ENDMDL
MODEL 9
REMARK VINA RESULT:      -8.1      2.032      3.706
REMARK  3 active torsions:
REMARK  status: ('A' for Active; 'I' for Inactive)
REMARK    1  A    between atoms: C9_13  and  O2_2 
REMARK    2  A    between atoms: C10_14  and  O3_3 
REMARK    3  A    between atoms: C3_7  and  C4_8 
ROOT
HETATM    1  O1  UNK     1      18.769   0.407  33.079  1.00  0.00    -0.309 OA
HETATM    2  O4  UNK     1      18.154   3.786  30.886  1.00  0.00    -0.287 OA
HETATM    3  C1  UNK     1      18.934   1.555  30.944  1.00  0.00     0.048 A 
HETATM    4  C2  UNK     1      19.116   0.433  31.751  1.00  0.00     0.093 A 
HETATM    5  C3  UNK     1      18.222   1.550  33.641  1.00  0.00     0.093 A 
HETATM    6  C5  UNK     1      18.344   2.767  31.535  1.00  0.00     0.187 A 
HETATM    7  C6  UNK     1      17.992   2.688  32.967  1.00  0.00     0.094 A 
HETATM    8  C7  UNK     1      19.671  -0.729  31.215  1.00  0.00     0.075 A 
HETATM    9  C8  UNK     1      19.305   1.524  29.599  1.00  0.00     0.021 A 
HETATM   10  C10 UNK     1      20.043  -0.763  29.872  1.00  0.00     0.070 A 
HETATM   11  C12 UNK     1      19.860   0.362  29.065  1.00  0.00     0.038 A 
ENDROOT
BRANCH   5  12
HETATM   12  C4  UNK     1      17.881   1.411  35.071  1.00  0.00     0.031 A 
HETATM   13  C11 UNK     1      18.705   2.010  36.029  1.00  0.00     0.017 A 
HETATM   14  C14 UNK     1      18.404   1.892  37.386  1.00  0.00     0.001 A 
HETATM   15  C15 UNK     1      17.280   1.174  37.792  1.00  0.00     0.003 A 
HETATM   16  C13 UNK     1      16.454   0.574  36.839  1.00  0.00     0.038 A 
HETATM   17  C9  UNK     1      16.755   0.692  35.483  1.00  0.00     0.081 A 
BRANCH  17  18
HETATM   18  O2  UNK     1      15.932   0.097  34.573  1.00  0.00    -0.355 OA
HETATM   19  C16 UNK     1      15.911  -1.329  34.557  1.00  0.00     0.210 C 
ENDBRANCH  17  18
ENDBRANCH   5  12
BRANCH  10  20
HETATM   20  O3  UNK     1      20.585  -1.895  29.345  1.00  0.00    -0.356 OA
HETATM   21  C17 UNK     1      20.864  -2.963  30.249  1.00  0.00     0.210 C 
ENDBRANCH  10  20
TORSDOF 3
ENDMDL
MODEL 10
REMARK VINA RESULT:      -8.0      1.478      3.761
REMARK  3 active torsions:
REMARK  status: ('A' for Active; 'I' for Inactive)
REMARK    1  A    between atoms: C9_13  and  O2_2 
REMARK    2  A    between atoms: C10_14  and  O3_3 
REMARK    3  A    between atoms: C3_7  and  C4_8 
ROOT
HETATM    1  O1  UNK     1      18.634   0.517  33.048  1.00  0.00    -0.309 OA
HETATM    2  O4  UNK     1      17.832   4.512  33.021  1.00  0.00    -0.287 OA
HETATM    3  C1  UNK     1      18.428   2.585  31.789  1.00  0.00     0.048 A 
HETATM    4  C2  UNK     1      18.689   1.217  31.870  1.00  0.00     0.093 A 
HETATM    5  C3  UNK     1      18.312   1.203  34.210  1.00  0.00     0.093 A 
HETATM    6  C5  UNK     1      18.076   3.313  33.018  1.00  0.00     0.187 A 
HETATM    7  C6  UNK     1      18.033   2.515  34.260  1.00  0.00     0.094 A 
HETATM    8  C7  UNK     1      19.024   0.503  30.720  1.00  0.00     0.075 A 
HETATM    9  C8  UNK     1      18.499   3.246  30.562  1.00  0.00     0.021 A 
HETATM   10  C10 UNK     1      19.096   1.160  29.492  1.00  0.00     0.070 A 
HETATM   11  C12 UNK     1      18.833   2.529  29.413  1.00  0.00     0.038 A 
ENDROOT
BRANCH   5  12
HETATM   12  C4  UNK     1      18.275   0.353  35.417  1.00  0.00     0.031 A 
HETATM   13  C11 UNK     1      17.558   0.790  36.535  1.00  0.00     0.017 A 
HETATM   14  C14 UNK     1      17.509   0.004  37.688  1.00  0.00     0.001 A 
HETATM   15  C15 UNK     1      18.177  -1.219  37.728  1.00  0.00     0.003 A 
HETATM   16  C13 UNK     1      18.894  -1.659  36.614  1.00  0.00     0.038 A 
HETATM   17  C9  UNK     1      18.942  -0.874  35.462  1.00  0.00     0.081 A 
BRANCH  17  18
HETATM   18  O2  UNK     1      19.650  -1.327  34.388  1.00  0.00    -0.355 OA
HETATM   19  C16 UNK     1      20.272  -2.604  34.515  1.00  0.00     0.210 C 
ENDBRANCH  17  18
ENDBRANCH   5  12
BRANCH  10  20
HETATM   20  O3  UNK     1      19.422   0.466  28.367  1.00  0.00    -0.356 OA
HETATM   21  C17 UNK     1      20.010  -0.822  28.546  1.00  0.00     0.210 C 
ENDBRANCH  10  20
TORSDOF 3
ENDMDL
