MODEL 1
REMARK VINA RESULT:      -9.2      0.000      0.000
REMARK  6 active torsions:
REMARK  status: ('A' for Active; 'I' for Inactive)
REMARK    1  A    between atoms: C13_21  and  O2_2 
REMARK    2  A    between atoms: C17_25  and  O2_2 
REMARK    3  A    between atoms: C1_9  and  C11_19 
REMARK    4  A    between atoms: C10_18  and  C2_10 
REMARK    5  A    between atoms: C13_21  and  C8_16 
REMARK    6  A    between atoms: C12_20  and  C17_25 
ROOT
HETATM    1  O4  UNK     1      30.898  -9.766  35.933  1.00  0.00    -0.293 OA
HETATM    2  N1  UNK     1      34.958  -7.331  35.947  1.00  0.00    -0.362 N 
HETATM    3  C1  UNK     1      32.162  -7.477  38.507  1.00  0.00     0.056 C 
HETATM    4  C2  UNK     1      33.136  -8.841  34.385  1.00  0.00     0.104 C 
HETATM    5  C3  UNK     1      32.903  -8.503  35.856  1.00  0.00     0.024 C 
HETATM    6  C4  UNK     1      33.601  -7.356  37.987  1.00  0.00     0.069 C 
HETATM    7  C5  UNK     1      33.789  -7.760  36.549  1.00  0.00     0.021 C 
HETATM    8  C6  UNK     1      31.476  -8.747  38.010  1.00  0.00     0.095 C 
HETATM    9  C7  UNK     1      31.688  -9.041  36.540  1.00  0.00     0.159 C 
HETATM   10  C8  UNK     1      34.527  -8.434  33.899  1.00  0.00     0.052 C 
HETATM   11  C9  UNK     1      35.354  -7.690  34.669  1.00  0.00     0.018 C 
HETATM   12  C16 UNK     1      36.716  -7.196  34.263  1.00  0.00     0.069 C 
HETATM   13  H7  UNK     1      35.601  -6.778  36.503  1.00  0.00     0.165 HD
ENDROOT
BRANCH   4  14
HETATM   14  C10 UNK     1      32.079  -8.198  33.527  1.00  0.00     0.029 A 
HETATM   15  C18 UNK     1      31.226  -9.070  32.681  1.00  0.00     0.194 A 
HETATM   16  O7  UNK     1      31.357 -10.287  32.661  1.00  0.00    -0.287 OA
HETATM   17  C22 UNK     1      30.207  -8.389  31.861  1.00  0.00     0.049 A 
HETATM   18  C26 UNK     1      29.354  -9.121  31.031  1.00  0.00     0.025 A 
HETATM   19  C24 UNK     1      30.103  -6.999  31.924  1.00  0.00     0.089 A 
HETATM   20  C28 UNK     1      28.398  -8.453  30.265  1.00  0.00    -0.061 A 
HETATM   21  C29 UNK     1      28.294  -7.063  30.328  1.00  0.00     0.009 A 
HETATM   22  C30 UNK     1      27.483  -9.228  29.376  1.00  0.00     0.048 C 
HETATM   23  C27 UNK     1      29.146  -6.334  31.157  1.00  0.00     0.039 A 
HETATM   24  O5  UNK     1      30.914  -6.231  32.721  1.00  0.00    -0.321 OA
HETATM   25  C21 UNK     1      31.858  -6.879  33.479  1.00  0.00     0.154 A 
ENDBRANCH   4  14
BRANCH  10  26
HETATM   26  C13 UNK     1      34.935  -8.933  32.576  1.00  0.00     0.292 C 
HETATM   27  O6  UNK     1      35.202 -10.100  32.355  1.00  0.00    -0.259 OA
BRANCH  26  28
HETATM   28  O2  UNK     1      34.950  -7.890  31.711  1.00  0.00    -0.315 OA
BRANCH  28  29
HETATM   29  C17 UNK     1      34.781  -8.242  30.335  1.00  0.00     0.211 C 
BRANCH  29  30
HETATM   30  C12 UNK     1      33.300  -8.266  30.010  1.00  0.00     0.145 C 
HETATM   31  O1  UNK     1      33.027  -9.305  29.055  1.00  0.00    -0.384 OA
HETATM   32  C20 UNK     1      32.088  -8.802  28.093  1.00  0.00     0.168 C 
HETATM   33  C15 UNK     1      31.598  -7.466  28.611  1.00  0.00     0.029 C 
HETATM   34  C14 UNK     1      32.794  -6.977  29.389  1.00  0.00     0.036 C 
ENDBRANCH  29  30
ENDBRANCH  28  29
ENDBRANCH  26  28
ENDBRANCH  10  26
BRANCH   3  35
HETATM   35  C11 UNK     1      31.342  -6.204  38.282  1.00  0.00     0.057 A 
HETATM   36  O3  UNK     1      30.042  -6.271  38.648  1.00  0.00    -0.327 OA
HETATM   37  C25 UNK     1      29.509  -5.054  38.366  1.00  0.00     0.142 A 
HETATM   38  C23 UNK     1      30.463  -4.221  37.827  1.00  0.00     0.027 A 
HETATM   39  C19 UNK     1      31.658  -4.977  37.774  1.00  0.00     0.035 A 
ENDBRANCH   3  35
TORSDOF 6
ENDMDL
MODEL 2
REMARK VINA RESULT:      -8.8      2.692      7.049
REMARK  6 active torsions:
REMARK  status: ('A' for Active; 'I' for Inactive)
REMARK    1  A    between atoms: C13_21  and  O2_2 
REMARK    2  A    between atoms: C17_25  and  O2_2 
REMARK    3  A    between atoms: C1_9  and  C11_19 
REMARK    4  A    between atoms: C10_18  and  C2_10 
REMARK    5  A    between atoms: C13_21  and  C8_16 
REMARK    6  A    between atoms: C12_20  and  C17_25 
ROOT
HETATM    1  O4  UNK     1      29.082  -5.504  32.854  1.00  0.00    -0.293 OA
HETATM    2  N1  UNK     1      32.964  -8.099  32.071  1.00  0.00    -0.362 N 
HETATM    3  C1  UNK     1      30.352  -6.779  29.657  1.00  0.00     0.056 C 
HETATM    4  C2  UNK     1      31.151  -7.123  34.021  1.00  0.00     0.104 C 
HETATM    5  C3  UNK     1      30.989  -6.872  32.523  1.00  0.00     0.024 C 
HETATM    6  C4  UNK     1      31.743  -7.206  30.143  1.00  0.00     0.069 C 
HETATM    7  C5  UNK     1      31.866  -7.380  31.633  1.00  0.00     0.021 C 
HETATM    8  C6  UNK     1      29.721  -5.729  30.569  1.00  0.00     0.095 C 
HETATM    9  C7  UNK     1      29.859  -6.018  32.048  1.00  0.00     0.159 C 
HETATM   10  C8  UNK     1      32.478  -7.798  34.366  1.00  0.00     0.052 C 
HETATM   11  C9  UNK     1      33.301  -8.273  33.403  1.00  0.00     0.018 C 
HETATM   12  C16 UNK     1      34.598  -8.996  33.641  1.00  0.00     0.069 C 
HETATM   13  H7  UNK     1      33.602  -8.460  31.371  1.00  0.00     0.165 HD
ENDROOT
BRANCH   4  14
HETATM   14  C10 UNK     1      30.001  -7.944  34.540  1.00  0.00     0.029 A 
HETATM   15  C18 UNK     1      29.185  -7.398  35.653  1.00  0.00     0.194 A 
HETATM   16  O7  UNK     1      29.419  -6.307  36.157  1.00  0.00    -0.287 OA
HETATM   17  C22 UNK     1      28.072  -8.243  36.123  1.00  0.00     0.049 A 
HETATM   18  C26 UNK     1      27.245  -7.817  37.166  1.00  0.00     0.025 A 
HETATM   19  C24 UNK     1      27.852  -9.478  35.511  1.00  0.00     0.089 A 
HETATM   20  C28 UNK     1      26.198  -8.636  37.592  1.00  0.00    -0.061 A 
HETATM   21  C29 UNK     1      25.978  -9.871  36.980  1.00  0.00     0.009 A 
HETATM   22  C30 UNK     1      25.310  -8.189  38.705  1.00  0.00     0.048 C 
HETATM   23  C27 UNK     1      26.804 -10.294  35.940  1.00  0.00     0.039 A 
HETATM   24  O5  UNK     1      28.632  -9.945  34.484  1.00  0.00    -0.321 OA
HETATM   25  C21 UNK     1      29.665  -9.147  34.057  1.00  0.00     0.154 A 
ENDBRANCH   4  14
BRANCH  10  26
HETATM   26  C13 UNK     1      32.834  -7.860  35.794  1.00  0.00     0.292 C 
HETATM   27  O6  UNK     1      32.815  -8.889  36.443  1.00  0.00    -0.259 OA
BRANCH  26  28
HETATM   28  O2  UNK     1      33.165  -6.613  36.206  1.00  0.00    -0.315 OA
BRANCH  28  29
HETATM   29  C17 UNK     1      32.899  -6.340  37.585  1.00  0.00     0.211 C 
BRANCH  29  30
HETATM   30  C12 UNK     1      32.501  -4.884  37.732  1.00  0.00     0.145 C 
HETATM   31  O1  UNK     1      31.249  -4.789  38.432  1.00  0.00    -0.384 OA
HETATM   32  C20 UNK     1      30.448  -3.782  37.794  1.00  0.00     0.168 C 
HETATM   33  C15 UNK     1      31.339  -3.077  36.794  1.00  0.00     0.029 C 
HETATM   34  C14 UNK     1      32.300  -4.174  36.406  1.00  0.00     0.036 C 
ENDBRANCH  29  30
ENDBRANCH  28  29
ENDBRANCH  26  28
ENDBRANCH  10  26
BRANCH   3  35
HETATM   35  C11 UNK     1      29.436  -7.970  29.362  1.00  0.00     0.057 A 
HETATM   36  O3  UNK     1      29.900  -8.858  28.454  1.00  0.00    -0.327 OA
HETATM   37  C25 UNK     1      28.946  -9.818  28.345  1.00  0.00     0.142 A 
HETATM   38  C23 UNK     1      27.885  -9.543  29.178  1.00  0.00     0.027 A 
HETATM   39  C19 UNK     1      28.210  -8.335  29.840  1.00  0.00     0.035 A 
ENDBRANCH   3  35
TORSDOF 6
ENDMDL
MODEL 3
REMARK VINA RESULT:      -8.8      2.194      6.335
REMARK  6 active torsions:
REMARK  status: ('A' for Active; 'I' for Inactive)
REMARK    1  A    between atoms: C13_21  and  O2_2 
REMARK    2  A    between atoms: C17_25  and  O2_2 
REMARK    3  A    between atoms: C1_9  and  C11_19 
REMARK    4  A    between atoms: C10_18  and  C2_10 
REMARK    5  A    between atoms: C13_21  and  C8_16 
REMARK    6  A    between atoms: C12_20  and  C17_25 
ROOT
HETATM    1  O4  UNK     1      31.664  -4.532  34.985  1.00  0.00    -0.293 OA
HETATM    2  N1  UNK     1      32.589  -8.515  37.370  1.00  0.00    -0.362 N 
HETATM    3  C1  UNK     1      34.927  -5.847  36.027  1.00  0.00     0.056 C 
HETATM    4  C2  UNK     1      30.647  -7.057  35.908  1.00  0.00     0.104 C 
HETATM    5  C3  UNK     1      32.083  -6.577  36.107  1.00  0.00     0.024 C 
HETATM    6  C4  UNK     1      34.416  -6.928  36.989  1.00  0.00     0.069 C 
HETATM    7  C5  UNK     1      32.976  -7.321  36.790  1.00  0.00     0.021 C 
HETATM    8  C6  UNK     1      33.894  -4.745  35.799  1.00  0.00     0.095 C 
HETATM    9  C7  UNK     1      32.485  -5.245  35.564  1.00  0.00     0.159 C 
HETATM   10  C8  UNK     1      30.323  -8.308  36.724  1.00  0.00     0.052 C 
HETATM   11  C9  UNK     1      31.287  -8.988  37.385  1.00  0.00     0.018 C 
HETATM   12  C16 UNK     1      31.080 -10.255  38.170  1.00  0.00     0.069 C 
HETATM   13  H7  UNK     1      33.289  -9.043  37.880  1.00  0.00     0.165 HD
ENDROOT
BRANCH   4  14
HETATM   14  C10 UNK     1      30.377  -7.306  34.448  1.00  0.00     0.029 A 
HETATM   15  C18 UNK     1      29.087  -6.844  33.876  1.00  0.00     0.194 A 
HETATM   16  O7  UNK     1      28.243  -6.272  34.553  1.00  0.00    -0.287 OA
HETATM   17  C22 UNK     1      28.874  -7.114  32.442  1.00  0.00     0.049 A 
HETATM   18  C26 UNK     1      27.693  -6.719  31.810  1.00  0.00     0.025 A 
HETATM   19  C24 UNK     1      29.872  -7.771  31.719  1.00  0.00     0.089 A 
HETATM   20  C28 UNK     1      27.516  -6.986  30.451  1.00  0.00    -0.061 A 
HETATM   21  C29 UNK     1      28.513  -7.643  29.729  1.00  0.00     0.009 A 
HETATM   22  C30 UNK     1      26.257  -6.566  29.768  1.00  0.00     0.048 C 
HETATM   23  C27 UNK     1      29.692  -8.037  30.362  1.00  0.00     0.039 A 
HETATM   24  O5  UNK     1      31.051  -8.181  32.289  1.00  0.00    -0.321 OA
HETATM   25  C21 UNK     1      31.234  -7.923  33.626  1.00  0.00     0.154 A 
ENDBRANCH   4  14
BRANCH  10  26
HETATM   26  C13 UNK     1      28.906  -8.703  36.790  1.00  0.00     0.292 C 
HETATM   27  O6  UNK     1      28.475  -9.732  36.302  1.00  0.00    -0.259 OA
BRANCH  26  28
HETATM   28  O2  UNK     1      28.226  -7.745  37.465  1.00  0.00    -0.315 OA
BRANCH  28  29
HETATM   29  C17 UNK     1      28.317  -7.828  38.890  1.00  0.00     0.211 C 
BRANCH  29  30
HETATM   30  C12 UNK     1      28.472  -6.429  39.456  1.00  0.00     0.145 C 
HETATM   31  O1  UNK     1      27.344  -5.622  39.078  1.00  0.00    -0.384 OA
HETATM   32  C20 UNK     1      27.821  -4.318  38.714  1.00  0.00     0.168 C 
HETATM   33  C15 UNK     1      29.284  -4.260  39.097  1.00  0.00     0.029 C 
HETATM   34  C14 UNK     1      29.703  -5.702  38.947  1.00  0.00     0.036 C 
ENDBRANCH  29  30
ENDBRANCH  28  29
ENDBRANCH  26  28
ENDBRANCH  10  26
BRANCH   3  35
HETATM   35  C11 UNK     1      35.503  -6.429  34.733  1.00  0.00     0.057 A 
HETATM   36  O3  UNK     1      36.609  -7.193  34.875  1.00  0.00    -0.327 OA
HETATM   37  C25 UNK     1      36.947  -7.601  33.624  1.00  0.00     0.142 A 
HETATM   38  C23 UNK     1      36.063  -7.100  32.696  1.00  0.00     0.027 A 
HETATM   39  C19 UNK     1      35.121  -6.334  33.426  1.00  0.00     0.035 A 
ENDBRANCH   3  35
TORSDOF 6
ENDMDL
MODEL 4
REMARK VINA RESULT:      -8.6      1.094      1.975
REMARK  6 active torsions:
REMARK  status: ('A' for Active; 'I' for Inactive)
REMARK    1  A    between atoms: C13_21  and  O2_2 
REMARK    2  A    between atoms: C17_25  and  O2_2 
REMARK    3  A    between atoms: C1_9  and  C11_19 
REMARK    4  A    between atoms: C10_18  and  C2_10 
REMARK    5  A    between atoms: C13_21  and  C8_16 
REMARK    6  A    between atoms: C12_20  and  C17_25 
ROOT
HETATM    1  O4  UNK     1      31.072  -9.621  36.364  1.00  0.00    -0.293 OA
HETATM    2  N1  UNK     1      35.164  -7.307  35.799  1.00  0.00    -0.362 N 
HETATM    3  C1  UNK     1      32.505  -6.993  38.487  1.00  0.00     0.056 C 
HETATM    4  C2  UNK     1      33.240  -8.997  34.582  1.00  0.00     0.104 C 
HETATM    5  C3  UNK     1      33.089  -8.432  35.992  1.00  0.00     0.024 C 
HETATM    6  C4  UNK     1      33.916  -6.987  37.883  1.00  0.00     0.069 C 
HETATM    7  C5  UNK     1      34.022  -7.611  36.517  1.00  0.00     0.021 C 
HETATM    8  C6  UNK     1      31.774  -8.309  38.226  1.00  0.00     0.095 C 
HETATM    9  C7  UNK     1      31.904  -8.830  36.811  1.00  0.00     0.159 C 
HETATM   10  C8  UNK     1      34.609  -8.701  33.970  1.00  0.00     0.052 C 
HETATM   11  C9  UNK     1      35.486  -7.867  34.574  1.00  0.00     0.018 C 
HETATM   12  C16 UNK     1      36.833  -7.473  34.030  1.00  0.00     0.069 C 
HETATM   13  H7  UNK     1      35.844  -6.691  36.230  1.00  0.00     0.165 HD
ENDROOT
BRANCH   4  14
HETATM   14  C10 UNK     1      32.149  -8.469  33.688  1.00  0.00     0.029 A 
HETATM   15  C18 UNK     1      32.090  -7.009  33.428  1.00  0.00     0.194 A 
HETATM   16  O7  UNK     1      32.897  -6.228  33.916  1.00  0.00    -0.287 OA
HETATM   17  C22 UNK     1      31.002  -6.545  32.547  1.00  0.00     0.049 A 
HETATM   18  C26 UNK     1      30.862  -5.190  32.240  1.00  0.00     0.025 A 
HETATM   19  C24 UNK     1      30.111  -7.481  32.019  1.00  0.00     0.089 A 
HETATM   20  C28 UNK     1      29.824  -4.777  31.404  1.00  0.00    -0.061 A 
HETATM   21  C29 UNK     1      28.932  -5.713  30.876  1.00  0.00     0.009 A 
HETATM   22  C30 UNK     1      29.666  -3.331  31.071  1.00  0.00     0.048 C 
HETATM   23  C27 UNK     1      29.074  -7.065  31.183  1.00  0.00     0.039 A 
HETATM   24  O5  UNK     1      30.203  -8.824  32.287  1.00  0.00    -0.321 OA
HETATM   25  C21 UNK     1      31.221  -9.240  33.109  1.00  0.00     0.154 A 
ENDBRANCH   4  14
BRANCH  10  26
HETATM   26  C13 UNK     1      34.939  -9.407  32.721  1.00  0.00     0.292 C 
HETATM   27  O6  UNK     1      35.176 -10.600  32.670  1.00  0.00    -0.259 OA
BRANCH  26  28
HETATM   28  O2  UNK     1      34.925  -8.510  31.706  1.00  0.00    -0.315 OA
BRANCH  28  29
HETATM   29  C17 UNK     1      34.607  -9.054  30.422  1.00  0.00     0.211 C 
BRANCH  29  30
HETATM   30  C12 UNK     1      33.170  -8.706  30.081  1.00  0.00     0.145 C 
HETATM   31  O1  UNK     1      32.713  -9.529  28.995  1.00  0.00    -0.384 OA
HETATM   32  C20 UNK     1      31.947  -8.712  28.098  1.00  0.00     0.168 C 
HETATM   33  C15 UNK     1      31.743  -7.376  28.781  1.00  0.00     0.029 C 
HETATM   34  C14 UNK     1      32.986  -7.268  29.630  1.00  0.00     0.036 C 
ENDBRANCH  29  30
ENDBRANCH  28  29
ENDBRANCH  26  28
ENDBRANCH  10  26
BRANCH   3  35
HETATM   35  C11 UNK     1      31.693  -5.752  38.109  1.00  0.00     0.057 A 
HETATM   36  O3  UNK     1      32.307  -4.879  37.277  1.00  0.00    -0.327 OA
HETATM   37  C25 UNK     1      31.423  -3.868  37.075  1.00  0.00     0.142 A 
HETATM   38  C23 UNK     1      30.259  -4.096  37.772  1.00  0.00     0.027 A 
HETATM   39  C19 UNK     1      30.440  -5.328  38.446  1.00  0.00     0.035 A 
ENDBRANCH   3  35
TORSDOF 6
ENDMDL
MODEL 5
REMARK VINA RESULT:      -8.5      2.284      5.745
REMARK  6 active torsions:
REMARK  status: ('A' for Active; 'I' for Inactive)
REMARK    1  A    between atoms: C13_21  and  O2_2 
REMARK    2  A    between atoms: C17_25  and  O2_2 
REMARK    3  A    between atoms: C1_9  and  C11_19 
REMARK    4  A    between atoms: C10_18  and  C2_10 
REMARK    5  A    between atoms: C13_21  and  C8_16 
REMARK    6  A    between atoms: C12_20  and  C17_25 
ROOT
HETATM    1  O4  UNK     1      31.478 -10.284  34.712  1.00  0.00    -0.293 OA
HETATM    2  N1  UNK     1      31.673  -6.489  31.889  1.00  0.00    -0.362 N 
HETATM    3  C1  UNK     1      34.381  -8.177  33.940  1.00  0.00     0.056 C 
HETATM    4  C2  UNK     1      29.982  -8.293  33.277  1.00  0.00     0.104 C 
HETATM    5  C3  UNK     1      31.506  -8.341  33.355  1.00  0.00     0.024 C 
HETATM    6  C4  UNK     1      33.770  -7.408  32.761  1.00  0.00     0.069 C 
HETATM    7  C5  UNK     1      32.266  -7.443  32.695  1.00  0.00     0.021 C 
HETATM    8  C6  UNK     1      33.669  -9.505  34.191  1.00  0.00     0.095 C 
HETATM    9  C7  UNK     1      32.158  -9.426  34.148  1.00  0.00     0.159 C 
HETATM   10  C8  UNK     1      29.475  -7.290  32.240  1.00  0.00     0.052 C 
HETATM   11  C9  UNK     1      30.315  -6.430  31.621  1.00  0.00     0.018 C 
HETATM   12  C16 UNK     1      29.908  -5.375  30.628  1.00  0.00     0.069 C 
HETATM   13  H7  UNK     1      32.278  -5.835  31.405  1.00  0.00     0.165 HD
ENDROOT
BRANCH   4  14
HETATM   14  C10 UNK     1      29.399  -7.979  34.629  1.00  0.00     0.029 A 
HETATM   15  C18 UNK     1      29.875  -6.767  35.342  1.00  0.00     0.194 A 
HETATM   16  O7  UNK     1      30.722  -6.022  34.865  1.00  0.00    -0.287 OA
HETATM   17  C22 UNK     1      29.272  -6.506  36.662  1.00  0.00     0.049 A 
HETATM   18  C26 UNK     1      29.653  -5.391  37.412  1.00  0.00     0.025 A 
HETATM   19  C24 UNK     1      28.311  -7.390  37.156  1.00  0.00     0.089 A 
HETATM   20  C28 UNK     1      29.068  -5.166  38.659  1.00  0.00    -0.061 A 
HETATM   21  C29 UNK     1      28.107  -6.051  39.153  1.00  0.00     0.009 A 
HETATM   22  C30 UNK     1      29.468  -3.977  39.466  1.00  0.00     0.048 C 
HETATM   23  C27 UNK     1      27.728  -7.163  38.403  1.00  0.00     0.039 A 
HETATM   24  O5  UNK     1      27.900  -8.500  36.462  1.00  0.00    -0.321 OA
HETATM   25  C21 UNK     1      28.471  -8.729  35.234  1.00  0.00     0.154 A 
ENDBRANCH   4  14
BRANCH  10  26
HETATM   26  C13 UNK     1      28.039  -7.345  31.917  1.00  0.00     0.292 C 
HETATM   27  O6  UNK     1      27.261  -6.446  32.177  1.00  0.00    -0.259 OA
BRANCH  26  28
HETATM   28  O2  UNK     1      27.782  -8.529  31.310  1.00  0.00    -0.315 OA
BRANCH  28  29
HETATM   29  C17 UNK     1      27.687  -8.469  29.884  1.00  0.00     0.211 C 
BRANCH  29  30
HETATM   30  C12 UNK     1      28.795  -9.310  29.280  1.00  0.00     0.145 C 
HETATM   31  O1  UNK     1      29.406 -10.118  30.299  1.00  0.00    -0.384 OA
HETATM   32  C20 UNK     1      30.827 -10.109  30.096  1.00  0.00     0.168 C 
HETATM   33  C15 UNK     1      31.077  -9.443  28.759  1.00  0.00     0.029 C 
HETATM   34  C14 UNK     1      29.914  -8.487  28.665  1.00  0.00     0.036 C 
ENDBRANCH  29  30
ENDBRANCH  28  29
ENDBRANCH  26  28
ENDBRANCH  10  26
BRANCH   3  35
HETATM   35  C11 UNK     1      34.534  -7.314  35.195  1.00  0.00     0.057 A 
HETATM   36  O3  UNK     1      35.336  -6.232  35.069  1.00  0.00    -0.327 OA
HETATM   37  C25 UNK     1      35.331  -5.618  36.281  1.00  0.00     0.142 A 
HETATM   38  C23 UNK     1      34.532  -6.303  37.167  1.00  0.00     0.027 A 
HETATM   39  C19 UNK     1      34.014  -7.410  36.453  1.00  0.00     0.035 A 
ENDBRANCH   3  35
TORSDOF 6
ENDMDL
MODEL 6
REMARK VINA RESULT:      -8.5      1.442      2.019
REMARK  6 active torsions:
REMARK  status: ('A' for Active; 'I' for Inactive)
REMARK    1  A    between atoms: C13_21  and  O2_2 
REMARK    2  A    between atoms: C17_25  and  O2_2 
REMARK    3  A    between atoms: C1_9  and  C11_19 
REMARK    4  A    between atoms: C10_18  and  C2_10 
REMARK    5  A    between atoms: C13_21  and  C8_16 
REMARK    6  A    between atoms: C12_20  and  C17_25 
ROOT
HETATM    1  O4  UNK     1      31.004  -9.646  35.889  1.00  0.00    -0.293 OA
HETATM    2  N1  UNK     1      35.090  -7.257  35.965  1.00  0.00    -0.362 N 
HETATM    3  C1  UNK     1      32.194  -7.267  38.415  1.00  0.00     0.056 C 
HETATM    4  C2  UNK     1      33.313  -8.811  34.395  1.00  0.00     0.104 C 
HETATM    5  C3  UNK     1      33.026  -8.410  35.840  1.00  0.00     0.024 C 
HETATM    6  C4  UNK     1      33.653  -7.183  37.949  1.00  0.00     0.069 C 
HETATM    7  C5  UNK     1      33.893  -7.648  36.536  1.00  0.00     0.021 C 
HETATM    8  C6  UNK     1      31.512  -8.549  37.943  1.00  0.00     0.095 C 
HETATM    9  C7  UNK     1      31.778  -8.906  36.496  1.00  0.00     0.159 C 
HETATM   10  C8  UNK     1      34.727  -8.439  33.949  1.00  0.00     0.052 C 
HETATM   11  C9  UNK     1      35.532  -7.673  34.720  1.00  0.00     0.018 C 
HETATM   12  C16 UNK     1      36.915  -7.211  34.349  1.00  0.00     0.069 C 
HETATM   13  H7  UNK     1      35.718  -6.689  36.523  1.00  0.00     0.165 HD
ENDROOT
BRANCH   4  14
HETATM   14  C10 UNK     1      32.299  -8.192  33.470  1.00  0.00     0.029 A 
HETATM   15  C18 UNK     1      31.488  -9.088  32.606  1.00  0.00     0.194 A 
HETATM   16  O7  UNK     1      31.621 -10.304  32.625  1.00  0.00    -0.287 OA
HETATM   17  C22 UNK     1      30.510  -8.430  31.720  1.00  0.00     0.049 A 
HETATM   18  C26 UNK     1      29.699  -9.185  30.869  1.00  0.00     0.025 A 
HETATM   19  C24 UNK     1      30.402  -7.039  31.741  1.00  0.00     0.089 A 
HETATM   20  C28 UNK     1      28.781  -8.540  30.040  1.00  0.00    -0.061 A 
HETATM   21  C29 UNK     1      28.674  -7.148  30.061  1.00  0.00     0.009 A 
HETATM   22  C30 UNK     1      27.911  -9.339  29.128  1.00  0.00     0.048 C 
HETATM   23  C27 UNK     1      29.484  -6.396  30.911  1.00  0.00     0.039 A 
HETATM   24  O5  UNK     1      31.173  -6.249  32.556  1.00  0.00    -0.321 OA
HETATM   25  C21 UNK     1      32.079  -6.875  33.376  1.00  0.00     0.154 A 
ENDBRANCH   4  14
BRANCH  10  26
HETATM   26  C13 UNK     1      35.181  -8.997  32.664  1.00  0.00     0.292 C 
HETATM   27  O6  UNK     1      35.197  -8.360  31.627  1.00  0.00    -0.259 OA
BRANCH  26  28
HETATM   28  O2  UNK     1      35.552 -10.284  32.864  1.00  0.00    -0.315 OA
BRANCH  28  29
HETATM   29  C17 UNK     1      36.266 -10.884  31.779  1.00  0.00     0.211 C 
BRANCH  29  30
HETATM   30  C12 UNK     1      35.431 -12.012  31.203  1.00  0.00     0.145 C 
HETATM   31  O1  UNK     1      34.655 -11.527  30.094  1.00  0.00    -0.384 OA
HETATM   32  C20 UNK     1      33.339 -12.094  30.178  1.00  0.00     0.168 C 
HETATM   33  C15 UNK     1      33.381 -13.147  31.265  1.00  0.00     0.029 C 
HETATM   34  C14 UNK     1      34.438 -12.597  32.191  1.00  0.00     0.036 C 
ENDBRANCH  29  30
ENDBRANCH  28  29
ENDBRANCH  26  28
ENDBRANCH  10  26
BRANCH   3  35
HETATM   35  C11 UNK     1      31.399  -5.996  38.106  1.00  0.00     0.057 A 
HETATM   36  O3  UNK     1      30.112  -5.993  38.519  1.00  0.00    -0.327 OA
HETATM   37  C25 UNK     1      29.601  -4.790  38.149  1.00  0.00     0.142 A 
HETATM   38  C23 UNK     1      30.556  -4.035  37.506  1.00  0.00     0.027 A 
HETATM   39  C19 UNK     1      31.729  -4.828  37.481  1.00  0.00     0.035 A 
ENDBRANCH   3  35
TORSDOF 6
ENDMDL
MODEL 7
REMARK VINA RESULT:      -8.4      1.750      6.191
REMARK  6 active torsions:
REMARK  status: ('A' for Active; 'I' for Inactive)
REMARK    1  A    between atoms: C13_21  and  O2_2 
REMARK    2  A    between atoms: C17_25  and  O2_2 
REMARK    3  A    between atoms: C1_9  and  C11_19 
REMARK    4  A    between atoms: C10_18  and  C2_10 
REMARK    5  A    between atoms: C13_21  and  C8_16 
REMARK    6  A    between atoms: C12_20  and  C17_25 
ROOT
HETATM    1  O4  UNK     1      32.053  -4.992  34.241  1.00  0.00    -0.293 OA
HETATM    2  N1  UNK     1      32.905  -9.537  35.256  1.00  0.00    -0.362 N 
HETATM    3  C1  UNK     1      34.886  -7.063  33.171  1.00  0.00     0.056 C 
HETATM    4  C2  UNK     1      30.983  -7.452  35.272  1.00  0.00     0.104 C 
HETATM    5  C3  UNK     1      32.392  -7.291  34.708  1.00  0.00     0.024 C 
HETATM    6  C4  UNK     1      34.650  -8.243  34.124  1.00  0.00     0.069 C 
HETATM    7  C5  UNK     1      33.261  -8.322  34.701  1.00  0.00     0.021 C 
HETATM    8  C6  UNK     1      34.230  -5.779  33.673  1.00  0.00     0.095 C 
HETATM    9  C7  UNK     1      32.818  -5.955  34.191  1.00  0.00     0.159 C 
HETATM   10  C8  UNK     1      30.780  -8.791  35.982  1.00  0.00     0.052 C 
HETATM   11  C9  UNK     1      31.714  -9.768  35.925  1.00  0.00     0.018 C 
HETATM   12  C16 UNK     1      31.587 -11.134  36.544  1.00  0.00     0.069 C 
HETATM   13  H7  UNK     1      33.588 -10.286  35.236  1.00  0.00     0.165 HD
ENDROOT
BRANCH   4  14
HETATM   14  C10 UNK     1      29.960  -7.285  34.180  1.00  0.00     0.029 A 
HETATM   15  C18 UNK     1      29.956  -8.258  33.058  1.00  0.00     0.194 A 
HETATM   16  O7  UNK     1      30.755  -9.184  32.996  1.00  0.00    -0.287 OA
HETATM   17  C22 UNK     1      28.935  -8.048  32.015  1.00  0.00     0.049 A 
HETATM   18  C26 UNK     1      28.849  -8.909  30.918  1.00  0.00     0.025 A 
HETATM   19  C24 UNK     1      28.051  -6.976  32.137  1.00  0.00     0.089 A 
HETATM   20  C28 UNK     1      27.873  -8.689  29.945  1.00  0.00    -0.061 A 
HETATM   21  C29 UNK     1      26.989  -7.616  30.067  1.00  0.00     0.009 A 
HETATM   22  C30 UNK     1      27.774  -9.604  28.770  1.00  0.00     0.048 C 
HETATM   23  C27 UNK     1      27.076  -6.758  31.162  1.00  0.00     0.039 A 
HETATM   24  O5  UNK     1      28.090  -6.099  33.192  1.00  0.00    -0.321 OA
HETATM   25  C21 UNK     1      29.047  -6.308  34.156  1.00  0.00     0.154 A 
ENDBRANCH   4  14
BRANCH  10  26
HETATM   26  C13 UNK     1      29.543  -8.941  36.766  1.00  0.00     0.292 C 
HETATM   27  O6  UNK     1      28.536  -9.470  36.331  1.00  0.00    -0.259 OA
BRANCH  26  28
HETATM   28  O2  UNK     1      29.746  -8.402  37.992  1.00  0.00    -0.315 OA
BRANCH  28  29
HETATM   29  C17 UNK     1      28.856  -7.338  38.341  1.00  0.00     0.211 C 
BRANCH  29  30
HETATM   30  C12 UNK     1      29.670  -6.101  38.667  1.00  0.00     0.145 C 
HETATM   31  O1  UNK     1      29.384  -5.063  37.714  1.00  0.00    -0.384 OA
HETATM   32  C20 UNK     1      30.616  -4.416  37.364  1.00  0.00     0.168 C 
HETATM   33  C15 UNK     1      31.675  -4.938  38.313  1.00  0.00     0.029 C 
HETATM   34  C14 UNK     1      31.170  -6.329  38.607  1.00  0.00     0.036 C 
ENDBRANCH  29  30
ENDBRANCH  28  29
ENDBRANCH  26  28
ENDBRANCH  10  26
BRANCH   3  35
HETATM   35  C11 UNK     1      34.548  -7.400  31.716  1.00  0.00     0.057 A 
HETATM   36  O3  UNK     1      35.507  -7.108  30.808  1.00  0.00    -0.327 OA
HETATM   37  C25 UNK     1      35.007  -7.482  29.601  1.00  0.00     0.142 A 
HETATM   38  C23 UNK     1      33.743  -8.006  29.742  1.00  0.00     0.027 A 
HETATM   39  C19 UNK     1      33.447  -7.950  31.126  1.00  0.00     0.035 A 
ENDBRANCH   3  35
TORSDOF 6
ENDMDL
MODEL 8
REMARK VINA RESULT:      -8.4      2.533      5.658
REMARK  6 active torsions:
REMARK  status: ('A' for Active; 'I' for Inactive)
REMARK    1  A    between atoms: C13_21  and  O2_2 
REMARK    2  A    between atoms: C17_25  and  O2_2 
REMARK    3  A    between atoms: C1_9  and  C11_19 
REMARK    4  A    between atoms: C10_18  and  C2_10 
REMARK    5  A    between atoms: C13_21  and  C8_16 
REMARK    6  A    between atoms: C12_20  and  C17_25 
ROOT
HETATM    1  O4  UNK     1      32.115  -9.959  34.666  1.00  0.00    -0.293 OA
HETATM    2  N1  UNK     1      31.672  -6.440  31.531  1.00  0.00    -0.362 N 
HETATM    3  C1  UNK     1      34.726  -7.727  33.377  1.00  0.00     0.056 C 
HETATM    4  C2  UNK     1      30.305  -8.225  33.258  1.00  0.00     0.104 C 
HETATM    5  C3  UNK     1      31.827  -8.154  33.157  1.00  0.00     0.024 C 
HETATM    6  C4  UNK     1      33.923  -7.118  32.219  1.00  0.00     0.069 C 
HETATM    7  C5  UNK     1      32.430  -7.269  32.337  1.00  0.00     0.021 C 
HETATM    8  C6  UNK     1      34.161  -9.074  33.822  1.00  0.00     0.095 C 
HETATM    9  C7  UNK     1      32.653  -9.110  33.954  1.00  0.00     0.159 C 
HETATM   10  C8  UNK     1      29.602  -7.364  32.209  1.00  0.00     0.052 C 
HETATM   11  C9  UNK     1      30.292  -6.505  31.424  1.00  0.00     0.018 C 
HETATM   12  C16 UNK     1      29.689  -5.580  30.402  1.00  0.00     0.069 C 
HETATM   13  H7  UNK     1      32.162  -5.791  30.925  1.00  0.00     0.165 HD
ENDROOT
BRANCH   4  14
HETATM   14  C10 UNK     1      29.855  -7.830  34.639  1.00  0.00     0.029 A 
HETATM   15  C18 UNK     1      29.137  -8.832  35.465  1.00  0.00     0.194 A 
HETATM   16  O7  UNK     1      28.901  -9.962  35.058  1.00  0.00    -0.287 OA
HETATM   17  C22 UNK     1      28.718  -8.393  36.809  1.00  0.00     0.049 A 
HETATM   18  C26 UNK     1      28.036  -9.263  37.664  1.00  0.00     0.025 A 
HETATM   19  C24 UNK     1      29.014  -7.093  37.221  1.00  0.00     0.089 A 
HETATM   20  C28 UNK     1      27.651  -8.823  38.931  1.00  0.00    -0.061 A 
HETATM   21  C29 UNK     1      27.946  -7.522  39.342  1.00  0.00     0.009 A 
HETATM   22  C30 UNK     1      26.922  -9.746  39.850  1.00  0.00     0.048 C 
HETATM   23  C27 UNK     1      28.627  -6.655  38.488  1.00  0.00     0.039 A 
HETATM   24  O5  UNK     1      29.681  -6.197  36.424  1.00  0.00    -0.321 OA
HETATM   25  C21 UNK     1      30.064  -6.621  35.175  1.00  0.00     0.154 A 
ENDBRANCH   4  14
BRANCH  10  26
HETATM   26  C13 UNK     1      28.149  -7.553  32.068  1.00  0.00     0.292 C 
HETATM   27  O6  UNK     1      27.330  -6.724  32.418  1.00  0.00    -0.259 OA
BRANCH  26  28
HETATM   28  O2  UNK     1      27.929  -8.764  31.502  1.00  0.00    -0.315 OA
BRANCH  28  29
HETATM   29  C17 UNK     1      27.705  -8.742  30.089  1.00  0.00     0.211 C 
BRANCH  29  30
HETATM   30  C12 UNK     1      28.796  -9.542  29.404  1.00  0.00     0.145 C 
HETATM   31  O1  UNK     1      29.580 -10.239  30.386  1.00  0.00    -0.384 OA
HETATM   32  C20 UNK     1      30.963 -10.147  30.012  1.00  0.00     0.168 C 
HETATM   33  C15 UNK     1      31.005  -9.553  28.620  1.00  0.00     0.029 C 
HETATM   34  C14 UNK     1      29.770  -8.687  28.613  1.00  0.00     0.036 C 
ENDBRANCH  29  30
ENDBRANCH  28  29
ENDBRANCH  26  28
ENDBRANCH  10  26
BRANCH   3  35
HETATM   35  C11 UNK     1      34.948  -6.741  34.527  1.00  0.00     0.057 A 
HETATM   36  O3  UNK     1      34.488  -5.486  34.322  1.00  0.00    -0.327 OA
HETATM   37  C25 UNK     1      34.784  -4.789  35.449  1.00  0.00     0.142 A 
HETATM   38  C23 UNK     1      35.426  -5.594  36.362  1.00  0.00     0.027 A 
HETATM   39  C19 UNK     1      35.531  -6.868  35.754  1.00  0.00     0.035 A 
ENDBRANCH   3  35
TORSDOF 6
ENDMDL
MODEL 9
REMARK VINA RESULT:      -8.4      1.818      2.964
REMARK  6 active torsions:
REMARK  status: ('A' for Active; 'I' for Inactive)
REMARK    1  A    between atoms: C13_21  and  O2_2 
REMARK    2  A    between atoms: C17_25  and  O2_2 
REMARK    3  A    between atoms: C1_9  and  C11_19 
REMARK    4  A    between atoms: C10_18  and  C2_10 
REMARK    5  A    between atoms: C13_21  and  C8_16 
REMARK    6  A    between atoms: C12_20  and  C17_25 
ROOT
HETATM    1  O4  UNK     1      31.101  -9.675  35.819  1.00  0.00    -0.293 OA
HETATM    2  N1  UNK     1      35.194  -7.295  35.795  1.00  0.00    -0.362 N 
HETATM    3  C1  UNK     1      32.359  -7.297  38.315  1.00  0.00     0.056 C 
HETATM    4  C2  UNK     1      33.376  -8.845  34.269  1.00  0.00     0.104 C 
HETATM    5  C3  UNK     1      33.124  -8.443  35.721  1.00  0.00     0.024 C 
HETATM    6  C4  UNK     1      33.806  -7.217  37.813  1.00  0.00     0.069 C 
HETATM    7  C5  UNK     1      34.010  -7.682  36.396  1.00  0.00     0.021 C 
HETATM    8  C6  UNK     1      31.662  -8.578  37.860  1.00  0.00     0.095 C 
HETATM    9  C7  UNK     1      31.892  -8.936  36.407  1.00  0.00     0.159 C 
HETATM   10  C8  UNK     1      34.779  -8.476  33.788  1.00  0.00     0.052 C 
HETATM   11  C9  UNK     1      35.604  -7.712  34.539  1.00  0.00     0.018 C 
HETATM   12  C16 UNK     1      36.979  -7.253  34.135  1.00  0.00     0.069 C 
HETATM   13  H7  UNK     1      35.836  -6.728  36.337  1.00  0.00     0.165 HD
ENDROOT
BRANCH   4  14
HETATM   14  C10 UNK     1      32.340  -8.224  33.369  1.00  0.00     0.029 A 
HETATM   15  C18 UNK     1      31.531  -9.115  32.500  1.00  0.00     0.194 A 
HETATM   16  O7  UNK     1      31.681 -10.330  32.494  1.00  0.00    -0.287 OA
HETATM   17  C22 UNK     1      30.532  -8.456  31.638  1.00  0.00     0.049 A 
HETATM   18  C26 UNK     1      29.721  -9.207  30.784  1.00  0.00     0.025 A 
HETATM   19  C24 UNK     1      30.405  -7.067  31.687  1.00  0.00     0.089 A 
HETATM   20  C28 UNK     1      28.783  -8.560  29.979  1.00  0.00    -0.061 A 
HETATM   21  C29 UNK     1      28.656  -7.170  30.027  1.00  0.00     0.009 A 
HETATM   22  C30 UNK     1      27.912  -9.354  29.064  1.00  0.00     0.048 C 
HETATM   23  C27 UNK     1      29.467  -6.422  30.880  1.00  0.00     0.039 A 
HETATM   24  O5  UNK     1      31.175  -6.281  32.506  1.00  0.00    -0.321 OA
HETATM   25  C21 UNK     1      32.101  -6.909  33.303  1.00  0.00     0.154 A 
ENDBRANCH   4  14
BRANCH  10  26
HETATM   26  C13 UNK     1      35.200  -9.036  32.493  1.00  0.00     0.292 C 
HETATM   27  O6  UNK     1      35.071  -8.445  31.436  1.00  0.00    -0.259 OA
BRANCH  26  28
HETATM   28  O2  UNK     1      35.727 -10.265  32.709  1.00  0.00    -0.315 OA
BRANCH  28  29
HETATM   29  C17 UNK     1      36.434 -10.825  31.599  1.00  0.00     0.211 C 
BRANCH  29  30
HETATM   30  C12 UNK     1      37.861 -10.311  31.613  1.00  0.00     0.145 C 
HETATM   31  O1  UNK     1      38.554 -10.762  30.437  1.00  0.00    -0.384 OA
HETATM   32  C20 UNK     1      39.879 -11.163  30.816  1.00  0.00     0.168 C 
HETATM   33  C15 UNK     1      40.077 -10.731  32.254  1.00  0.00     0.029 C 
HETATM   34  C14 UNK     1      38.671 -10.806  32.798  1.00  0.00     0.036 C 
ENDBRANCH  29  30
ENDBRANCH  28  29
ENDBRANCH  26  28
ENDBRANCH  10  26
BRANCH   3  35
HETATM   35  C11 UNK     1      31.559  -6.024  38.025  1.00  0.00     0.057 A 
HETATM   36  O3  UNK     1      32.189  -5.094  37.273  1.00  0.00    -0.327 OA
HETATM   37  C25 UNK     1      31.314  -4.063  37.139  1.00  0.00     0.142 A 
HETATM   38  C23 UNK     1      30.139  -4.337  37.800  1.00  0.00     0.027 A 
HETATM   39  C19 UNK     1      30.304  -5.619  38.378  1.00  0.00     0.035 A 
ENDBRANCH   3  35
TORSDOF 6
ENDMDL
MODEL 10
REMARK VINA RESULT:      -8.3      3.013      4.905
REMARK  6 active torsions:
REMARK  status: ('A' for Active; 'I' for Inactive)
REMARK    1  A    between atoms: C13_21  and  O2_2 
REMARK    2  A    between atoms: C17_25  and  O2_2 
REMARK    3  A    between atoms: C1_9  and  C11_19 
REMARK    4  A    between atoms: C10_18  and  C2_10 
REMARK    5  A    between atoms: C13_21  and  C8_16 
REMARK    6  A    between atoms: C12_20  and  C17_25 
ROOT
HETATM    1  O4  UNK     1      30.263  -9.953  37.068  1.00  0.00    -0.293 OA
HETATM    2  N1  UNK     1      29.499  -5.419  38.197  1.00  0.00    -0.362 N 
HETATM    3  C1  UNK     1      27.777  -8.581  39.393  1.00  0.00     0.056 C 
HETATM    4  C2  UNK     1      30.758  -7.204  36.389  1.00  0.00     0.104 C 
HETATM    5  C3  UNK     1      29.863  -7.665  37.538  1.00  0.00     0.024 C 
HETATM    6  C4  UNK     1      28.340  -7.156  39.479  1.00  0.00     0.069 C 
HETATM    7  C5  UNK     1      29.266  -6.773  38.355  1.00  0.00     0.021 C 
HETATM    8  C6  UNK     1      28.831  -9.589  38.939  1.00  0.00     0.095 C 
HETATM    9  C7  UNK     1      29.681  -9.128  37.774  1.00  0.00     0.159 C 
HETATM   10  C8  UNK     1      31.043  -5.703  36.427  1.00  0.00     0.052 C 
HETATM   11  C9  UNK     1      30.399  -4.884  37.290  1.00  0.00     0.018 C 
HETATM   12  C16 UNK     1      30.570  -3.391  37.369  1.00  0.00     0.069 C 
HETATM   13  H7  UNK     1      29.036  -4.782  38.834  1.00  0.00     0.165 HD
ENDROOT
BRANCH   4  14
HETATM   14  C10 UNK     1      30.147  -7.582  35.067  1.00  0.00     0.029 A 
HETATM   15  C18 UNK     1      30.969  -8.352  34.099  1.00  0.00     0.194 A 
HETATM   16  O7  UNK     1      32.121  -8.684  34.345  1.00  0.00    -0.287 OA
HETATM   17  C22 UNK     1      30.322  -8.695  32.820  1.00  0.00     0.049 A 
HETATM   18  C26 UNK     1      31.012  -9.418  31.843  1.00  0.00     0.025 A 
HETATM   19  C24 UNK     1      29.005  -8.290  32.594  1.00  0.00     0.089 A 
HETATM   20  C28 UNK     1      30.377  -9.731  30.641  1.00  0.00    -0.061 A 
HETATM   21  C29 UNK     1      29.060  -9.325  30.415  1.00  0.00     0.009 A 
HETATM   22  C30 UNK     1      31.106 -10.503  29.592  1.00  0.00     0.048 C 
HETATM   23  C27 UNK     1      28.373  -8.604  31.391  1.00  0.00     0.039 A 
HETATM   24  O5  UNK     1      28.281  -7.579  33.518  1.00  0.00    -0.321 OA
HETATM   25  C21 UNK     1      28.898  -7.266  34.705  1.00  0.00     0.154 A 
ENDBRANCH   4  14
BRANCH  10  26
HETATM   26  C13 UNK     1      32.086  -5.207  35.514  1.00  0.00     0.292 C 
HETATM   27  O6  UNK     1      31.848  -4.769  34.403  1.00  0.00    -0.259 OA
BRANCH  26  28
HETATM   28  O2  UNK     1      33.287  -5.331  36.128  1.00  0.00    -0.315 OA
BRANCH  28  29
HETATM   29  C17 UNK     1      34.421  -5.035  35.307  1.00  0.00     0.211 C 
BRANCH  29  30
HETATM   30  C12 UNK     1      34.956  -6.328  34.722  1.00  0.00     0.145 C 
HETATM   31  O1  UNK     1      36.140  -6.731  35.430  1.00  0.00    -0.384 OA
HETATM   32  C20 UNK     1      37.100  -7.209  34.475  1.00  0.00     0.168 C 
HETATM   33  C15 UNK     1      36.386  -7.308  33.143  1.00  0.00     0.029 C 
HETATM   34  C14 UNK     1      35.354  -6.213  33.261  1.00  0.00     0.036 C 
ENDBRANCH  29  30
ENDBRANCH  28  29
ENDBRANCH  26  28
ENDBRANCH  10  26
BRANCH   3  35
HETATM   35  C11 UNK     1      26.471  -8.655  38.598  1.00  0.00     0.057 A 
HETATM   36  O3  UNK     1      26.470  -9.508  37.548  1.00  0.00    -0.327 OA
HETATM   37  C25 UNK     1      25.233  -9.418  36.993  1.00  0.00     0.142 A 
HETATM   38  C23 UNK     1      24.457  -8.516  37.684  1.00  0.00     0.027 A 
HETATM   39  C19 UNK     1      25.270  -8.021  38.731  1.00  0.00     0.035 A 
ENDBRANCH   3  35
TORSDOF 6
ENDMDL
