MODEL 1
REMARK VINA RESULT:      -9.1      0.000      0.000
REMARK  7 active torsions:
REMARK  status: ('A' for Active; 'I' for Inactive)
REMARK    1  A    between atoms: C14_21  and  O2_2 
REMARK    2  A    between atoms: C7_14  and  O2_2 
REMARK    3  A    between atoms: C16_23  and  O4_4 
REMARK    4  A    between atoms: C20_27  and  O5_5 
REMARK    5  A    between atoms: C21_28  and  O6_6 
REMARK    6  A    between atoms: C10_17  and  C9_16 
REMARK    7  A    between atoms: C11_18  and  C14_21 
ROOT
HETATM    1  O1  UNK     1       6.814   5.096  11.481  1.00  0.00    -0.306 OA
HETATM    2  O3  UNK     1       5.411   8.345  11.598  1.00  0.00    -0.284 OA
HETATM    3  C1  UNK     1       6.834   7.015  10.196  1.00  0.00     0.051 A 
HETATM    4  C2  UNK     1       7.283   5.704  10.339  1.00  0.00     0.093 A 
HETATM    5  C3  UNK     1       6.025   6.047  12.118  1.00  0.00     0.127 A 
HETATM    6  C4  UNK     1       5.990   7.313  11.347  1.00  0.00     0.218 A 
HETATM    7  C5  UNK     1       8.109   5.125   9.400  1.00  0.00     0.075 A 
HETATM    8  C6  UNK     1       7.184   7.806   9.122  1.00  0.00     0.021 A 
HETATM    9  C7  UNK     1       8.479   5.905   8.300  1.00  0.00     0.082 A 
HETATM   10  C8  UNK     1       8.021   7.232   8.162  1.00  0.00     0.038 A 
HETATM   11  C9  UNK     1       5.383   5.849  13.270  1.00  0.00     0.053 C 
ENDROOT
BRANCH   9  12
HETATM   12  O2  UNK     1       9.295   5.375   7.344  1.00  0.00    -0.275 OA
BRANCH  12  13
HETATM   13  C14 UNK     1      10.355   6.204   6.974  1.00  0.00     0.298 C 
HETATM   14  O7  UNK     1      10.380   6.940   5.999  1.00  0.00    -0.259 OA
BRANCH  13  15
HETATM   15  C11 UNK     1      11.492   6.070   7.920  1.00  0.00     0.042 A 
HETATM   16  C15 UNK     1      11.644   7.012   8.917  1.00  0.00     0.057 A 
HETATM   17  C16 UNK     1      12.713   6.886   9.805  1.00  0.00     0.102 A 
HETATM   18  C20 UNK     1      13.604   5.821   9.677  1.00  0.00     0.101 A 
HETATM   19  C22 UNK     1      13.429   4.883   8.661  1.00  0.00     0.040 A 
HETATM   20  C17 UNK     1      12.361   5.008   7.773  1.00  0.00     0.020 A 
BRANCH  17  21
HETATM   21  O4  UNK     1      12.873   7.809  10.794  1.00  0.00    -0.353 OA
HETATM   22  C23 UNK     1      13.238   9.129  10.397  1.00  0.00     0.210 C 
ENDBRANCH  17  21
BRANCH  18  23
HETATM   23  O5  UNK     1      14.652   5.687  10.539  1.00  0.00    -0.353 OA
HETATM   24  C24 UNK     1      15.952   5.978  10.027  1.00  0.00     0.210 C 
ENDBRANCH  18  23
ENDBRANCH  13  15
ENDBRANCH  12  13
ENDBRANCH   9  12
BRANCH  11  25
HETATM   25  C10 UNK     1       5.394   4.606  14.065  1.00  0.00    -0.033 A 
HETATM   26  C12 UNK     1       5.668   4.673  15.421  1.00  0.00     0.014 A 
HETATM   27  C18 UNK     1       5.678   3.499  16.173  1.00  0.00     0.037 A 
HETATM   28  C21 UNK     1       5.415   2.274  15.558  1.00  0.00     0.068 A 
HETATM   29  C19 UNK     1       5.142   2.226  14.191  1.00  0.00     0.037 A 
HETATM   30  C13 UNK     1       5.131   3.400  13.439  1.00  0.00     0.014 A 
BRANCH  28  31
HETATM   31  O6  UNK     1       5.426   1.128  16.291  1.00  0.00    -0.356 OA
HETATM   32  C25 UNK     1       5.310   1.261  17.707  1.00  0.00     0.210 C 
ENDBRANCH  28  31
ENDBRANCH  11  25
TORSDOF 7
ENDMDL
MODEL 2
REMARK VINA RESULT:      -8.9     23.708     29.031
REMARK  7 active torsions:
REMARK  status: ('A' for Active; 'I' for Inactive)
REMARK    1  A    between atoms: C14_21  and  O2_2 
REMARK    2  A    between atoms: C7_14  and  O2_2 
REMARK    3  A    between atoms: C16_23  and  O4_4 
REMARK    4  A    between atoms: C20_27  and  O5_5 
REMARK    5  A    between atoms: C21_28  and  O6_6 
REMARK    6  A    between atoms: C10_17  and  C9_16 
REMARK    7  A    between atoms: C11_18  and  C14_21 
ROOT
HETATM    1  O1  UNK     1      18.938   0.313  34.784  1.00  0.00    -0.306 OA
HETATM    2  O3  UNK     1      17.305   1.255  37.782  1.00  0.00    -0.284 OA
HETATM    3  C1  UNK     1      18.503  -0.608  36.857  1.00  0.00     0.051 A 
HETATM    4  C2  UNK     1      19.088  -0.782  35.604  1.00  0.00     0.093 A 
HETATM    5  C3  UNK     1      18.225   1.247  35.527  1.00  0.00     0.127 A 
HETATM    6  C4  UNK     1      17.908   0.723  36.877  1.00  0.00     0.218 A 
HETATM    7  C5  UNK     1      19.737  -1.952  35.275  1.00  0.00     0.075 A 
HETATM    8  C6  UNK     1      18.538  -1.582  37.833  1.00  0.00     0.021 A 
HETATM    9  C7  UNK     1      19.787  -2.956  36.247  1.00  0.00     0.082 A 
HETATM   10  C8  UNK     1      19.194  -2.773  37.513  1.00  0.00     0.038 A 
HETATM   11  C9  UNK     1      17.871   2.454  35.086  1.00  0.00     0.053 C 
ENDROOT
BRANCH   9  12
HETATM   12  O2  UNK     1      20.420  -4.131  35.968  1.00  0.00    -0.275 OA
BRANCH  12  13
HETATM   13  C14 UNK     1      21.056  -4.714  37.065  1.00  0.00     0.298 C 
HETATM   14  O7  UNK     1      22.015  -4.250  37.664  1.00  0.00    -0.259 OA
BRANCH  13  15
HETATM   15  C11 UNK     1      20.425  -6.010  37.421  1.00  0.00     0.042 A 
HETATM   16  C15 UNK     1      19.561  -6.601  36.522  1.00  0.00     0.057 A 
HETATM   17  C16 UNK     1      18.969  -7.819  36.858  1.00  0.00     0.102 A 
HETATM   18  C20 UNK     1      19.254  -8.418  38.084  1.00  0.00     0.101 A 
HETATM   19  C22 UNK     1      20.130  -7.801  38.976  1.00  0.00     0.040 A 
HETATM   20  C17 UNK     1      20.723  -6.584  38.640  1.00  0.00     0.020 A 
BRANCH  17  21
HETATM   21  O4  UNK     1      18.114  -8.412  35.978  1.00  0.00    -0.353 OA
HETATM   22  C23 UNK     1      17.219  -7.560  35.267  1.00  0.00     0.210 C 
ENDBRANCH  17  21
BRANCH  18  23
HETATM   23  O5  UNK     1      18.681  -9.608  38.424  1.00  0.00    -0.353 OA
HETATM   24  C24 UNK     1      19.452 -10.786  38.196  1.00  0.00     0.210 C 
ENDBRANCH  18  23
ENDBRANCH  13  15
ENDBRANCH  12  13
ENDBRANCH   9  12
BRANCH  11  25
HETATM   25  C10 UNK     1      18.167   3.009  33.751  1.00  0.00    -0.033 A 
HETATM   26  C12 UNK     1      18.396   4.368  33.619  1.00  0.00     0.014 A 
HETATM   27  C18 UNK     1      18.675   4.894  32.358  1.00  0.00     0.037 A 
HETATM   28  C21 UNK     1      18.721   4.051  31.246  1.00  0.00     0.068 A 
HETATM   29  C19 UNK     1      18.487   2.685  31.397  1.00  0.00     0.037 A 
HETATM   30  C13 UNK     1      18.208   2.160  32.658  1.00  0.00     0.014 A 
BRANCH  28  31
HETATM   31  O6  UNK     1      18.993   4.563  30.015  1.00  0.00    -0.356 OA
HETATM   32  C25 UNK     1      19.489   5.900  29.962  1.00  0.00     0.210 C 
ENDBRANCH  28  31
ENDBRANCH  11  25
TORSDOF 7
ENDMDL
MODEL 3
REMARK VINA RESULT:      -8.9     29.723     34.069
REMARK  7 active torsions:
REMARK  status: ('A' for Active; 'I' for Inactive)
REMARK    1  A    between atoms: C14_21  and  O2_2 
REMARK    2  A    between atoms: C7_14  and  O2_2 
REMARK    3  A    between atoms: C16_23  and  O4_4 
REMARK    4  A    between atoms: C20_27  and  O5_5 
REMARK    5  A    between atoms: C21_28  and  O6_6 
REMARK    6  A    between atoms: C10_17  and  C9_16 
REMARK    7  A    between atoms: C11_18  and  C14_21 
ROOT
HETATM    1  O1  UNK     1      22.992  -8.369  36.631  1.00  0.00    -0.306 OA
HETATM    2  O3  UNK     1      21.234 -11.096  35.212  1.00  0.00    -0.284 OA
HETATM    3  C1  UNK     1      23.414 -10.568  36.065  1.00  0.00     0.051 A 
HETATM    4  C2  UNK     1      23.920  -9.385  36.599  1.00  0.00     0.093 A 
HETATM    5  C3  UNK     1      21.826  -8.905  36.095  1.00  0.00     0.127 A 
HETATM    6  C4  UNK     1      22.022 -10.322  35.706  1.00  0.00     0.218 A 
HETATM    7  C5  UNK     1      25.224  -9.298  37.036  1.00  0.00     0.075 A 
HETATM    8  C6  UNK     1      24.176 -11.711  35.941  1.00  0.00     0.021 A 
HETATM    9  C7  UNK     1      26.018 -10.443  36.922  1.00  0.00     0.082 A 
HETATM   10  C8  UNK     1      25.500 -11.637  36.380  1.00  0.00     0.038 A 
HETATM   11  C9  UNK     1      20.683  -8.236  35.949  1.00  0.00     0.053 C 
ENDROOT
BRANCH   9  12
HETATM   12  O2  UNK     1      27.316 -10.406  37.342  1.00  0.00    -0.275 OA
BRANCH  12  13
HETATM   13  C14 UNK     1      27.481  -9.947  38.649  1.00  0.00     0.298 C 
HETATM   14  O7  UNK     1      27.070 -10.501  39.658  1.00  0.00    -0.259 OA
BRANCH  13  15
HETATM   15  C11 UNK     1      28.223  -8.661  38.673  1.00  0.00     0.042 A 
HETATM   16  C15 UNK     1      29.463  -8.594  38.072  1.00  0.00     0.057 A 
HETATM   17  C16 UNK     1      30.159  -7.385  38.095  1.00  0.00     0.102 A 
HETATM   18  C20 UNK     1      29.599  -6.270  38.718  1.00  0.00     0.101 A 
HETATM   19  C22 UNK     1      28.344  -6.364  39.320  1.00  0.00     0.040 A 
HETATM   20  C17 UNK     1      27.648  -7.572  39.296  1.00  0.00     0.020 A 
BRANCH  17  21
HETATM   21  O4  UNK     1      31.384  -7.306  37.504  1.00  0.00    -0.353 OA
HETATM   22  C23 UNK     1      32.486  -7.862  38.218  1.00  0.00     0.210 C 
ENDBRANCH  17  21
BRANCH  18  23
HETATM   23  O5  UNK     1      30.269  -5.084  38.748  1.00  0.00    -0.353 OA
HETATM   24  C24 UNK     1      29.565  -3.955  39.263  1.00  0.00     0.210 C 
ENDBRANCH  18  23
ENDBRANCH  13  15
ENDBRANCH  12  13
ENDBRANCH   9  12
BRANCH  11  25
HETATM   25  C10 UNK     1      20.450  -6.827  36.323  1.00  0.00    -0.033 A 
HETATM   26  C12 UNK     1      20.002  -5.938  35.361  1.00  0.00     0.014 A 
HETATM   27  C18 UNK     1      19.781  -4.607  35.714  1.00  0.00     0.037 A 
HETATM   28  C21 UNK     1      20.013  -4.185  37.024  1.00  0.00     0.068 A 
HETATM   29  C19 UNK     1      20.465  -5.094  37.979  1.00  0.00     0.037 A 
HETATM   30  C13 UNK     1      20.685  -6.425  37.627  1.00  0.00     0.014 A 
BRANCH  28  31
HETATM   31  O6  UNK     1      19.799  -2.886  37.368  1.00  0.00    -0.356 OA
HETATM   32  C25 UNK     1      18.634  -2.256  36.838  1.00  0.00     0.210 C 
ENDBRANCH  28  31
ENDBRANCH  11  25
TORSDOF 7
ENDMDL
MODEL 4
REMARK VINA RESULT:      -8.9     30.524     34.578
REMARK  7 active torsions:
REMARK  status: ('A' for Active; 'I' for Inactive)
REMARK    1  A    between atoms: C14_21  and  O2_2 
REMARK    2  A    between atoms: C7_14  and  O2_2 
REMARK    3  A    between atoms: C16_23  and  O4_4 
REMARK    4  A    between atoms: C20_27  and  O5_5 
REMARK    5  A    between atoms: C21_28  and  O6_6 
REMARK    6  A    between atoms: C10_17  and  C9_16 
REMARK    7  A    between atoms: C11_18  and  C14_21 
ROOT
HETATM    1  O1  UNK     1      24.130  -8.752  37.313  1.00  0.00    -0.306 OA
HETATM    2  O3  UNK     1      25.463 -11.659  35.793  1.00  0.00    -0.284 OA
HETATM    3  C1  UNK     1      26.166  -9.834  37.183  1.00  0.00     0.051 A 
HETATM    4  C2  UNK     1      25.454  -8.748  37.689  1.00  0.00     0.093 A 
HETATM    5  C3  UNK     1      23.963  -9.886  36.526  1.00  0.00     0.127 A 
HETATM    6  C4  UNK     1      25.236 -10.636  36.397  1.00  0.00     0.218 A 
HETATM    7  C5  UNK     1      26.064  -7.799  38.479  1.00  0.00     0.075 A 
HETATM    8  C6  UNK     1      27.508 -10.024  37.439  1.00  0.00     0.021 A 
HETATM    9  C7  UNK     1      27.424  -7.969  38.754  1.00  0.00     0.082 A 
HETATM   10  C8  UNK     1      28.139  -9.070  38.239  1.00  0.00     0.038 A 
HETATM   11  C9  UNK     1      22.812 -10.254  35.962  1.00  0.00     0.053 C 
ENDROOT
BRANCH   9  12
HETATM   12  O2  UNK     1      28.072  -7.055  39.533  1.00  0.00    -0.275 OA
BRANCH  12  13
HETATM   13  C14 UNK     1      28.160  -5.782  38.968  1.00  0.00     0.298 C 
HETATM   14  O7  UNK     1      27.256  -4.962  38.909  1.00  0.00    -0.259 OA
BRANCH  13  15
HETATM   15  C11 UNK     1      29.517  -5.537  38.415  1.00  0.00     0.042 A 
HETATM   16  C15 UNK     1      30.471  -6.527  38.527  1.00  0.00     0.057 A 
HETATM   17  C16 UNK     1      31.746  -6.297  38.008  1.00  0.00     0.102 A 
HETATM   18  C20 UNK     1      32.036  -5.082  37.387  1.00  0.00     0.101 A 
HETATM   19  C22 UNK     1      31.054  -4.097  37.287  1.00  0.00     0.040 A 
HETATM   20  C17 UNK     1      29.780  -4.327  37.806  1.00  0.00     0.020 A 
BRANCH  17  21
HETATM   21  O4  UNK     1      32.696  -7.266  38.112  1.00  0.00    -0.353 OA
HETATM   22  C23 UNK     1      32.667  -8.311  37.141  1.00  0.00     0.210 C 
ENDBRANCH  17  21
BRANCH  18  23
HETATM   23  O5  UNK     1      33.277  -4.844  36.876  1.00  0.00    -0.353 OA
HETATM   24  C24 UNK     1      33.381  -4.718  35.459  1.00  0.00     0.210 C 
ENDBRANCH  18  23
ENDBRANCH  13  15
ENDBRANCH  12  13
ENDBRANCH   9  12
BRANCH  11  25
HETATM   25  C10 UNK     1      21.528  -9.535  36.067  1.00  0.00    -0.033 A 
HETATM   26  C12 UNK     1      21.284  -8.460  35.229  1.00  0.00     0.014 A 
HETATM   27  C18 UNK     1      20.071  -7.780  35.327  1.00  0.00     0.037 A 
HETATM   28  C21 UNK     1      19.118  -8.185  36.263  1.00  0.00     0.068 A 
HETATM   29  C19 UNK     1      19.381  -9.270  37.100  1.00  0.00     0.037 A 
HETATM   30  C13 UNK     1      20.594  -9.949  37.001  1.00  0.00     0.014 A 
BRANCH  28  31
HETATM   31  O6  UNK     1      17.935  -7.521  36.361  1.00  0.00    -0.356 OA
HETATM   32  C25 UNK     1      17.111  -7.488  35.196  1.00  0.00     0.210 C 
ENDBRANCH  28  31
ENDBRANCH  11  25
TORSDOF 7
ENDMDL
MODEL 5
REMARK VINA RESULT:      -8.9     23.985     28.995
REMARK  7 active torsions:
REMARK  status: ('A' for Active; 'I' for Inactive)
REMARK    1  A    between atoms: C14_21  and  O2_2 
REMARK    2  A    between atoms: C7_14  and  O2_2 
REMARK    3  A    between atoms: C16_23  and  O4_4 
REMARK    4  A    between atoms: C20_27  and  O5_5 
REMARK    5  A    between atoms: C21_28  and  O6_6 
REMARK    6  A    between atoms: C10_17  and  C9_16 
REMARK    7  A    between atoms: C11_18  and  C14_21 
ROOT
HETATM    1  O1  UNK     1      18.939   0.221  34.770  1.00  0.00    -0.306 OA
HETATM    2  O3  UNK     1      17.491   1.150  37.865  1.00  0.00    -0.284 OA
HETATM    3  C1  UNK     1      18.595  -0.723  36.849  1.00  0.00     0.051 A 
HETATM    4  C2  UNK     1      19.107  -0.889  35.564  1.00  0.00     0.093 A 
HETATM    5  C3  UNK     1      18.288   1.159  35.564  1.00  0.00     0.127 A 
HETATM    6  C4  UNK     1      18.032   0.620  36.921  1.00  0.00     0.218 A 
HETATM    7  C5  UNK     1      19.711  -2.068  35.183  1.00  0.00     0.075 A 
HETATM    8  C6  UNK     1      18.659  -1.714  37.807  1.00  0.00     0.021 A 
HETATM    9  C7  UNK     1      19.790  -3.089  36.135  1.00  0.00     0.082 A 
HETATM   10  C8  UNK     1      19.269  -2.913  37.434  1.00  0.00     0.038 A 
HETATM   11  C9  UNK     1      17.939   2.381  35.161  1.00  0.00     0.053 C 
ENDROOT
BRANCH   9  12
HETATM   12  O2  UNK     1      20.379  -4.273  35.804  1.00  0.00    -0.275 OA
BRANCH  12  13
HETATM   13  C14 UNK     1      19.639  -5.401  36.162  1.00  0.00     0.298 C 
HETATM   14  O7  UNK     1      18.442  -5.422  36.406  1.00  0.00    -0.259 OA
BRANCH  13  15
HETATM   15  C11 UNK     1      20.504  -6.607  36.232  1.00  0.00     0.042 A 
HETATM   16  C15 UNK     1      21.294  -6.796  37.347  1.00  0.00     0.057 A 
HETATM   17  C16 UNK     1      22.106  -7.929  37.411  1.00  0.00     0.102 A 
HETATM   18  C20 UNK     1      22.108  -8.846  36.361  1.00  0.00     0.101 A 
HETATM   19  C22 UNK     1      21.301  -8.631  35.245  1.00  0.00     0.040 A 
HETATM   20  C17 UNK     1      20.488  -7.500  35.180  1.00  0.00     0.020 A 
BRANCH  17  21
HETATM   21  O4  UNK     1      22.892  -8.128  38.507  1.00  0.00    -0.353 OA
HETATM   22  C23 UNK     1      22.234  -8.226  39.768  1.00  0.00     0.210 C 
ENDBRANCH  17  21
BRANCH  18  23
HETATM   23  O5  UNK     1      22.898  -9.957  36.412  1.00  0.00    -0.353 OA
HETATM   24  C24 UNK     1      22.543 -11.044  35.560  1.00  0.00     0.210 C 
ENDBRANCH  18  23
ENDBRANCH  13  15
ENDBRANCH  12  13
ENDBRANCH   9  12
BRANCH  11  25
HETATM   25  C10 UNK     1      18.176   2.951  33.821  1.00  0.00    -0.033 A 
HETATM   26  C12 UNK     1      18.342   4.320  33.688  1.00  0.00     0.014 A 
HETATM   27  C18 UNK     1      18.565   4.859  32.422  1.00  0.00     0.037 A 
HETATM   28  C21 UNK     1      18.620   4.022  31.307  1.00  0.00     0.068 A 
HETATM   29  C19 UNK     1      18.451   2.646  31.459  1.00  0.00     0.037 A 
HETATM   30  C13 UNK     1      18.227   2.107  32.726  1.00  0.00     0.014 A 
BRANCH  28  31
HETATM   31  O6  UNK     1      18.837   4.548  30.071  1.00  0.00    -0.356 OA
HETATM   32  C25 UNK     1      19.607   5.747  30.001  1.00  0.00     0.210 C 
ENDBRANCH  28  31
ENDBRANCH  11  25
TORSDOF 7
ENDMDL
MODEL 6
REMARK VINA RESULT:      -8.8      5.649     12.499
REMARK  7 active torsions:
REMARK  status: ('A' for Active; 'I' for Inactive)
REMARK    1  A    between atoms: C14_21  and  O2_2 
REMARK    2  A    between atoms: C7_14  and  O2_2 
REMARK    3  A    between atoms: C16_23  and  O4_4 
REMARK    4  A    between atoms: C20_27  and  O5_5 
REMARK    5  A    between atoms: C21_28  and  O6_6 
REMARK    6  A    between atoms: C10_17  and  C9_16 
REMARK    7  A    between atoms: C11_18  and  C14_21 
ROOT
HETATM    1  O1  UNK     1      18.457  10.522   9.928  1.00  0.00    -0.306 OA
HETATM    2  O3  UNK     1      17.054  12.778   7.586  1.00  0.00    -0.284 OA
HETATM    3  C1  UNK     1      16.513  10.720   8.696  1.00  0.00     0.051 A 
HETATM    4  C2  UNK     1      17.237   9.968   9.619  1.00  0.00     0.093 A 
HETATM    5  C3  UNK     1      18.543  11.689   9.175  1.00  0.00     0.127 A 
HETATM    6  C4  UNK     1      17.324  11.883   8.355  1.00  0.00     0.218 A 
HETATM    7  C5  UNK     1      16.730   8.795  10.138  1.00  0.00     0.075 A 
HETATM    8  C6  UNK     1      15.264  10.344   8.249  1.00  0.00     0.021 A 
HETATM    9  C7  UNK     1      15.465   8.392   9.702  1.00  0.00     0.082 A 
HETATM   10  C8  UNK     1      14.739   9.158   8.767  1.00  0.00     0.038 A 
HETATM   11  C9  UNK     1      19.582  12.524   9.189  1.00  0.00     0.053 C 
ENDROOT
BRANCH   9  12
HETATM   12  O2  UNK     1      14.922   7.239  10.188  1.00  0.00    -0.275 OA
BRANCH  12  13
HETATM   13  C14 UNK     1      14.864   6.198   9.260  1.00  0.00     0.298 C 
HETATM   14  O7  UNK     1      15.795   5.474   8.939  1.00  0.00    -0.259 OA
BRANCH  13  15
HETATM   15  C11 UNK     1      13.504   6.078   8.677  1.00  0.00     0.042 A 
HETATM   16  C15 UNK     1      12.437   5.840   9.519  1.00  0.00     0.057 A 
HETATM   17  C16 UNK     1      11.158   5.727   8.970  1.00  0.00     0.102 A 
HETATM   18  C20 UNK     1      10.977   5.857   7.593  1.00  0.00     0.101 A 
HETATM   19  C22 UNK     1      12.072   6.097   6.764  1.00  0.00     0.040 A 
HETATM   20  C17 UNK     1      13.349   6.211   7.312  1.00  0.00     0.020 A 
BRANCH  17  21
HETATM   21  O4  UNK     1      10.096   5.492   9.790  1.00  0.00    -0.353 OA
HETATM   22  C23 UNK     1       9.883   4.145  10.206  1.00  0.00     0.210 C 
ENDBRANCH  17  21
BRANCH  18  23
HETATM   23  O5  UNK     1       9.733   5.748   7.046  1.00  0.00    -0.353 OA
HETATM   24  C24 UNK     1       9.589   6.142   5.682  1.00  0.00     0.210 C 
ENDBRANCH  18  23
ENDBRANCH  13  15
ENDBRANCH  12  13
ENDBRANCH   9  12
BRANCH  11  25
HETATM   25  C10 UNK     1      20.811  12.364   9.991  1.00  0.00    -0.033 A 
HETATM   26  C12 UNK     1      22.033  12.286   9.346  1.00  0.00     0.014 A 
HETATM   27  C18 UNK     1      23.195  12.135  10.103  1.00  0.00     0.037 A 
HETATM   28  C21 UNK     1      23.116  12.065  11.495  1.00  0.00     0.068 A 
HETATM   29  C19 UNK     1      21.876  12.145  12.127  1.00  0.00     0.037 A 
HETATM   30  C13 UNK     1      20.715  12.296  11.370  1.00  0.00     0.014 A 
BRANCH  28  31
HETATM   31  O6  UNK     1      24.249  11.917  12.234  1.00  0.00    -0.356 OA
HETATM   32  C25 UNK     1      25.390  11.373  11.572  1.00  0.00     0.210 C 
ENDBRANCH  28  31
ENDBRANCH  11  25
TORSDOF 7
ENDMDL
MODEL 7
REMARK VINA RESULT:      -8.7     22.231     24.301
REMARK  7 active torsions:
REMARK  status: ('A' for Active; 'I' for Inactive)
REMARK    1  A    between atoms: C14_21  and  O2_2 
REMARK    2  A    between atoms: C7_14  and  O2_2 
REMARK    3  A    between atoms: C16_23  and  O4_4 
REMARK    4  A    between atoms: C20_27  and  O5_5 
REMARK    5  A    between atoms: C21_28  and  O6_6 
REMARK    6  A    between atoms: C10_17  and  C9_16 
REMARK    7  A    between atoms: C11_18  and  C14_21 
ROOT
HETATM    1  O1  UNK     1      16.389   8.424  33.358  1.00  0.00    -0.306 OA
HETATM    2  O3  UNK     1      19.564   9.664  34.319  1.00  0.00    -0.284 OA
HETATM    3  C1  UNK     1      18.577   7.682  33.393  1.00  0.00     0.051 A 
HETATM    4  C2  UNK     1      17.251   7.388  33.080  1.00  0.00     0.093 A 
HETATM    5  C3  UNK     1      17.180   9.444  33.876  1.00  0.00     0.127 A 
HETATM    6  C4  UNK     1      18.605   9.038  33.929  1.00  0.00     0.218 A 
HETATM    7  C5  UNK     1      16.897   6.167  32.549  1.00  0.00     0.075 A 
HETATM    8  C6  UNK     1      19.603   6.784  33.192  1.00  0.00     0.021 A 
HETATM    9  C7  UNK     1      17.919   5.237  32.335  1.00  0.00     0.082 A 
HETATM   10  C8  UNK     1      19.258   5.542  32.653  1.00  0.00     0.038 A 
HETATM   11  C9  UNK     1      16.720  10.631  34.273  1.00  0.00     0.053 C 
ENDROOT
BRANCH   9  12
HETATM   12  O2  UNK     1      17.617   4.015  31.810  1.00  0.00    -0.275 OA
BRANCH  12  13
HETATM   13  C14 UNK     1      18.415   3.645  30.726  1.00  0.00     0.298 C 
HETATM   14  O7  UNK     1      18.735   4.368  29.794  1.00  0.00    -0.259 OA
BRANCH  13  15
HETATM   15  C11 UNK     1      18.829   2.222  30.830  1.00  0.00     0.042 A 
HETATM   16  C15 UNK     1      18.692   1.575  32.041  1.00  0.00     0.057 A 
HETATM   17  C16 UNK     1      19.082   0.239  32.138  1.00  0.00     0.102 A 
HETATM   18  C20 UNK     1      19.599  -0.420  31.022  1.00  0.00     0.101 A 
HETATM   19  C22 UNK     1      19.728   0.257  29.810  1.00  0.00     0.040 A 
HETATM   20  C17 UNK     1      19.338   1.593  29.712  1.00  0.00     0.020 A 
BRANCH  17  21
HETATM   21  O4  UNK     1      18.952  -0.412  33.327  1.00  0.00    -0.353 OA
HETATM   22  C23 UNK     1      18.266   0.275  34.371  1.00  0.00     0.210 C 
ENDBRANCH  17  21
BRANCH  18  23
HETATM   23  O5  UNK     1      19.984  -1.725  31.104  1.00  0.00    -0.353 OA
HETATM   24  C24 UNK     1      20.440  -2.343  29.902  1.00  0.00     0.210 C 
ENDBRANCH  18  23
ENDBRANCH  13  15
ENDBRANCH  12  13
ENDBRANCH   9  12
BRANCH  11  25
HETATM   25  C10 UNK     1      15.312  11.070  34.237  1.00  0.00    -0.033 A 
HETATM   26  C12 UNK     1      14.567  10.860  33.088  1.00  0.00     0.014 A 
HETATM   27  C18 UNK     1      13.237  11.275  33.053  1.00  0.00     0.037 A 
HETATM   28  C21 UNK     1      12.669  11.894  34.168  1.00  0.00     0.068 A 
HETATM   29  C19 UNK     1      13.434  12.097  35.316  1.00  0.00     0.037 A 
HETATM   30  C13 UNK     1      14.765  11.683  35.351  1.00  0.00     0.014 A 
BRANCH  28  31
HETATM   31  O6  UNK     1      11.371  12.300  34.133  1.00  0.00    -0.356 OA
HETATM   32  C25 UNK     1      10.964  13.261  35.106  1.00  0.00     0.210 C 
ENDBRANCH  28  31
ENDBRANCH  11  25
TORSDOF 7
ENDMDL
MODEL 8
REMARK VINA RESULT:      -8.7     22.870     27.146
REMARK  7 active torsions:
REMARK  status: ('A' for Active; 'I' for Inactive)
REMARK    1  A    between atoms: C14_21  and  O2_2 
REMARK    2  A    between atoms: C7_14  and  O2_2 
REMARK    3  A    between atoms: C16_23  and  O4_4 
REMARK    4  A    between atoms: C20_27  and  O5_5 
REMARK    5  A    between atoms: C21_28  and  O6_6 
REMARK    6  A    between atoms: C10_17  and  C9_16 
REMARK    7  A    between atoms: C11_18  and  C14_21 
ROOT
HETATM    1  O1  UNK     1      18.105   2.704  33.407  1.00  0.00    -0.306 OA
HETATM    2  O3  UNK     1      18.832   2.024  30.008  1.00  0.00    -0.284 OA
HETATM    3  C1  UNK     1      18.722   0.888  32.119  1.00  0.00     0.051 A 
HETATM    4  C2  UNK     1      18.403   1.361  33.391  1.00  0.00     0.093 A 
HETATM    5  C3  UNK     1      18.233   3.135  32.091  1.00  0.00     0.127 A 
HETATM    6  C4  UNK     1      18.629   2.017  31.201  1.00  0.00     0.218 A 
HETATM    7  C5  UNK     1      18.401   0.522  34.484  1.00  0.00     0.075 A 
HETATM    8  C6  UNK     1      19.051  -0.429  31.879  1.00  0.00     0.021 A 
HETATM    9  C7  UNK     1      18.732  -0.819  34.268  1.00  0.00     0.082 A 
HETATM   10  C8  UNK     1      19.053  -1.290  32.979  1.00  0.00     0.038 A 
HETATM   11  C9  UNK     1      18.028   4.387  31.681  1.00  0.00     0.053 C 
ENDROOT
BRANCH   9  12
HETATM   12  O2  UNK     1      18.743  -1.687  35.320  1.00  0.00    -0.275 OA
BRANCH  12  13
HETATM   13  C14 UNK     1      20.020  -2.019  35.774  1.00  0.00     0.298 C 
HETATM   14  O7  UNK     1      20.987  -1.271  35.798  1.00  0.00    -0.259 OA
BRANCH  13  15
HETATM   15  C11 UNK     1      20.076  -3.434  36.223  1.00  0.00     0.042 A 
HETATM   16  C15 UNK     1      19.751  -4.430  35.326  1.00  0.00     0.057 A 
HETATM   17  C16 UNK     1      19.803  -5.760  35.748  1.00  0.00     0.102 A 
HETATM   18  C20 UNK     1      20.180  -6.061  37.057  1.00  0.00     0.101 A 
HETATM   19  C22 UNK     1      20.503  -5.035  37.944  1.00  0.00     0.040 A 
HETATM   20  C17 UNK     1      20.452  -3.707  37.522  1.00  0.00     0.020 A 
BRANCH  17  21
HETATM   21  O4  UNK     1      19.484  -6.753  34.873  1.00  0.00    -0.353 OA
HETATM   22  C23 UNK     1      20.546  -7.292  34.089  1.00  0.00     0.210 C 
ENDBRANCH  17  21
BRANCH  18  23
HETATM   23  O5  UNK     1      20.234  -7.355  37.481  1.00  0.00    -0.353 OA
HETATM   24  C24 UNK     1      19.170  -7.808  38.317  1.00  0.00     0.210 C 
ENDBRANCH  18  23
ENDBRANCH  13  15
ENDBRANCH  12  13
ENDBRANCH   9  12
BRANCH  11  25
HETATM   25  C10 UNK     1      17.634   5.524  32.535  1.00  0.00    -0.033 A 
HETATM   26  C12 UNK     1      16.406   6.130  32.331  1.00  0.00     0.014 A 
HETATM   27  C18 UNK     1      16.033   7.204  33.138  1.00  0.00     0.037 A 
HETATM   28  C21 UNK     1      16.895   7.658  34.138  1.00  0.00     0.068 A 
HETATM   29  C19 UNK     1      18.128   7.035  34.329  1.00  0.00     0.037 A 
HETATM   30  C13 UNK     1      18.501   5.961  33.522  1.00  0.00     0.014 A 
BRANCH  28  31
HETATM   31  O6  UNK     1      16.532   8.707  34.925  1.00  0.00    -0.356 OA
HETATM   32  C25 UNK     1      15.742   9.729  34.321  1.00  0.00     0.210 C 
ENDBRANCH  28  31
ENDBRANCH  11  25
TORSDOF 7
ENDMDL
MODEL 9
REMARK VINA RESULT:      -8.5     30.816     34.705
REMARK  7 active torsions:
REMARK  status: ('A' for Active; 'I' for Inactive)
REMARK    1  A    between atoms: C14_21  and  O2_2 
REMARK    2  A    between atoms: C7_14  and  O2_2 
REMARK    3  A    between atoms: C16_23  and  O4_4 
REMARK    4  A    between atoms: C20_27  and  O5_5 
REMARK    5  A    between atoms: C21_28  and  O6_6 
REMARK    6  A    between atoms: C10_17  and  C9_16 
REMARK    7  A    between atoms: C11_18  and  C14_21 
ROOT
HETATM    1  O1  UNK     1      28.845  -6.792  35.402  1.00  0.00    -0.306 OA
HETATM    2  O3  UNK     1      31.407  -5.165  37.227  1.00  0.00    -0.284 OA
HETATM    3  C1  UNK     1      29.295  -6.242  37.600  1.00  0.00     0.051 A 
HETATM    4  C2  UNK     1      28.409  -6.841  36.706  1.00  0.00     0.093 A 
HETATM    5  C3  UNK     1      30.069  -6.134  35.438  1.00  0.00     0.127 A 
HETATM    6  C4  UNK     1      30.426  -5.748  36.824  1.00  0.00     0.218 A 
HETATM    7  C5  UNK     1      27.231  -7.408  37.141  1.00  0.00     0.075 A 
HETATM    8  C6  UNK     1      29.052  -6.181  38.956  1.00  0.00     0.021 A 
HETATM    9  C7  UNK     1      26.960  -7.360  38.512  1.00  0.00     0.082 A 
HETATM   10  C8  UNK     1      27.862  -6.752  39.410  1.00  0.00     0.038 A 
HETATM   11  C9  UNK     1      30.824  -5.882  34.368  1.00  0.00     0.053 C 
ENDROOT
BRANCH   9  12
HETATM   12  O2  UNK     1      25.807  -7.909  38.990  1.00  0.00    -0.275 OA
BRANCH  12  13
HETATM   13  C14 UNK     1      24.682  -7.096  38.840  1.00  0.00     0.298 C 
HETATM   14  O7  UNK     1      24.668  -5.876  38.901  1.00  0.00    -0.259 OA
BRANCH  13  15
HETATM   15  C11 UNK     1      23.462  -7.912  38.609  1.00  0.00     0.042 A 
HETATM   16  C15 UNK     1      23.295  -8.530  37.387  1.00  0.00     0.057 A 
HETATM   17  C16 UNK     1      22.149  -9.296  37.171  1.00  0.00     0.102 A 
HETATM   18  C20 UNK     1      21.196  -9.426  38.181  1.00  0.00     0.101 A 
HETATM   19  C22 UNK     1      21.388  -8.790  39.407  1.00  0.00     0.040 A 
HETATM   20  C17 UNK     1      22.534  -8.026  39.624  1.00  0.00     0.020 A 
BRANCH  17  21
HETATM   21  O4  UNK     1      21.972  -9.912  35.968  1.00  0.00    -0.353 OA
HETATM   22  C23 UNK     1      22.730 -11.095  35.728  1.00  0.00     0.210 C 
ENDBRANCH  17  21
BRANCH  18  23
HETATM   23  O5  UNK     1      20.072 -10.171  37.982  1.00  0.00    -0.353 OA
HETATM   24  C24 UNK     1      18.936  -9.497  37.441  1.00  0.00     0.210 C 
ENDBRANCH  18  23
ENDBRANCH  13  15
ENDBRANCH  12  13
ENDBRANCH   9  12
BRANCH  11  25
HETATM   25  C10 UNK     1      30.503  -6.249  32.975  1.00  0.00    -0.033 A 
HETATM   26  C12 UNK     1      29.690  -5.415  32.226  1.00  0.00     0.014 A 
HETATM   27  C18 UNK     1      29.386  -5.761  30.911  1.00  0.00     0.037 A 
HETATM   28  C21 UNK     1      29.900  -6.938  30.362  1.00  0.00     0.068 A 
HETATM   29  C19 UNK     1      30.717  -7.766  31.131  1.00  0.00     0.037 A 
HETATM   30  C13 UNK     1      31.021  -7.419  32.447  1.00  0.00     0.014 A 
BRANCH  28  31
HETATM   31  O6  UNK     1      29.603  -7.276  29.078  1.00  0.00    -0.356 OA
HETATM   32  C25 UNK     1      30.010  -8.570  28.636  1.00  0.00     0.210 C 
ENDBRANCH  28  31
ENDBRANCH  11  25
TORSDOF 7
ENDMDL
MODEL 10
REMARK VINA RESULT:      -8.5      3.407     10.251
REMARK  7 active torsions:
REMARK  status: ('A' for Active; 'I' for Inactive)
REMARK    1  A    between atoms: C14_21  and  O2_2 
REMARK    2  A    between atoms: C7_14  and  O2_2 
REMARK    3  A    between atoms: C16_23  and  O4_4 
REMARK    4  A    between atoms: C20_27  and  O5_5 
REMARK    5  A    between atoms: C21_28  and  O6_6 
REMARK    6  A    between atoms: C10_17  and  C9_16 
REMARK    7  A    between atoms: C11_18  and  C14_21 
ROOT
HETATM    1  O1  UNK     1      14.266   8.474   8.213  1.00  0.00    -0.306 OA
HETATM    2  O3  UNK     1      15.097   7.128  11.381  1.00  0.00    -0.284 OA
HETATM    3  C1  UNK     1      13.613   6.703   9.544  1.00  0.00     0.051 A 
HETATM    4  C2  UNK     1      13.437   7.384   8.341  1.00  0.00     0.093 A 
HETATM    5  C3  UNK     1      15.020   8.514   9.381  1.00  0.00     0.127 A 
HETATM    6  C4  UNK     1      14.654   7.401  10.289  1.00  0.00     0.218 A 
HETATM    7  C5  UNK     1      12.512   6.962   7.410  1.00  0.00     0.075 A 
HETATM    8  C6  UNK     1      12.883   5.581   9.874  1.00  0.00     0.021 A 
HETATM    9  C7  UNK     1      11.759   5.826   7.720  1.00  0.00     0.082 A 
HETATM   10  C8  UNK     1      11.942   5.142   8.940  1.00  0.00     0.038 A 
HETATM   11  C9  UNK     1      15.950   9.431   9.651  1.00  0.00     0.053 C 
ENDROOT
BRANCH   9  12
HETATM   12  O2  UNK     1      10.832   5.370   6.830  1.00  0.00    -0.275 OA
BRANCH  12  13
HETATM   13  C14 UNK     1       9.750   6.231   6.639  1.00  0.00     0.298 C 
HETATM   14  O7  UNK     1       9.496   6.843   5.612  1.00  0.00    -0.259 OA
BRANCH  13  15
HETATM   15  C11 UNK     1       8.928   6.336   7.872  1.00  0.00     0.042 A 
HETATM   16  C15 UNK     1       9.014   7.482   8.635  1.00  0.00     0.057 A 
HETATM   17  C16 UNK     1       8.241   7.580   9.793  1.00  0.00     0.102 A 
HETATM   18  C20 UNK     1       7.400   6.530  10.160  1.00  0.00     0.101 A 
HETATM   19  C22 UNK     1       7.331   5.381   9.372  1.00  0.00     0.040 A 
HETATM   20  C17 UNK     1       8.103   5.284   8.214  1.00  0.00     0.020 A 
BRANCH  17  21
HETATM   21  O4  UNK     1       8.316   8.706  10.555  1.00  0.00    -0.353 OA
HETATM   22  C23 UNK     1       9.314   9.662  10.204  1.00  0.00     0.210 C 
ENDBRANCH  17  21
BRANCH  18  23
HETATM   23  O5  UNK     1       6.640   6.613  11.289  1.00  0.00    -0.353 OA
HETATM   24  C24 UNK     1       6.381   5.395  11.986  1.00  0.00     0.210 C 
ENDBRANCH  18  23
ENDBRANCH  13  15
ENDBRANCH  12  13
ENDBRANCH   9  12
BRANCH  11  25
HETATM   25  C10 UNK     1      16.341  10.552   8.774  1.00  0.00    -0.033 A 
HETATM   26  C12 UNK     1      15.356  11.348   8.214  1.00  0.00     0.014 A 
HETATM   27  C18 UNK     1      15.725  12.407   7.386  1.00  0.00     0.037 A 
HETATM   28  C21 UNK     1      17.074  12.655   7.129  1.00  0.00     0.068 A 
HETATM   29  C19 UNK     1      18.052  11.842   7.700  1.00  0.00     0.037 A 
HETATM   30  C13 UNK     1      17.684  10.783   8.529  1.00  0.00     0.014 A 
BRANCH  28  31
HETATM   31  O6  UNK     1      17.434  13.688   6.319  1.00  0.00    -0.356 OA
HETATM   32  C25 UNK     1      18.764  13.675   5.802  1.00  0.00     0.210 C 
ENDBRANCH  28  31
ENDBRANCH  11  25
TORSDOF 7
ENDMDL
