MODEL 1
REMARK VINA RESULT:      -9.8      0.000      0.000
REMARK  7 active torsions:
REMARK  status: ('A' for Active; 'I' for Inactive)
REMARK    1  A    between atoms: C11_21  and  N1_7 
REMARK    2  A    between atoms: C4_14  and  N1_7 
REMARK    3  A    between atoms: C11_21  and  N2_8 
REMARK    4  A    between atoms: N2_8  and  N4_10 
REMARK    5  A    between atoms: C12_22  and  N3_9 
REMARK    6  A    between atoms: C15_25  and  N3_9 
REMARK    7  A    between atoms: C15_25  and  N4_10 
ROOT
HETATM    1  N2  UNK     1      18.675   1.648  31.424  1.00  0.00    -0.274 N 
HETATM    2  H9  UNK     1      18.844   2.089  32.322  1.00  0.00     0.189 HD
ENDROOT
BRANCH   1   3
HETATM    3  C11 UNK     1      18.633   2.389  30.264  1.00  0.00     0.191 C 
HETATM    4  S1  UNK     1      17.997   1.838  28.800  1.00  0.00    -0.039 SA
BRANCH   3   5
HETATM    5  N1  UNK     1      19.205   3.660  30.296  1.00  0.00    -0.332 N 
HETATM    6  H8  UNK     1      19.810   3.859  29.501  1.00  0.00     0.168 HD
BRANCH   5   7
HETATM    7  C4  UNK     1      19.094   4.720  31.196  1.00  0.00     0.037 A 
HETATM    8  C6  UNK     1      17.852   5.067  31.716  1.00  0.00     0.067 A 
HETATM    9  C2  UNK     1      17.763   6.130  32.616  1.00  0.00     0.092 A 
HETATM   10  C1  UNK     1      18.881   6.864  33.016  1.00  0.00     0.004 A 
HETATM   11  O1  UNK     1      16.478   6.435  33.108  1.00  0.00    -0.275 OA
HETATM   12  C3  UNK     1      18.695   7.967  33.968  1.00  0.00    -0.043 A 
HETATM   13  C5  UNK     1      20.123   6.498  32.482  1.00  0.00     0.017 A 
HETATM   14  C8  UNK     1      17.461   8.234  34.420  1.00  0.00     0.090 A 
HETATM   15  C9  UNK     1      19.878   8.774  34.418  1.00  0.00     0.049 C 
HETATM   16  C10 UNK     1      16.272   7.470  34.007  1.00  0.00     0.288 A 
HETATM   17  O2  UNK     1      15.159   7.742  34.441  1.00  0.00    -0.260 OA
HETATM   18  C7  UNK     1      20.229   5.434  31.578  1.00  0.00     0.030 A 
ENDBRANCH   5   7
ENDBRANCH   3   5
ENDBRANCH   1   3
BRANCH   1  19
HETATM   19  N4  UNK     1      18.781   0.271  31.404  1.00  0.00    -0.274 N 
HETATM   20  H12 UNK     1      18.934  -0.158  30.497  1.00  0.00     0.189 HD
BRANCH  19  21
HETATM   21  C15 UNK     1      18.723  -0.489  32.567  1.00  0.00     0.191 C 
HETATM   22  S2  UNK     1      19.780  -1.784  32.686  1.00  0.00    -0.039 SA
BRANCH  21  23
HETATM   23  N3  UNK     1      17.749  -0.063  33.463  1.00  0.00    -0.330 N 
HETATM   24  H10 UNK     1      16.853   0.146  33.027  1.00  0.00     0.168 HD
BRANCH  23  25
HETATM   25  C12 UNK     1      17.763   0.224  34.850  1.00  0.00     0.073 A 
HETATM   26  C13 UNK     1      18.051   1.509  35.275  1.00  0.00     0.145 A 
HETATM   27  F1  UNK     1      18.315   2.489  34.398  1.00  0.00    -0.204 F 
HETATM   28  C16 UNK     1      18.066   1.788  36.641  1.00  0.00     0.086 A 
HETATM   29  C18 UNK     1      17.793   0.777  37.562  1.00  0.00     0.119 A 
HETATM   30  C17 UNK     1      17.505  -0.513  37.117  1.00  0.00     0.044 A 
HETATM   31  F2  UNK     1      17.806   1.044  38.875  1.00  0.00    -0.206 F 
HETATM   32  C14 UNK     1      17.489  -0.792  35.750  1.00  0.00     0.036 A 
ENDBRANCH  23  25
ENDBRANCH  21  23
ENDBRANCH  19  21
ENDBRANCH   1  19
TORSDOF 7
ENDMDL
MODEL 2
REMARK VINA RESULT:      -9.7      3.823      7.688
REMARK  7 active torsions:
REMARK  status: ('A' for Active; 'I' for Inactive)
REMARK    1  A    between atoms: C11_21  and  N1_7 
REMARK    2  A    between atoms: C4_14  and  N1_7 
REMARK    3  A    between atoms: C11_21  and  N2_8 
REMARK    4  A    between atoms: N2_8  and  N4_10 
REMARK    5  A    between atoms: C12_22  and  N3_9 
REMARK    6  A    between atoms: C15_25  and  N3_9 
REMARK    7  A    between atoms: C15_25  and  N4_10 
ROOT
HETATM    1  N2  UNK     1      20.235   0.814  30.469  1.00  0.00    -0.274 N 
HETATM    2  H9  UNK     1      21.198   1.073  30.281  1.00  0.00     0.189 HD
ENDROOT
BRANCH   1   3
HETATM    3  C11 UNK     1      19.869  -0.504  30.623  1.00  0.00     0.191 C 
HETATM    4  S1  UNK     1      20.528  -1.788  29.745  1.00  0.00    -0.039 SA
BRANCH   3   5
HETATM    5  N1  UNK     1      18.846  -0.783  31.528  1.00  0.00    -0.332 N 
HETATM    6  H8  UNK     1      17.922  -0.825  31.104  1.00  0.00     0.168 HD
BRANCH   5   7
HETATM    7  C4  UNK     1      18.846  -1.036  32.900  1.00  0.00     0.037 A 
HETATM    8  C6  UNK     1      19.674  -2.022  33.427  1.00  0.00     0.067 A 
HETATM    9  C2  UNK     1      19.660  -2.258  34.803  1.00  0.00     0.092 A 
HETATM   10  C1  UNK     1      18.841  -1.539  35.675  1.00  0.00     0.004 A 
HETATM   11  O1  UNK     1      20.519  -3.269  35.279  1.00  0.00    -0.275 OA
HETATM   12  C3  UNK     1      18.890  -1.854  37.109  1.00  0.00    -0.043 A 
HETATM   13  C5  UNK     1      18.015  -0.550  35.124  1.00  0.00     0.017 A 
HETATM   14  C8  UNK     1      19.718  -2.820  37.533  1.00  0.00     0.090 A 
HETATM   15  C9  UNK     1      18.022  -1.098  38.072  1.00  0.00     0.049 C 
HETATM   16  C10 UNK     1      20.588  -3.588  36.626  1.00  0.00     0.288 A 
HETATM   17  O2  UNK     1      21.332  -4.465  37.050  1.00  0.00    -0.260 OA
HETATM   18  C7  UNK     1      18.018  -0.301  33.746  1.00  0.00     0.030 A 
ENDBRANCH   5   7
ENDBRANCH   3   5
ENDBRANCH   1   3
BRANCH   1  19
HETATM   19  N4  UNK     1      19.399   1.849  30.842  1.00  0.00    -0.274 N 
HETATM   20  H12 UNK     1      19.291   2.006  31.839  1.00  0.00     0.189 HD
BRANCH  19  21
HETATM   21  C15 UNK     1      18.771   2.662  29.905  1.00  0.00     0.191 C 
HETATM   22  S2  UNK     1      17.915   1.896  28.684  1.00  0.00    -0.039 SA
BRANCH  21  23
HETATM   23  N3  UNK     1      18.983   4.020  30.113  1.00  0.00    -0.330 N 
HETATM   24  H10 UNK     1      19.187   4.539  29.262  1.00  0.00     0.168 HD
BRANCH  23  25
HETATM   25  C12 UNK     1      19.057   4.824  31.277  1.00  0.00     0.073 A 
HETATM   26  C13 UNK     1      20.114   5.705  31.427  1.00  0.00     0.145 A 
HETATM   27  F1  UNK     1      21.069   5.813  30.490  1.00  0.00    -0.204 F 
HETATM   28  C16 UNK     1      20.186   6.494  32.575  1.00  0.00     0.086 A 
HETATM   29  C18 UNK     1      19.200   6.390  33.555  1.00  0.00     0.119 A 
HETATM   30  C17 UNK     1      18.142   5.497  33.388  1.00  0.00     0.044 A 
HETATM   31  F2  UNK     1      19.267   7.149  34.657  1.00  0.00    -0.206 F 
HETATM   32  C14 UNK     1      18.069   4.708  32.240  1.00  0.00     0.036 A 
ENDBRANCH  23  25
ENDBRANCH  21  23
ENDBRANCH  19  21
ENDBRANCH   1  19
TORSDOF 7
ENDMDL
MODEL 3
REMARK VINA RESULT:      -9.6      7.568     12.173
REMARK  7 active torsions:
REMARK  status: ('A' for Active; 'I' for Inactive)
REMARK    1  A    between atoms: C11_21  and  N1_7 
REMARK    2  A    between atoms: C4_14  and  N1_7 
REMARK    3  A    between atoms: C11_21  and  N2_8 
REMARK    4  A    between atoms: N2_8  and  N4_10 
REMARK    5  A    between atoms: C12_22  and  N3_9 
REMARK    6  A    between atoms: C15_25  and  N3_9 
REMARK    7  A    between atoms: C15_25  and  N4_10 
ROOT
HETATM    1  N2  UNK     1      19.952  -2.865  35.006  1.00  0.00    -0.274 N 
HETATM    2  H9  UNK     1      20.383  -3.114  34.122  1.00  0.00     0.189 HD
ENDROOT
BRANCH   1   3
HETATM    3  C11 UNK     1      19.901  -3.760  36.051  1.00  0.00     0.191 C 
HETATM    4  S1  UNK     1      20.691  -3.552  37.528  1.00  0.00    -0.039 SA
BRANCH   3   5
HETATM    5  N1  UNK     1      19.190  -4.941  35.846  1.00  0.00    -0.332 N 
HETATM    6  H8  UNK     1      18.344  -4.822  35.292  1.00  0.00     0.168 HD
BRANCH   5   7
HETATM    7  C4  UNK     1      19.423  -6.260  36.237  1.00  0.00     0.037 A 
HETATM    8  C6  UNK     1      20.347  -7.039  35.548  1.00  0.00     0.067 A 
HETATM    9  C2  UNK     1      20.567  -8.356  35.956  1.00  0.00     0.092 A 
HETATM   10  C1  UNK     1      19.889  -8.925  37.036  1.00  0.00     0.004 A 
HETATM   11  O1  UNK     1      21.515  -9.095  35.221  1.00  0.00    -0.275 OA
HETATM   12  C3  UNK     1      20.182 -10.318  37.396  1.00  0.00    -0.043 A 
HETATM   13  C5  UNK     1      18.962  -8.124  37.716  1.00  0.00     0.017 A 
HETATM   14  C8  UNK     1      21.089 -10.997  36.678  1.00  0.00     0.090 A 
HETATM   15  C9  UNK     1      19.470 -10.958  38.551  1.00  0.00     0.049 C 
HETATM   16  C10 UNK     1      21.813 -10.411  35.537  1.00  0.00     0.288 A 
HETATM   17  O2  UNK     1      22.636 -11.062  34.904  1.00  0.00    -0.260 OA
HETATM   18  C7  UNK     1      18.731  -6.801  37.319  1.00  0.00     0.030 A 
ENDBRANCH   5   7
ENDBRANCH   3   5
ENDBRANCH   1   3
BRANCH   1  19
HETATM   19  N4  UNK     1      19.693  -1.520  35.188  1.00  0.00    -0.274 N 
HETATM   20  H12 UNK     1      20.275  -1.034  35.862  1.00  0.00     0.189 HD
BRANCH  19  21
HETATM   21  C15 UNK     1      18.716  -0.854  34.456  1.00  0.00     0.191 C 
HETATM   22  S2  UNK     1      17.894   0.385  35.231  1.00  0.00    -0.039 SA
BRANCH  21  23
HETATM   23  N3  UNK     1      18.546  -1.352  33.169  1.00  0.00    -0.330 N 
HETATM   24  H10 UNK     1      17.796  -2.035  33.089  1.00  0.00     0.168 HD
BRANCH  23  25
HETATM   25  C12 UNK     1      19.255  -1.173  31.956  1.00  0.00     0.073 A 
HETATM   26  C13 UNK     1      19.355   0.093  31.409  1.00  0.00     0.145 A 
HETATM   27  F1  UNK     1      18.795   1.157  32.005  1.00  0.00    -0.204 F 
HETATM   28  C16 UNK     1      20.052   0.266  30.213  1.00  0.00     0.086 A 
HETATM   29  C18 UNK     1      20.639  -0.832  29.583  1.00  0.00     0.119 A 
HETATM   30  C17 UNK     1      20.527  -2.101  30.149  1.00  0.00     0.044 A 
HETATM   31  F2  UNK     1      21.310  -0.666  28.436  1.00  0.00    -0.206 F 
HETATM   32  C14 UNK     1      19.831  -2.274  31.345  1.00  0.00     0.036 A 
ENDBRANCH  23  25
ENDBRANCH  21  23
ENDBRANCH  19  21
ENDBRANCH   1  19
TORSDOF 7
ENDMDL
MODEL 4
REMARK VINA RESULT:      -9.6      2.429      3.554
REMARK  7 active torsions:
REMARK  status: ('A' for Active; 'I' for Inactive)
REMARK    1  A    between atoms: C11_21  and  N1_7 
REMARK    2  A    between atoms: C4_14  and  N1_7 
REMARK    3  A    between atoms: C11_21  and  N2_8 
REMARK    4  A    between atoms: N2_8  and  N4_10 
REMARK    5  A    between atoms: C12_22  and  N3_9 
REMARK    6  A    between atoms: C15_25  and  N3_9 
REMARK    7  A    between atoms: C15_25  and  N4_10 
ROOT
HETATM    1  N2  UNK     1      20.466  -1.633  32.822  1.00  0.00    -0.274 N 
HETATM    2  H9  UNK     1      21.455  -1.448  32.948  1.00  0.00     0.189 HD
ENDROOT
BRANCH   1   3
HETATM    3  C11 UNK     1      19.835  -1.361  31.629  1.00  0.00     0.191 C 
HETATM    4  S1  UNK     1      20.281  -2.020  30.140  1.00  0.00    -0.039 SA
BRANCH   3   5
HETATM    5  N1  UNK     1      18.793  -0.436  31.653  1.00  0.00    -0.332 N 
HETATM    6  H8  UNK     1      17.885  -0.844  31.865  1.00  0.00     0.168 HD
BRANCH   5   7
HETATM    7  C4  UNK     1      18.756   0.946  31.464  1.00  0.00     0.037 A 
HETATM    8  C6  UNK     1      18.379   1.783  32.509  1.00  0.00     0.067 A 
HETATM    9  C2  UNK     1      18.350   3.163  32.299  1.00  0.00     0.092 A 
HETATM   10  C1  UNK     1      18.688   3.738  31.073  1.00  0.00     0.004 A 
HETATM   11  O1  UNK     1      17.960   3.960  33.394  1.00  0.00    -0.275 OA
HETATM   12  C3  UNK     1      18.630   5.200  30.941  1.00  0.00    -0.043 A 
HETATM   13  C5  UNK     1      19.066   2.878  30.034  1.00  0.00     0.017 A 
HETATM   14  C8  UNK     1      18.256   5.933  32.000  1.00  0.00     0.090 A 
HETATM   15  C9  UNK     1      18.987   5.849  29.636  1.00  0.00     0.049 C 
HETATM   16  C10 UNK     1      17.896   5.341  33.300  1.00  0.00     0.288 A 
HETATM   17  O2  UNK     1      17.558   6.043  34.246  1.00  0.00    -0.260 OA
HETATM   18  C7  UNK     1      19.099   1.492  30.229  1.00  0.00     0.030 A 
ENDBRANCH   5   7
ENDBRANCH   3   5
ENDBRANCH   1   3
BRANCH   1  19
HETATM   19  N4  UNK     1      19.877  -2.422  33.792  1.00  0.00    -0.274 N 
HETATM   20  H12 UNK     1      19.572  -3.345  33.501  1.00  0.00     0.189 HD
BRANCH  19  21
HETATM   21  C15 UNK     1      19.747  -1.995  35.109  1.00  0.00     0.191 C 
HETATM   22  S2  UNK     1      20.177  -3.083  36.310  1.00  0.00    -0.039 SA
BRANCH  21  23
HETATM   23  N3  UNK     1      19.238  -0.707  35.230  1.00  0.00    -0.330 N 
HETATM   24  H10 UNK     1      19.916   0.024  35.026  1.00  0.00     0.168 HD
BRANCH  23  25
HETATM   25  C12 UNK     1      17.991  -0.192  35.662  1.00  0.00     0.073 A 
HETATM   26  C13 UNK     1      16.849  -0.483  34.938  1.00  0.00     0.145 A 
HETATM   27  F1  UNK     1      16.898  -1.247  33.836  1.00  0.00    -0.204 F 
HETATM   28  C16 UNK     1      15.622   0.027  35.364  1.00  0.00     0.086 A 
HETATM   29  C18 UNK     1      15.559   0.822  36.509  1.00  0.00     0.119 A 
HETATM   30  C17 UNK     1      16.720   1.106  37.226  1.00  0.00     0.044 A 
HETATM   31  F2  UNK     1      14.381   1.311  36.920  1.00  0.00    -0.206 F 
HETATM   32  C14 UNK     1      17.946   0.596  36.800  1.00  0.00     0.036 A 
ENDBRANCH  23  25
ENDBRANCH  21  23
ENDBRANCH  19  21
ENDBRANCH   1  19
TORSDOF 7
ENDMDL
MODEL 5
REMARK VINA RESULT:      -9.5      7.457     11.948
REMARK  7 active torsions:
REMARK  status: ('A' for Active; 'I' for Inactive)
REMARK    1  A    between atoms: C11_21  and  N1_7 
REMARK    2  A    between atoms: C4_14  and  N1_7 
REMARK    3  A    between atoms: C11_21  and  N2_8 
REMARK    4  A    between atoms: N2_8  and  N4_10 
REMARK    5  A    between atoms: C12_22  and  N3_9 
REMARK    6  A    between atoms: C15_25  and  N3_9 
REMARK    7  A    between atoms: C15_25  and  N4_10 
ROOT
HETATM    1  N2  UNK     1      18.363  -2.497  35.910  1.00  0.00    -0.274 N 
HETATM    2  H9  UNK     1      17.436  -2.640  35.526  1.00  0.00     0.189 HD
ENDROOT
BRANCH   1   3
HETATM    3  C11 UNK     1      19.023  -3.508  36.572  1.00  0.00     0.191 C 
HETATM    4  S1  UNK     1      20.474  -3.313  37.413  1.00  0.00    -0.039 SA
BRANCH   3   5
HETATM    5  N1  UNK     1      18.478  -4.788  36.490  1.00  0.00    -0.332 N 
HETATM    6  H8  UNK     1      17.460  -4.803  36.499  1.00  0.00     0.168 HD
BRANCH   5   7
HETATM    7  C4  UNK     1      19.056  -6.053  36.377  1.00  0.00     0.037 A 
HETATM    8  C6  UNK     1      18.740  -7.049  37.295  1.00  0.00     0.067 A 
HETATM    9  C2  UNK     1      19.329  -8.308  37.163  1.00  0.00     0.092 A 
HETATM   10  C1  UNK     1      20.229  -8.607  36.139  1.00  0.00     0.004 A 
HETATM   11  O1  UNK     1      18.971  -9.276  38.123  1.00  0.00    -0.275 OA
HETATM   12  C3  UNK     1      20.800  -9.958  36.076  1.00  0.00    -0.043 A 
HETATM   13  C5  UNK     1      20.533  -7.590  35.224  1.00  0.00     0.017 A 
HETATM   14  C8  UNK     1      20.441 -10.859  37.002  1.00  0.00     0.090 A 
HETATM   15  C9  UNK     1      21.770 -10.311  34.987  1.00  0.00     0.049 C 
HETATM   16  C10 UNK     1      19.494 -10.559  38.090  1.00  0.00     0.288 A 
HETATM   17  O2  UNK     1      19.188 -11.408  38.919  1.00  0.00    -0.260 OA
HETATM   18  C7  UNK     1      19.951  -6.322  35.343  1.00  0.00     0.030 A 
ENDBRANCH   5   7
ENDBRANCH   3   5
ENDBRANCH   1   3
BRANCH   1  19
HETATM   19  N4  UNK     1      19.018  -1.356  35.487  1.00  0.00    -0.274 N 
HETATM   20  H12 UNK     1      19.947  -1.202  35.864  1.00  0.00     0.189 HD
BRANCH  19  21
HETATM   21  C15 UNK     1      18.454  -0.486  34.560  1.00  0.00     0.191 C 
HETATM   22  S2  UNK     1      18.017   1.036  35.111  1.00  0.00    -0.039 SA
BRANCH  21  23
HETATM   23  N3  UNK     1      18.307  -1.039  33.293  1.00  0.00    -0.330 N 
HETATM   24  H10 UNK     1      17.511  -1.667  33.209  1.00  0.00     0.168 HD
BRANCH  23  25
HETATM   25  C12 UNK     1      19.084  -0.979  32.111  1.00  0.00     0.073 A 
HETATM   26  C13 UNK     1      19.252   0.235  31.469  1.00  0.00     0.145 A 
HETATM   27  F1  UNK     1      18.693   1.358  31.945  1.00  0.00    -0.204 F 
HETATM   28  C16 UNK     1      20.016   0.291  30.303  1.00  0.00     0.086 A 
HETATM   29  C18 UNK     1      20.602  -0.870  29.798  1.00  0.00     0.119 A 
HETATM   30  C17 UNK     1      20.423  -2.085  30.458  1.00  0.00     0.044 A 
HETATM   31  F2  UNK     1      21.338  -0.817  28.680  1.00  0.00    -0.206 F 
HETATM   32  C14 UNK     1      19.659  -2.141  31.623  1.00  0.00     0.036 A 
ENDBRANCH  23  25
ENDBRANCH  21  23
ENDBRANCH  19  21
ENDBRANCH   1  19
TORSDOF 7
ENDMDL
MODEL 6
REMARK VINA RESULT:      -9.2      6.645     11.160
REMARK  7 active torsions:
REMARK  status: ('A' for Active; 'I' for Inactive)
REMARK    1  A    between atoms: C11_21  and  N1_7 
REMARK    2  A    between atoms: C4_14  and  N1_7 
REMARK    3  A    between atoms: C11_21  and  N2_8 
REMARK    4  A    between atoms: N2_8  and  N4_10 
REMARK    5  A    between atoms: C12_22  and  N3_9 
REMARK    6  A    between atoms: C15_25  and  N3_9 
REMARK    7  A    between atoms: C15_25  and  N4_10 
ROOT
HETATM    1  N2  UNK     1      19.869  -1.350  35.571  1.00  0.00    -0.274 N 
HETATM    2  H9  UNK     1      20.883  -1.335  35.596  1.00  0.00     0.189 HD
ENDROOT
BRANCH   1   3
HETATM    3  C11 UNK     1      19.150  -2.201  36.379  1.00  0.00     0.191 C 
HETATM    4  S1  UNK     1      18.373  -1.738  37.805  1.00  0.00    -0.039 SA
BRANCH   3   5
HETATM    5  N1  UNK     1      19.111  -3.546  36.016  1.00  0.00    -0.332 N 
HETATM    6  H8  UNK     1      18.749  -3.709  35.079  1.00  0.00     0.168 HD
BRANCH   5   7
HETATM    7  C4  UNK     1      19.492  -4.712  36.681  1.00  0.00     0.037 A 
HETATM    8  C6  UNK     1      20.805  -4.873  37.111  1.00  0.00     0.067 A 
HETATM    9  C2  UNK     1      21.164  -6.047  37.776  1.00  0.00     0.092 A 
HETATM   10  C1  UNK     1      20.251  -7.072  38.027  1.00  0.00     0.004 A 
HETATM   11  O1  UNK     1      22.508  -6.153  38.187  1.00  0.00    -0.275 OA
HETATM   12  C3  UNK     1      20.716  -8.273  38.733  1.00  0.00    -0.043 A 
HETATM   13  C5  UNK     1      18.933  -6.890  37.586  1.00  0.00     0.017 A 
HETATM   14  C8  UNK     1      22.000  -8.346  39.113  1.00  0.00     0.090 A 
HETATM   15  C9  UNK     1      19.758  -9.392  39.018  1.00  0.00     0.049 C 
HETATM   16  C10 UNK     1      22.976  -7.273  38.855  1.00  0.00     0.288 A 
HETATM   17  O2  UNK     1      24.143  -7.375  39.218  1.00  0.00    -0.260 OA
HETATM   18  C7  UNK     1      18.557  -5.719  36.918  1.00  0.00     0.030 A 
ENDBRANCH   5   7
ENDBRANCH   3   5
ENDBRANCH   1   3
BRANCH   1  19
HETATM   19  N4  UNK     1      19.271  -0.292  34.914  1.00  0.00    -0.274 N 
HETATM   20  H12 UNK     1      19.771   0.591  34.928  1.00  0.00     0.189 HD
BRANCH  19  21
HETATM   21  C15 UNK     1      18.068  -0.436  34.232  1.00  0.00     0.191 C 
HETATM   22  S2  UNK     1      16.704   0.235  34.941  1.00  0.00    -0.039 SA
BRANCH  21  23
HETATM   23  N3  UNK     1      18.179  -1.160  33.051  1.00  0.00    -0.330 N 
HETATM   24  H10 UNK     1      17.571  -1.975  33.010  1.00  0.00     0.168 HD
BRANCH  23  25
HETATM   25  C12 UNK     1      19.026  -1.051  31.920  1.00  0.00     0.073 A 
HETATM   26  C13 UNK     1      19.258   0.194  31.364  1.00  0.00     0.145 A 
HETATM   27  F1  UNK     1      18.699   1.301  31.875  1.00  0.00    -0.204 F 
HETATM   28  C16 UNK     1      20.091   0.299  30.249  1.00  0.00     0.086 A 
HETATM   29  C18 UNK     1      20.678  -0.846  29.708  1.00  0.00     0.119 A 
HETATM   30  C17 UNK     1      20.432  -2.093  30.282  1.00  0.00     0.044 A 
HETATM   31  F2  UNK     1      21.479  -0.746  28.640  1.00  0.00    -0.206 F 
HETATM   32  C14 UNK     1      19.600  -2.197  31.397  1.00  0.00     0.036 A 
ENDBRANCH  23  25
ENDBRANCH  21  23
ENDBRANCH  19  21
ENDBRANCH   1  19
TORSDOF 7
ENDMDL
MODEL 7
REMARK VINA RESULT:      -9.0      6.840     10.883
REMARK  7 active torsions:
REMARK  status: ('A' for Active; 'I' for Inactive)
REMARK    1  A    between atoms: C11_21  and  N1_7 
REMARK    2  A    between atoms: C4_14  and  N1_7 
REMARK    3  A    between atoms: C11_21  and  N2_8 
REMARK    4  A    between atoms: N2_8  and  N4_10 
REMARK    5  A    between atoms: C12_22  and  N3_9 
REMARK    6  A    between atoms: C15_25  and  N3_9 
REMARK    7  A    between atoms: C15_25  and  N4_10 
ROOT
HETATM    1  N2  UNK     1      20.179  -1.969  34.772  1.00  0.00    -0.274 N 
HETATM    2  H9  UNK     1      20.643  -1.086  34.960  1.00  0.00     0.189 HD
ENDROOT
BRANCH   1   3
HETATM    3  C11 UNK     1      19.673  -2.739  35.795  1.00  0.00     0.191 C 
HETATM    4  S1  UNK     1      19.080  -2.125  37.252  1.00  0.00    -0.039 SA
BRANCH   3   5
HETATM    5  N1  UNK     1      19.707  -4.123  35.630  1.00  0.00    -0.332 N 
HETATM    6  H8  UNK     1      19.384  -4.436  34.716  1.00  0.00     0.168 HD
BRANCH   5   7
HETATM    7  C4  UNK     1      20.118  -5.161  36.467  1.00  0.00     0.037 A 
HETATM    8  C6  UNK     1      19.551  -6.425  36.339  1.00  0.00     0.067 A 
HETATM    9  C2  UNK     1      19.977  -7.451  37.186  1.00  0.00     0.092 A 
HETATM   10  C1  UNK     1      20.956  -7.254  38.161  1.00  0.00     0.004 A 
HETATM   11  O1  UNK     1      19.367  -8.709  37.010  1.00  0.00    -0.275 OA
HETATM   12  C3  UNK     1      21.344  -8.390  39.008  1.00  0.00    -0.043 A 
HETATM   13  C5  UNK     1      21.514  -5.974  38.273  1.00  0.00     0.017 A 
HETATM   14  C8  UNK     1      20.747  -9.576  38.818  1.00  0.00     0.090 A 
HETATM   15  C9  UNK     1      22.393  -8.211  40.066  1.00  0.00     0.049 C 
HETATM   16  C10 UNK     1      19.712  -9.799  37.793  1.00  0.00     0.288 A 
HETATM   17  O2  UNK     1      19.188 -10.897  37.648  1.00  0.00    -0.260 OA
HETATM   18  C7  UNK     1      21.098  -4.935  37.431  1.00  0.00     0.030 A 
ENDBRANCH   5   7
ENDBRANCH   3   5
ENDBRANCH   1   3
BRANCH   1  19
HETATM   19  N4  UNK     1      19.838  -2.196  33.453  1.00  0.00    -0.274 N 
HETATM   20  H12 UNK     1      20.124  -3.087  33.059  1.00  0.00     0.189 HD
BRANCH  19  21
HETATM   21  C15 UNK     1      19.105  -1.275  32.713  1.00  0.00     0.191 C 
HETATM   22  S2  UNK     1      19.814  -0.683  31.314  1.00  0.00    -0.039 SA
BRANCH  21  23
HETATM   23  N3  UNK     1      17.877  -0.955  33.280  1.00  0.00    -0.330 N 
HETATM   24  H10 UNK     1      17.078  -1.284  32.742  1.00  0.00     0.168 HD
BRANCH  23  25
HETATM   25  C12 UNK     1      17.498  -0.190  34.411  1.00  0.00     0.073 A 
HETATM   26  C13 UNK     1      16.376  -0.557  35.133  1.00  0.00     0.145 A 
HETATM   27  F1  UNK     1      15.641  -1.624  34.786  1.00  0.00    -0.204 F 
HETATM   28  C16 UNK     1      16.004   0.200  36.245  1.00  0.00     0.086 A 
HETATM   29  C18 UNK     1      16.761   1.312  36.616  1.00  0.00     0.119 A 
HETATM   30  C17 UNK     1      17.888   1.666  35.876  1.00  0.00     0.044 A 
HETATM   31  F2  UNK     1      16.406   2.037  37.684  1.00  0.00    -0.206 F 
HETATM   32  C14 UNK     1      18.260   0.910  34.765  1.00  0.00     0.036 A 
ENDBRANCH  23  25
ENDBRANCH  21  23
ENDBRANCH  19  21
ENDBRANCH   1  19
TORSDOF 7
ENDMDL
MODEL 8
REMARK VINA RESULT:      -8.9      5.909      8.178
REMARK  7 active torsions:
REMARK  status: ('A' for Active; 'I' for Inactive)
REMARK    1  A    between atoms: C11_21  and  N1_7 
REMARK    2  A    between atoms: C4_14  and  N1_7 
REMARK    3  A    between atoms: C11_21  and  N2_8 
REMARK    4  A    between atoms: N2_8  and  N4_10 
REMARK    5  A    between atoms: C12_22  and  N3_9 
REMARK    6  A    between atoms: C15_25  and  N3_9 
REMARK    7  A    between atoms: C15_25  and  N4_10 
ROOT
HETATM    1  N2  UNK     1      18.647  -3.414  36.958  1.00  0.00    -0.274 N 
HETATM    2  H9  UNK     1      18.690  -3.327  37.968  1.00  0.00     0.189 HD
ENDROOT
BRANCH   1   3
HETATM    3  C11 UNK     1      19.236  -2.479  36.137  1.00  0.00     0.191 C 
HETATM    4  S1  UNK     1      20.902  -2.227  36.015  1.00  0.00    -0.039 SA
BRANCH   3   5
HETATM    5  N1  UNK     1      18.390  -1.652  35.401  1.00  0.00    -0.332 N 
HETATM    6  H8  UNK     1      17.472  -1.523  35.821  1.00  0.00     0.168 HD
BRANCH   5   7
HETATM    7  C4  UNK     1      18.565  -0.948  34.208  1.00  0.00     0.037 A 
HETATM    8  C6  UNK     1      18.172   0.383  34.119  1.00  0.00     0.067 A 
HETATM    9  C2  UNK     1      18.357   1.068  32.917  1.00  0.00     0.092 A 
HETATM   10  C1  UNK     1      18.925   0.465  31.794  1.00  0.00     0.004 A 
HETATM   11  O1  UNK     1      17.940   2.414  32.888  1.00  0.00    -0.275 OA
HETATM   12  C3  UNK     1      19.082   1.262  30.570  1.00  0.00    -0.043 A 
HETATM   13  C5  UNK     1      19.314  -0.876  31.905  1.00  0.00     0.017 A 
HETATM   14  C8  UNK     1      18.676   2.540  30.571  1.00  0.00     0.090 A 
HETATM   15  C9  UNK     1      19.689   0.642  29.346  1.00  0.00     0.049 C 
HETATM   16  C10 UNK     1      18.075   3.191  31.748  1.00  0.00     0.288 A 
HETATM   17  O2  UNK     1      17.716   4.362  31.712  1.00  0.00    -0.260 OA
HETATM   18  C7  UNK     1      19.135  -1.578  33.103  1.00  0.00     0.030 A 
ENDBRANCH   5   7
ENDBRANCH   3   5
ENDBRANCH   1   3
BRANCH   1  19
HETATM   19  N4  UNK     1      18.231  -4.642  36.481  1.00  0.00    -0.274 N 
HETATM   20  H12 UNK     1      17.300  -4.679  36.078  1.00  0.00     0.189 HD
BRANCH  19  21
HETATM   21  C15 UNK     1      19.056  -5.761  36.509  1.00  0.00     0.191 C 
HETATM   22  S2  UNK     1      20.058  -6.003  35.187  1.00  0.00    -0.039 SA
BRANCH  21  23
HETATM   23  N3  UNK     1      18.896  -6.543  37.646  1.00  0.00    -0.330 N 
HETATM   24  H10 UNK     1      18.641  -6.013  38.477  1.00  0.00     0.168 HD
BRANCH  23  25
HETATM   25  C12 UNK     1      19.096  -7.920  37.915  1.00  0.00     0.073 A 
HETATM   26  C13 UNK     1      19.697  -8.299  39.102  1.00  0.00     0.145 A 
HETATM   27  F1  UNK     1      20.092  -7.390  40.005  1.00  0.00    -0.204 F 
HETATM   28  C16 UNK     1      19.894  -9.656  39.363  1.00  0.00     0.086 A 
HETATM   29  C18 UNK     1      19.488 -10.611  38.432  1.00  0.00     0.119 A 
HETATM   30  C17 UNK     1      18.884 -10.210  37.240  1.00  0.00     0.044 A 
HETATM   31  F2  UNK     1      19.675 -11.913  38.682  1.00  0.00    -0.206 F 
HETATM   32  C14 UNK     1      18.686  -8.855  36.979  1.00  0.00     0.036 A 
ENDBRANCH  23  25
ENDBRANCH  21  23
ENDBRANCH  19  21
ENDBRANCH   1  19
TORSDOF 7
ENDMDL
MODEL 9
REMARK VINA RESULT:      -8.9      6.896     11.282
REMARK  7 active torsions:
REMARK  status: ('A' for Active; 'I' for Inactive)
REMARK    1  A    between atoms: C11_21  and  N1_7 
REMARK    2  A    between atoms: C4_14  and  N1_7 
REMARK    3  A    between atoms: C11_21  and  N2_8 
REMARK    4  A    between atoms: N2_8  and  N4_10 
REMARK    5  A    between atoms: C12_22  and  N3_9 
REMARK    6  A    between atoms: C15_25  and  N3_9 
REMARK    7  A    between atoms: C15_25  and  N4_10 
ROOT
HETATM    1  N2  UNK     1      17.948  -1.982  35.634  1.00  0.00    -0.274 N 
HETATM    2  H9  UNK     1      17.234  -2.430  35.069  1.00  0.00     0.189 HD
ENDROOT
BRANCH   1   3
HETATM    3  C11 UNK     1      19.059  -2.675  36.058  1.00  0.00     0.191 C 
HETATM    4  S1  UNK     1      20.640  -2.087  35.983  1.00  0.00    -0.039 SA
BRANCH   3   5
HETATM    5  N1  UNK     1      18.862  -3.972  36.530  1.00  0.00    -0.332 N 
HETATM    6  H8  UNK     1      17.891  -4.185  36.753  1.00  0.00     0.168 HD
BRANCH   5   7
HETATM    7  C4  UNK     1      19.734  -5.041  36.738  1.00  0.00     0.037 A 
HETATM    8  C6  UNK     1      19.823  -6.061  35.796  1.00  0.00     0.067 A 
HETATM    9  C2  UNK     1      20.703  -7.121  36.022  1.00  0.00     0.092 A 
HETATM   10  C1  UNK     1      21.500  -7.198  37.165  1.00  0.00     0.004 A 
HETATM   11  O1  UNK     1      20.751  -8.124  35.033  1.00  0.00    -0.275 OA
HETATM   12  C3  UNK     1      22.398  -8.350  37.322  1.00  0.00    -0.043 A 
HETATM   13  C5  UNK     1      21.395  -6.160  38.101  1.00  0.00     0.017 A 
HETATM   14  C8  UNK     1      22.423  -9.288  36.364  1.00  0.00     0.090 A 
HETATM   15  C9  UNK     1      23.268  -8.461  38.539  1.00  0.00     0.049 C 
HETATM   16  C10 UNK     1      21.587  -9.222  35.153  1.00  0.00     0.288 A 
HETATM   17  O2  UNK     1      21.636 -10.100  34.299  1.00  0.00    -0.260 OA
HETATM   18  C7  UNK     1      20.518  -5.090  37.889  1.00  0.00     0.030 A 
ENDBRANCH   5   7
ENDBRANCH   3   5
ENDBRANCH   1   3
BRANCH   1  19
HETATM   19  N4  UNK     1      17.883  -0.603  35.699  1.00  0.00    -0.274 N 
HETATM   20  H12 UNK     1      17.659  -0.203  36.604  1.00  0.00     0.189 HD
BRANCH  19  21
HETATM   21  C15 UNK     1      18.150   0.199  34.595  1.00  0.00     0.191 C 
HETATM   22  S2  UNK     1      18.463   1.820  34.888  1.00  0.00    -0.039 SA
BRANCH  21  23
HETATM   23  N3  UNK     1      18.085  -0.480  33.383  1.00  0.00    -0.330 N 
HETATM   24  H10 UNK     1      17.316  -1.145  33.326  1.00  0.00     0.168 HD
BRANCH  23  25
HETATM   25  C12 UNK     1      18.916  -0.504  32.237  1.00  0.00     0.073 A 
HETATM   26  C13 UNK     1      19.770  -1.574  32.039  1.00  0.00     0.145 A 
HETATM   27  F1  UNK     1      19.826  -2.591  32.912  1.00  0.00    -0.204 F 
HETATM   28  C16 UNK     1      20.589  -1.594  30.910  1.00  0.00     0.086 A 
HETATM   29  C18 UNK     1      20.541  -0.541  29.996  1.00  0.00     0.119 A 
HETATM   30  C17 UNK     1      19.673   0.530  30.210  1.00  0.00     0.044 A 
HETATM   31  F2  UNK     1      21.325  -0.560  28.910  1.00  0.00    -0.206 F 
HETATM   32  C14 UNK     1      18.854   0.549  31.339  1.00  0.00     0.036 A 
ENDBRANCH  23  25
ENDBRANCH  21  23
ENDBRANCH  19  21
ENDBRANCH   1  19
TORSDOF 7
ENDMDL
MODEL 10
REMARK VINA RESULT:      -8.8      6.010      8.126
REMARK  7 active torsions:
REMARK  status: ('A' for Active; 'I' for Inactive)
REMARK    1  A    between atoms: C11_21  and  N1_7 
REMARK    2  A    between atoms: C4_14  and  N1_7 
REMARK    3  A    between atoms: C11_21  and  N2_8 
REMARK    4  A    between atoms: N2_8  and  N4_10 
REMARK    5  A    between atoms: C12_22  and  N3_9 
REMARK    6  A    between atoms: C15_25  and  N3_9 
REMARK    7  A    between atoms: C15_25  and  N4_10 
ROOT
HETATM    1  N2  UNK     1      18.303  -3.941  36.569  1.00  0.00    -0.274 N 
HETATM    2  H9  UNK     1      17.587  -4.018  37.284  1.00  0.00     0.189 HD
ENDROOT
BRANCH   1   3
HETATM    3  C11 UNK     1      18.915  -2.738  36.301  1.00  0.00     0.191 C 
HETATM    4  S1  UNK     1      20.586  -2.494  36.297  1.00  0.00    -0.039 SA
BRANCH   3   5
HETATM    5  N1  UNK     1      18.089  -1.638  36.071  1.00  0.00    -0.332 N 
HETATM    6  H8  UNK     1      17.288  -1.587  36.698  1.00  0.00     0.168 HD
BRANCH   5   7
HETATM    7  C4  UNK     1      18.159  -0.582  35.162  1.00  0.00     0.037 A 
HETATM    8  C6  UNK     1      18.495  -0.826  33.834  1.00  0.00     0.067 A 
HETATM    9  C2  UNK     1      18.557   0.245  32.941  1.00  0.00     0.092 A 
HETATM   10  C1  UNK     1      18.295   1.559  33.331  1.00  0.00     0.004 A 
HETATM   11  O1  UNK     1      18.902  -0.064  31.609  1.00  0.00    -0.275 OA
HETATM   12  C3  UNK     1      18.384   2.624  32.324  1.00  0.00    -0.043 A 
HETATM   13  C5  UNK     1      17.959   1.783  34.673  1.00  0.00     0.017 A 
HETATM   14  C8  UNK     1      18.714   2.301  31.065  1.00  0.00     0.090 A 
HETATM   15  C9  UNK     1      18.108   4.047  32.712  1.00  0.00     0.049 C 
HETATM   16  C10 UNK     1      18.994   0.920  30.637  1.00  0.00     0.288 A 
HETATM   17  O2  UNK     1      19.293   0.662  29.477  1.00  0.00    -0.260 OA
HETATM   18  C7  UNK     1      17.892   0.720  35.581  1.00  0.00     0.030 A 
ENDBRANCH   5   7
ENDBRANCH   3   5
ENDBRANCH   1   3
BRANCH   1  19
HETATM   19  N4  UNK     1      18.815  -5.137  36.104  1.00  0.00    -0.274 N 
HETATM   20  H12 UNK     1      19.562  -5.074  35.420  1.00  0.00     0.189 HD
BRANCH  19  21
HETATM   21  C15 UNK     1      18.363  -6.365  36.577  1.00  0.00     0.191 C 
HETATM   22  S2  UNK     1      17.518  -7.332  35.500  1.00  0.00    -0.039 SA
BRANCH  21  23
HETATM   23  N3  UNK     1      18.664  -6.592  37.914  1.00  0.00    -0.330 N 
HETATM   24  H10 UNK     1      17.996  -6.178  38.561  1.00  0.00     0.168 HD
BRANCH  23  25
HETATM   25  C12 UNK     1      19.754  -7.210  38.574  1.00  0.00     0.073 A 
HETATM   26  C13 UNK     1      19.703  -8.565  38.848  1.00  0.00     0.145 A 
HETATM   27  F1  UNK     1      18.641  -9.306  38.499  1.00  0.00    -0.204 F 
HETATM   28  C16 UNK     1      20.778  -9.171  39.499  1.00  0.00     0.086 A 
HETATM   29  C18 UNK     1      21.888  -8.410  39.867  1.00  0.00     0.119 A 
HETATM   30  C17 UNK     1      21.922  -7.045  39.584  1.00  0.00     0.044 A 
HETATM   31  F2  UNK     1      22.921  -8.990  40.491  1.00  0.00    -0.206 F 
HETATM   32  C14 UNK     1      20.848  -6.439  38.932  1.00  0.00     0.036 A 
ENDBRANCH  23  25
ENDBRANCH  21  23
ENDBRANCH  19  21
ENDBRANCH   1  19
TORSDOF 7
ENDMDL
