MODEL 1
REMARK VINA RESULT:      -7.6      0.000      0.000
REMARK  5 active torsions:
REMARK  status: ('A' for Active; 'I' for Inactive)
REMARK    1  A    between atoms: C11_14  and  O2_2 
REMARK    2  A    between atoms: C18_21  and  O2_2 
REMARK    3  A    between atoms: C1_4  and  C4_7 
REMARK    4  A    between atoms: C4_7  and  C6_9 
REMARK    5  A    between atoms: C18_21  and  C19_22 
ROOT
HETATM    1  O1  UNK     1      15.962   6.499   9.790  1.00  0.00    -0.274 OA
HETATM    2  O3  UNK     1      14.830   4.532   9.744  1.00  0.00    -0.259 OA
HETATM    3  C1  UNK     1      13.506   6.512   9.745  1.00  0.00     0.029 A 
HETATM    4  C2  UNK     1      13.481   7.861   9.798  1.00  0.00    -0.036 A 
HETATM    5  C3  UNK     1      14.754   8.610   9.811  1.00  0.00     0.005 A 
HETATM    6  C5  UNK     1      15.952   7.902   9.808  1.00  0.00     0.092 A 
HETATM    7  C7  UNK     1      14.794   5.758   9.756  1.00  0.00     0.295 A 
HETATM    8  C8  UNK     1      12.211   8.672   9.859  1.00  0.00     0.050 C 
HETATM    9  C9  UNK     1      14.839  10.011   9.817  1.00  0.00     0.017 A 
HETATM   10  C10 UNK     1      17.199   8.532   9.820  1.00  0.00     0.075 A 
HETATM   11  C11 UNK     1      17.260   9.921   9.833  1.00  0.00     0.071 A 
HETATM   12  C12 UNK     1      16.080  10.660   9.828  1.00  0.00     0.038 A 
ENDROOT
BRANCH   3  13
HETATM   13  C4  UNK     1      12.286   5.630   9.662  1.00  0.00     0.084 C 
BRANCH  13  14
HETATM   14  C6  UNK     1      11.515   5.850   8.395  1.00  0.00    -0.054 A 
HETATM   15  C13 UNK     1      10.133   5.991   8.444  1.00  0.00     0.007 A 
HETATM   16  C15 UNK     1       9.416   6.197   7.265  1.00  0.00     0.001 A 
HETATM   17  C17 UNK     1      10.086   6.258   6.043  1.00  0.00     0.000 A 
HETATM   18  C16 UNK     1      11.473   6.116   6.001  1.00  0.00     0.001 A 
HETATM   19  C14 UNK     1      12.190   5.911   7.180  1.00  0.00     0.007 A 
ENDBRANCH  13  14
ENDBRANCH   3  13
BRANCH  11  20
HETATM   20  O2  UNK     1      18.463  10.554   9.844  1.00  0.00    -0.347 OA
BRANCH  20  21
HETATM   21  C18 UNK     1      18.570  11.763   9.093  1.00  0.00     0.202 C 
BRANCH  21  22
HETATM   22  C19 UNK     1      19.001  11.429   7.704  1.00  0.00    -0.011 C 
HETATM   23  C20 UNK     1      18.642  12.128   6.621  1.00  0.00     0.009 C 
ENDBRANCH  21  22
ENDBRANCH  20  21
ENDBRANCH  11  20
TORSDOF 5
ENDMDL
MODEL 2
REMARK VINA RESULT:      -7.3     34.373     36.356
REMARK  5 active torsions:
REMARK  status: ('A' for Active; 'I' for Inactive)
REMARK    1  A    between atoms: C11_14  and  O2_2 
REMARK    2  A    between atoms: C18_21  and  O2_2 
REMARK    3  A    between atoms: C1_4  and  C4_7 
REMARK    4  A    between atoms: C4_7  and  C6_9 
REMARK    5  A    between atoms: C18_21  and  C19_22 
ROOT
HETATM    1  O1  UNK     1      28.218  -5.125  39.085  1.00  0.00    -0.274 OA
HETATM    2  O3  UNK     1      29.879  -3.624  39.458  1.00  0.00    -0.259 OA
HETATM    3  C1  UNK     1      30.554  -5.776  38.692  1.00  0.00     0.029 A 
HETATM    4  C2  UNK     1      30.180  -7.026  38.343  1.00  0.00    -0.036 A 
HETATM    5  C3  UNK     1      28.745  -7.372  38.316  1.00  0.00     0.005 A 
HETATM    6  C5  UNK     1      27.812  -6.409  38.691  1.00  0.00     0.092 A 
HETATM    7  C7  UNK     1      29.551  -4.752  39.105  1.00  0.00     0.295 A 
HETATM    8  C8  UNK     1      31.153  -8.120  37.984  1.00  0.00     0.050 C 
HETATM    9  C9  UNK     1      28.247  -8.625  37.924  1.00  0.00     0.017 A 
HETATM   10  C10 UNK     1      26.437  -6.654  38.695  1.00  0.00     0.075 A 
HETATM   11  C11 UNK     1      25.967  -7.904  38.308  1.00  0.00     0.071 A 
HETATM   12  C12 UNK     1      26.871  -8.888  37.920  1.00  0.00     0.038 A 
ENDROOT
BRANCH   3  13
HETATM   13  C4  UNK     1      31.976  -5.272  38.699  1.00  0.00     0.084 C 
BRANCH  13  14
HETATM   14  C6  UNK     1      32.532  -5.133  37.313  1.00  0.00    -0.054 A 
HETATM   15  C13 UNK     1      33.769  -5.690  37.008  1.00  0.00     0.007 A 
HETATM   16  C15 UNK     1      34.286  -5.561  35.718  1.00  0.00     0.001 A 
HETATM   17  C17 UNK     1      33.564  -4.875  34.742  1.00  0.00     0.000 A 
HETATM   18  C16 UNK     1      32.324  -4.318  35.055  1.00  0.00     0.001 A 
HETATM   19  C14 UNK     1      31.806  -4.448  36.344  1.00  0.00     0.007 A 
ENDBRANCH  13  14
ENDBRANCH   3  13
BRANCH  11  20
HETATM   20  O2  UNK     1      24.632  -8.162  38.304  1.00  0.00    -0.347 OA
BRANCH  20  21
HETATM   21  C18 UNK     1      23.796  -7.280  39.052  1.00  0.00     0.202 C 
BRANCH  21  22
HETATM   22  C19 UNK     1      22.785  -8.089  39.793  1.00  0.00    -0.011 C 
HETATM   23  C20 UNK     1      21.513  -8.234  39.406  1.00  0.00     0.009 C 
ENDBRANCH  21  22
ENDBRANCH  20  21
ENDBRANCH  11  20
TORSDOF 5
ENDMDL
MODEL 3
REMARK VINA RESULT:      -7.3      1.463      2.175
REMARK  5 active torsions:
REMARK  status: ('A' for Active; 'I' for Inactive)
REMARK    1  A    between atoms: C11_14  and  O2_2 
REMARK    2  A    between atoms: C18_21  and  O2_2 
REMARK    3  A    between atoms: C1_4  and  C4_7 
REMARK    4  A    between atoms: C4_7  and  C6_9 
REMARK    5  A    between atoms: C18_21  and  C19_22 
ROOT
HETATM    1  O1  UNK     1      13.610   9.302   9.492  1.00  0.00    -0.274 OA
HETATM    2  O3  UNK     1      11.389   8.871   9.309  1.00  0.00    -0.259 OA
HETATM    3  C1  UNK     1      12.816   6.976   9.520  1.00  0.00     0.029 A 
HETATM    4  C2  UNK     1      14.081   6.513   9.620  1.00  0.00    -0.036 A 
HETATM    5  C3  UNK     1      15.201   7.472   9.700  1.00  0.00     0.005 A 
HETATM    6  C5  UNK     1      14.926   8.835   9.631  1.00  0.00     0.092 A 
HETATM    7  C7  UNK     1      12.530   8.438   9.434  1.00  0.00     0.295 A 
HETATM    8  C8  UNK     1      14.435   5.047   9.641  1.00  0.00     0.050 C 
HETATM    9  C9  UNK     1      16.545   7.098   9.852  1.00  0.00     0.017 A 
HETATM   10  C10 UNK     1      15.926   9.809   9.699  1.00  0.00     0.075 A 
HETATM   11  C11 UNK     1      17.251   9.415   9.843  1.00  0.00     0.071 A 
HETATM   12  C12 UNK     1      17.561   8.060   9.922  1.00  0.00     0.038 A 
ENDROOT
BRANCH   3  13
HETATM   13  C4  UNK     1      11.581   6.112   9.495  1.00  0.00     0.084 C 
BRANCH  13  14
HETATM   14  C6  UNK     1      10.911   6.123   8.153  1.00  0.00    -0.054 A 
HETATM   15  C13 UNK     1       9.526   6.208   8.076  1.00  0.00     0.007 A 
HETATM   16  C15 UNK     1       8.902   6.219   6.828  1.00  0.00     0.001 A 
HETATM   17  C17 UNK     1       9.668   6.145   5.665  1.00  0.00     0.000 A 
HETATM   18  C16 UNK     1      11.058   6.059   5.750  1.00  0.00     0.001 A 
HETATM   19  C14 UNK     1      11.681   6.049   6.998  1.00  0.00     0.007 A 
ENDBRANCH  13  14
ENDBRANCH   3  13
BRANCH  11  20
HETATM   20  O2  UNK     1      18.239  10.347   9.911  1.00  0.00    -0.347 OA
BRANCH  20  21
HETATM   21  C18 UNK     1      18.059  11.543   9.153  1.00  0.00     0.202 C 
BRANCH  21  22
HETATM   22  C19 UNK     1      18.806  11.414   7.868  1.00  0.00    -0.011 C 
HETATM   23  C20 UNK     1      18.530  12.123   6.768  1.00  0.00     0.009 C 
ENDBRANCH  21  22
ENDBRANCH  20  21
ENDBRANCH  11  20
TORSDOF 5
ENDMDL
MODEL 4
REMARK VINA RESULT:      -7.2     34.410     36.128
REMARK  5 active torsions:
REMARK  status: ('A' for Active; 'I' for Inactive)
REMARK    1  A    between atoms: C11_14  and  O2_2 
REMARK    2  A    between atoms: C18_21  and  O2_2 
REMARK    3  A    between atoms: C1_4  and  C4_7 
REMARK    4  A    between atoms: C4_7  and  C6_9 
REMARK    5  A    between atoms: C18_21  and  C19_22 
ROOT
HETATM    1  O1  UNK     1      28.454  -5.244  39.324  1.00  0.00    -0.274 OA
HETATM    2  O3  UNK     1      29.972  -3.585  39.634  1.00  0.00    -0.259 OA
HETATM    3  C1  UNK     1      30.085  -4.743  37.556  1.00  0.00     0.029 A 
HETATM    4  C2  UNK     1      29.599  -5.739  36.783  1.00  0.00    -0.036 A 
HETATM    5  C3  UNK     1      28.449  -6.532  37.260  1.00  0.00     0.005 A 
HETATM    6  C5  UNK     1      27.917  -6.258  38.516  1.00  0.00     0.092 A 
HETATM    7  C7  UNK     1      29.518  -4.463  38.907  1.00  0.00     0.295 A 
HETATM    8  C8  UNK     1      30.176  -6.112  35.440  1.00  0.00     0.050 C 
HETATM    9  C9  UNK     1      27.839  -7.555  36.517  1.00  0.00     0.017 A 
HETATM   10  C10 UNK     1      26.830  -6.961  39.044  1.00  0.00     0.075 A 
HETATM   11  C11 UNK     1      26.246  -7.974  38.292  1.00  0.00     0.071 A 
HETATM   12  C12 UNK     1      26.748  -8.269  37.028  1.00  0.00     0.038 A 
ENDROOT
BRANCH   3  13
HETATM   13  C4  UNK     1      31.210  -3.818  37.164  1.00  0.00     0.084 C 
BRANCH  13  14
HETATM   14  C6  UNK     1      32.508  -4.549  36.990  1.00  0.00    -0.054 A 
HETATM   15  C13 UNK     1      33.287  -4.310  35.864  1.00  0.00     0.007 A 
HETATM   16  C15 UNK     1      34.495  -4.990  35.703  1.00  0.00     0.001 A 
HETATM   17  C17 UNK     1      34.915  -5.905  36.668  1.00  0.00     0.000 A 
HETATM   18  C16 UNK     1      34.128  -6.140  37.795  1.00  0.00     0.001 A 
HETATM   19  C14 UNK     1      32.921  -5.460  37.957  1.00  0.00     0.007 A 
ENDBRANCH  13  14
ENDBRANCH   3  13
BRANCH  11  20
HETATM   20  O2  UNK     1      25.187  -8.669  38.786  1.00  0.00    -0.347 OA
BRANCH  20  21
HETATM   21  C18 UNK     1      23.887  -8.275  38.347  1.00  0.00     0.202 C 
BRANCH  21  22
HETATM   22  C19 UNK     1      23.165  -7.643  39.490  1.00  0.00    -0.011 C 
HETATM   23  C20 UNK     1      21.851  -7.396  39.499  1.00  0.00     0.009 C 
ENDBRANCH  21  22
ENDBRANCH  20  21
ENDBRANCH  11  20
TORSDOF 5
ENDMDL
MODEL 5
REMARK VINA RESULT:      -7.2     34.023     35.962
REMARK  5 active torsions:
REMARK  status: ('A' for Active; 'I' for Inactive)
REMARK    1  A    between atoms: C11_14  and  O2_2 
REMARK    2  A    between atoms: C18_21  and  O2_2 
REMARK    3  A    between atoms: C1_4  and  C4_7 
REMARK    4  A    between atoms: C4_7  and  C6_9 
REMARK    5  A    between atoms: C18_21  and  C19_22 
ROOT
HETATM    1  O1  UNK     1      29.152  -6.896  35.499  1.00  0.00    -0.274 OA
HETATM    2  O3  UNK     1      30.773  -5.645  34.520  1.00  0.00    -0.259 OA
HETATM    3  C1  UNK     1      30.274  -5.132  36.792  1.00  0.00     0.029 A 
HETATM    4  C2  UNK     1      29.505  -5.392  37.872  1.00  0.00    -0.036 A 
HETATM    5  C3  UNK     1      28.515  -6.486  37.811  1.00  0.00     0.005 A 
HETATM    6  C5  UNK     1      28.371  -7.199  36.625  1.00  0.00     0.092 A 
HETATM    7  C7  UNK     1      30.106  -5.893  35.519  1.00  0.00     0.295 A 
HETATM    8  C8  UNK     1      29.582  -4.611  39.160  1.00  0.00     0.050 C 
HETATM    9  C9  UNK     1      27.701  -6.867  38.889  1.00  0.00     0.017 A 
HETATM   10  C10 UNK     1      27.459  -8.248  36.483  1.00  0.00     0.075 A 
HETATM   11  C11 UNK     1      26.658  -8.605  37.562  1.00  0.00     0.071 A 
HETATM   12  C12 UNK     1      26.781  -7.917  38.766  1.00  0.00     0.038 A 
ENDROOT
BRANCH   3  13
HETATM   13  C4  UNK     1      31.363  -4.091  36.740  1.00  0.00     0.084 C 
BRANCH  13  14
HETATM   14  C6  UNK     1      32.729  -4.706  36.672  1.00  0.00    -0.054 A 
HETATM   15  C13 UNK     1      33.594  -4.350  35.643  1.00  0.00     0.007 A 
HETATM   16  C15 UNK     1      34.866  -4.921  35.581  1.00  0.00     0.001 A 
HETATM   17  C17 UNK     1      35.264  -5.845  36.547  1.00  0.00     0.000 A 
HETATM   18  C16 UNK     1      34.391  -6.197  37.576  1.00  0.00     0.001 A 
HETATM   19  C14 UNK     1      33.120  -5.625  37.639  1.00  0.00     0.007 A 
ENDBRANCH  13  14
ENDBRANCH   3  13
BRANCH  11  20
HETATM   20  O2  UNK     1      25.764  -9.622  37.444  1.00  0.00    -0.347 OA
BRANCH  20  21
HETATM   21  C18 UNK     1      26.122 -10.707  36.588  1.00  0.00     0.202 C 
BRANCH  21  22
HETATM   22  C19 UNK     1      24.874 -11.360  36.094  1.00  0.00    -0.011 C 
HETATM   23  C20 UNK     1      24.673 -12.683  36.093  1.00  0.00     0.009 C 
ENDBRANCH  21  22
ENDBRANCH  20  21
ENDBRANCH  11  20
TORSDOF 5
ENDMDL
MODEL 6
REMARK VINA RESULT:      -7.1     34.229     35.788
REMARK  5 active torsions:
REMARK  status: ('A' for Active; 'I' for Inactive)
REMARK    1  A    between atoms: C11_14  and  O2_2 
REMARK    2  A    between atoms: C18_21  and  O2_2 
REMARK    3  A    between atoms: C1_4  and  C4_7 
REMARK    4  A    between atoms: C4_7  and  C6_9 
REMARK    5  A    between atoms: C18_21  and  C19_22 
ROOT
HETATM    1  O1  UNK     1      31.151  -4.350  38.313  1.00  0.00    -0.274 OA
HETATM    2  O3  UNK     1      29.505  -4.003  39.836  1.00  0.00    -0.259 OA
HETATM    3  C1  UNK     1      28.944  -5.374  37.972  1.00  0.00     0.029 A 
HETATM    4  C2  UNK     1      29.342  -5.916  36.800  1.00  0.00    -0.036 A 
HETATM    5  C3  UNK     1      30.733  -5.716  36.343  1.00  0.00     0.005 A 
HETATM    6  C5  UNK     1      31.589  -4.937  37.116  1.00  0.00     0.092 A 
HETATM    7  C7  UNK     1      29.864  -4.530  38.788  1.00  0.00     0.295 A 
HETATM    8  C8  UNK     1      28.438  -6.720  35.900  1.00  0.00     0.050 C 
HETATM    9  C9  UNK     1      31.260  -6.273  35.168  1.00  0.00     0.017 A 
HETATM   10  C10 UNK     1      32.918  -4.697  36.756  1.00  0.00     0.075 A 
HETATM   11  C11 UNK     1      33.418  -5.254  35.585  1.00  0.00     0.071 A 
HETATM   12  C12 UNK     1      32.590  -6.044  34.792  1.00  0.00     0.038 A 
ENDROOT
BRANCH   3  13
HETATM   13  C4  UNK     1      27.578  -5.554  38.584  1.00  0.00     0.084 C 
BRANCH  13  14
HETATM   14  C6  UNK     1      27.298  -6.987  38.928  1.00  0.00    -0.054 A 
HETATM   15  C13 UNK     1      26.046  -7.528  38.657  1.00  0.00     0.007 A 
HETATM   16  C15 UNK     1      25.785  -8.861  38.976  1.00  0.00     0.001 A 
HETATM   17  C17 UNK     1      26.778  -9.645  39.565  1.00  0.00     0.000 A 
HETATM   18  C16 UNK     1      28.032  -9.095  39.833  1.00  0.00     0.001 A 
HETATM   19  C14 UNK     1      28.292  -7.762  39.513  1.00  0.00     0.007 A 
ENDBRANCH  13  14
ENDBRANCH   3  13
BRANCH  11  20
HETATM   20  O2  UNK     1      34.708  -5.033  35.218  1.00  0.00    -0.347 OA
BRANCH  20  21
HETATM   21  C18 UNK     1      35.268  -5.914  34.245  1.00  0.00     0.202 C 
BRANCH  21  22
HETATM   22  C19 UNK     1      36.253  -6.810  34.919  1.00  0.00    -0.011 C 
HETATM   23  C20 UNK     1      37.247  -7.441  34.284  1.00  0.00     0.009 C 
ENDBRANCH  21  22
ENDBRANCH  20  21
ENDBRANCH  11  20
TORSDOF 5
ENDMDL
MODEL 7
REMARK VINA RESULT:      -7.0      1.839      7.541
REMARK  5 active torsions:
REMARK  status: ('A' for Active; 'I' for Inactive)
REMARK    1  A    between atoms: C11_14  and  O2_2 
REMARK    2  A    between atoms: C18_21  and  O2_2 
REMARK    3  A    between atoms: C1_4  and  C4_7 
REMARK    4  A    between atoms: C4_7  and  C6_9 
REMARK    5  A    between atoms: C18_21  and  C19_22 
ROOT
HETATM    1  O1  UNK     1      13.644   9.654   8.907  1.00  0.00    -0.274 OA
HETATM    2  O3  UNK     1      14.387  11.653   9.683  1.00  0.00    -0.259 OA
HETATM    3  C1  UNK     1      15.794   9.774  10.091  1.00  0.00     0.029 A 
HETATM    4  C2  UNK     1      15.968   8.440   9.976  1.00  0.00    -0.036 A 
HETATM    5  C3  UNK     1      14.959   7.636   9.257  1.00  0.00     0.005 A 
HETATM    6  C5  UNK     1      13.829   8.271   8.749  1.00  0.00     0.092 A 
HETATM    7  C7  UNK     1      14.575  10.447   9.555  1.00  0.00     0.295 A 
HETATM    8  C8  UNK     1      17.144   7.697  10.557  1.00  0.00     0.050 C 
HETATM    9  C9  UNK     1      15.066   6.253   9.040  1.00  0.00     0.017 A 
HETATM   10  C10 UNK     1      12.827   7.586   8.058  1.00  0.00     0.075 A 
HETATM   11  C11 UNK     1      12.951   6.216   7.860  1.00  0.00     0.071 A 
HETATM   12  C12 UNK     1      14.072   5.550   8.349  1.00  0.00     0.038 A 
ENDROOT
BRANCH   3  13
HETATM   13  C4  UNK     1      16.774  10.718  10.740  1.00  0.00     0.084 C 
BRANCH  13  14
HETATM   14  C6  UNK     1      17.868  11.131   9.801  1.00  0.00    -0.054 A 
HETATM   15  C13 UNK     1      17.646  11.099   8.429  1.00  0.00     0.007 A 
HETATM   16  C15 UNK     1      18.663  11.484   7.554  1.00  0.00     0.001 A 
HETATM   17  C17 UNK     1      19.896  11.897   8.057  1.00  0.00     0.000 A 
HETATM   18  C16 UNK     1      20.112  11.927   9.435  1.00  0.00     0.001 A 
HETATM   19  C14 UNK     1      19.094  11.543  10.310  1.00  0.00     0.007 A 
ENDBRANCH  13  14
ENDBRANCH   3  13
BRANCH  11  20
HETATM   20  O2  UNK     1      11.987   5.530   7.190  1.00  0.00    -0.347 OA
BRANCH  20  21
HETATM   21  C18 UNK     1      11.468   6.130   6.003  1.00  0.00     0.202 C 
BRANCH  21  22
HETATM   22  C19 UNK     1       9.979   6.048   6.036  1.00  0.00    -0.011 C 
HETATM   23  C20 UNK     1       9.242   6.266   7.131  1.00  0.00     0.009 C 
ENDBRANCH  21  22
ENDBRANCH  20  21
ENDBRANCH  11  20
TORSDOF 5
ENDMDL
MODEL 8
REMARK VINA RESULT:      -7.0     23.661     25.092
REMARK  5 active torsions:
REMARK  status: ('A' for Active; 'I' for Inactive)
REMARK    1  A    between atoms: C11_14  and  O2_2 
REMARK    2  A    between atoms: C18_21  and  O2_2 
REMARK    3  A    between atoms: C1_4  and  C4_7 
REMARK    4  A    between atoms: C4_7  and  C6_9 
REMARK    5  A    between atoms: C18_21  and  C19_22 
ROOT
HETATM    1  O1  UNK     1      16.079   9.025  34.051  1.00  0.00    -0.274 OA
HETATM    2  O3  UNK     1      16.133   6.756  34.042  1.00  0.00    -0.259 OA
HETATM    3  C1  UNK     1      18.241   7.861  34.146  1.00  0.00     0.029 A 
HETATM    4  C2  UNK     1      18.908   9.035  34.148  1.00  0.00    -0.036 A 
HETATM    5  C3  UNK     1      18.149  10.302  34.138  1.00  0.00     0.005 A 
HETATM    6  C5  UNK     1      16.759  10.252  34.088  1.00  0.00     0.092 A 
HETATM    7  C7  UNK     1      16.751   7.815  34.079  1.00  0.00     0.295 A 
HETATM    8  C8  UNK     1      20.413   9.142  34.144  1.00  0.00     0.050 C 
HETATM    9  C9  UNK     1      18.742  11.573  34.186  1.00  0.00     0.017 A 
HETATM   10  C10 UNK     1      15.964  11.402  34.076  1.00  0.00     0.075 A 
HETATM   11  C11 UNK     1      16.574  12.651  34.117  1.00  0.00     0.071 A 
HETATM   12  C12 UNK     1      17.962  12.736  34.175  1.00  0.00     0.038 A 
ENDROOT
BRANCH   3  13
HETATM   13  C4  UNK     1      18.889   6.501  34.219  1.00  0.00     0.084 C 
BRANCH  13  14
HETATM   14  C6  UNK     1      18.971   5.842  32.874  1.00  0.00    -0.054 A 
HETATM   15  C13 UNK     1      19.740   6.420  31.870  1.00  0.00     0.007 A 
HETATM   16  C15 UNK     1      19.817   5.806  30.619  1.00  0.00     0.001 A 
HETATM   17  C17 UNK     1      19.125   4.620  30.380  1.00  0.00     0.000 A 
HETATM   18  C16 UNK     1      18.356   4.045  31.392  1.00  0.00     0.001 A 
HETATM   19  C14 UNK     1      18.279   4.658  32.643  1.00  0.00     0.007 A 
ENDBRANCH  13  14
ENDBRANCH   3  13
BRANCH  11  20
HETATM   20  O2  UNK     1      15.819  13.782  34.106  1.00  0.00    -0.347 OA
BRANCH  20  21
HETATM   21  C18 UNK     1      15.698  14.471  32.863  1.00  0.00     0.202 C 
BRANCH  21  22
HETATM   22  C19 UNK     1      14.252  14.571  32.508  1.00  0.00    -0.011 C 
HETATM   23  C20 UNK     1      13.463  13.515  32.283  1.00  0.00     0.009 C 
ENDBRANCH  21  22
ENDBRANCH  20  21
ENDBRANCH  11  20
TORSDOF 5
ENDMDL
MODEL 9
REMARK VINA RESULT:      -7.0     34.601     36.486
REMARK  5 active torsions:
REMARK  status: ('A' for Active; 'I' for Inactive)
REMARK    1  A    between atoms: C11_14  and  O2_2 
REMARK    2  A    between atoms: C18_21  and  O2_2 
REMARK    3  A    between atoms: C1_4  and  C4_7 
REMARK    4  A    between atoms: C4_7  and  C6_9 
REMARK    5  A    between atoms: C18_21  and  C19_22 
ROOT
HETATM    1  O1  UNK     1      30.333  -8.876  37.201  1.00  0.00    -0.274 OA
HETATM    2  O3  UNK     1      32.579  -8.548  37.224  1.00  0.00    -0.259 OA
HETATM    3  C1  UNK     1      31.248  -6.797  38.138  1.00  0.00     0.029 A 
HETATM    4  C2  UNK     1      30.007  -6.330  38.396  1.00  0.00    -0.036 A 
HETATM    5  C3  UNK     1      28.835  -7.174  38.085  1.00  0.00     0.005 A 
HETATM    6  C5  UNK     1      29.040  -8.418  37.496  1.00  0.00     0.092 A 
HETATM    7  C7  UNK     1      31.459  -8.126  37.495  1.00  0.00     0.295 A 
HETATM    8  C8  UNK     1      29.731  -4.967  38.980  1.00  0.00     0.050 C 
HETATM    9  C9  UNK     1      27.509  -6.804  38.355  1.00  0.00     0.017 A 
HETATM   10  C10 UNK     1      27.988  -9.278  37.169  1.00  0.00     0.075 A 
HETATM   11  C11 UNK     1      26.681  -8.889  37.440  1.00  0.00     0.071 A 
HETATM   12  C12 UNK     1      26.442  -7.654  38.036  1.00  0.00     0.038 A 
ENDROOT
BRANCH   3  13
HETATM   13  C4  UNK     1      32.528  -6.069  38.465  1.00  0.00     0.084 C 
BRANCH  13  14
HETATM   14  C6  UNK     1      33.149  -5.447  37.249  1.00  0.00    -0.054 A 
HETATM   15  C13 UNK     1      32.420  -4.540  36.490  1.00  0.00     0.007 A 
HETATM   16  C15 UNK     1      32.999  -3.961  35.360  1.00  0.00     0.001 A 
HETATM   17  C17 UNK     1      34.303  -4.295  34.995  1.00  0.00     0.000 A 
HETATM   18  C16 UNK     1      35.029  -5.207  35.762  1.00  0.00     0.001 A 
HETATM   19  C14 UNK     1      34.450  -5.784  36.893  1.00  0.00     0.007 A 
ENDBRANCH  13  14
ENDBRANCH   3  13
BRANCH  11  20
HETATM   20  O2  UNK     1      25.643  -9.711  37.131  1.00  0.00    -0.347 OA
BRANCH  20  21
HETATM   21  C18 UNK     1      25.957 -10.932  36.460  1.00  0.00     0.202 C 
BRANCH  21  22
HETATM   22  C19 UNK     1      24.685 -11.596  36.052  1.00  0.00    -0.011 C 
HETATM   23  C20 UNK     1      24.549 -12.917  35.894  1.00  0.00     0.009 C 
ENDBRANCH  21  22
ENDBRANCH  20  21
ENDBRANCH  11  20
TORSDOF 5
ENDMDL
MODEL 10
REMARK VINA RESULT:      -7.0     23.693     25.218
REMARK  5 active torsions:
REMARK  status: ('A' for Active; 'I' for Inactive)
REMARK    1  A    between atoms: C11_14  and  O2_2 
REMARK    2  A    between atoms: C18_21  and  O2_2 
REMARK    3  A    between atoms: C1_4  and  C4_7 
REMARK    4  A    between atoms: C4_7  and  C6_9 
REMARK    5  A    between atoms: C18_21  and  C19_22 
ROOT
HETATM    1  O1  UNK     1      18.878  10.810  34.250  1.00  0.00    -0.274 OA
HETATM    2  O3  UNK     1      20.662   9.406  34.295  1.00  0.00    -0.259 OA
HETATM    3  C1  UNK     1      18.512   8.380  34.281  1.00  0.00     0.029 A 
HETATM    4  C2  UNK     1      17.173   8.551  34.295  1.00  0.00    -0.036 A 
HETATM    5  C3  UNK     1      16.614   9.917  34.248  1.00  0.00     0.005 A 
HETATM    6  C5  UNK     1      17.488  11.001  34.229  1.00  0.00     0.092 A 
HETATM    7  C7  UNK     1      19.443   9.546  34.273  1.00  0.00     0.295 A 
HETATM    8  C8  UNK     1      16.186   7.413  34.373  1.00  0.00     0.050 C 
HETATM    9  C9  UNK     1      15.241  10.203  34.211  1.00  0.00     0.017 A 
HETATM   10  C10 UNK     1      17.044  12.325  34.185  1.00  0.00     0.075 A 
HETATM   11  C11 UNK     1      15.679  12.584  34.156  1.00  0.00     0.071 A 
HETATM   12  C12 UNK     1      14.777  11.524  34.166  1.00  0.00     0.038 A 
ENDROOT
BRANCH   3  13
HETATM   13  C4  UNK     1      19.211   7.044  34.260  1.00  0.00     0.084 C 
BRANCH  13  14
HETATM   14  C6  UNK     1      19.579   6.620  32.870  1.00  0.00    -0.054 A 
HETATM   15  C13 UNK     1      18.592   6.523  31.895  1.00  0.00     0.007 A 
HETATM   16  C15 UNK     1      18.934   6.130  30.601  1.00  0.00     0.001 A 
HETATM   17  C17 UNK     1      20.261   5.835  30.290  1.00  0.00     0.000 A 
HETATM   18  C16 UNK     1      21.246   5.934  31.272  1.00  0.00     0.001 A 
HETATM   19  C14 UNK     1      20.904   6.328  32.566  1.00  0.00     0.007 A 
ENDBRANCH  13  14
ENDBRANCH   3  13
BRANCH  11  20
HETATM   20  O2  UNK     1      15.226  13.866  34.112  1.00  0.00    -0.347 OA
BRANCH  20  21
HETATM   21  C18 UNK     1      15.658  14.672  33.016  1.00  0.00     0.202 C 
BRANCH  21  22
HETATM   22  C19 UNK     1      14.608  14.647  31.957  1.00  0.00    -0.011 C 
HETATM   23  C20 UNK     1      13.297  14.750  32.202  1.00  0.00     0.009 C 
ENDBRANCH  21  22
ENDBRANCH  20  21
ENDBRANCH  11  20
TORSDOF 5
ENDMDL
