MODEL 1
REMARK VINA RESULT:      -7.7      0.000      0.000
REMARK  8 active torsions:
REMARK  status: ('A' for Active; 'I' for Inactive)
REMARK    1  A    between atoms: C14_19  and  N1_4 
REMARK    2  A    between atoms: C5_10  and  N1_4 
REMARK    3  A    between atoms: C14_19  and  N2_5 
REMARK    4  A    between atoms: C17_22  and  N2_5 
REMARK    5  A    between atoms: C1_6  and  C2_7 
REMARK    6  A    between atoms: C1_6  and  C3_8 
REMARK    7  A    between atoms: C1_6  and  C4_9 
REMARK    8  A    between atoms: C2_7  and  C5_10 
ROOT
HETATM    1  N1  UNK     1      32.921  -8.980  36.143  1.00  0.00    -0.367 N 
HETATM    2  H10 UNK     1      33.750  -9.396  35.730  1.00  0.00     0.161 HD
ENDROOT
BRANCH   1   3
HETATM    3  C14 UNK     1      31.826  -9.818  36.307  1.00  0.00     0.172 C 
HETATM    4  S1  UNK     1      31.216  -9.974  37.863  1.00  0.00    -0.041 SA
BRANCH   3   5
HETATM    5  N2  UNK     1      31.384 -10.466  35.139  1.00  0.00    -0.333 N 
HETATM    6  H17 UNK     1      31.287 -11.472  35.228  1.00  0.00     0.168 HD
BRANCH   5   7
HETATM    7  C17 UNK     1      30.797  -9.997  33.964  1.00  0.00     0.036 A 
HETATM    8  C20 UNK     1      31.569  -9.341  33.011  1.00  0.00     0.067 A 
HETATM    9  C19 UNK     1      30.961  -8.880  31.842  1.00  0.00     0.092 A 
HETATM   10  C18 UNK     1      29.600  -9.056  31.591  1.00  0.00     0.004 A 
HETATM   11  O1  UNK     1      31.795  -8.223  30.915  1.00  0.00    -0.275 OA
HETATM   12  C21 UNK     1      29.044  -8.539  30.332  1.00  0.00    -0.043 A 
HETATM   13  C23 UNK     1      28.840  -9.720  32.563  1.00  0.00     0.017 A 
HETATM   14  C24 UNK     1      29.860  -7.919  29.469  1.00  0.00     0.090 A 
HETATM   15  C25 UNK     1      27.584  -8.711  30.032  1.00  0.00     0.049 C 
HETATM   16  C26 UNK     1      31.298  -7.726  29.720  1.00  0.00     0.288 A 
HETATM   17  O2  UNK     1      32.015  -7.152  28.906  1.00  0.00    -0.260 OA
HETATM   18  C22 UNK     1      29.434 -10.187  33.740  1.00  0.00     0.030 A 
ENDBRANCH   5   7
ENDBRANCH   3   5
ENDBRANCH   1   3
BRANCH   1  19
HETATM   19  C5  UNK     1      33.008  -7.574  36.493  1.00  0.00     0.123 C 
BRANCH  19  20
HETATM   20  C2  UNK     1      32.263  -6.675  35.504  1.00  0.00     0.034 C 
BRANCH  20  21
HETATM   21  C1  UNK     1      30.718  -6.701  35.658  1.00  0.00     0.053 C 
BRANCH  21  22
HETATM   22  C3  UNK     1      30.216  -5.938  36.877  1.00  0.00    -0.050 A 
HETATM   23  C6  UNK     1      29.432  -6.600  37.799  1.00  0.00     0.008 A 
HETATM   24  C10 UNK     1      28.971  -5.902  38.916  1.00  0.00     0.001 A 
HETATM   25  C15 UNK     1      29.306  -4.559  39.085  1.00  0.00     0.000 A 
HETATM   26  C12 UNK     1      30.101  -3.913  38.138  1.00  0.00     0.001 A 
HETATM   27  C8  UNK     1      30.561  -4.611  37.022  1.00  0.00     0.008 A 
ENDBRANCH  21  22
BRANCH  21  28
HETATM   28  C4  UNK     1      29.981  -6.267  34.393  1.00  0.00    -0.050 A 
HETATM   29  C7  UNK     1      30.692  -5.637  33.396  1.00  0.00     0.008 A 
HETATM   30  C11 UNK     1      30.019  -5.241  32.240  1.00  0.00     0.001 A 
HETATM   31  C16 UNK     1      28.652  -5.485  32.111  1.00  0.00     0.000 A 
HETATM   32  C13 UNK     1      27.958  -6.126  33.137  1.00  0.00     0.001 A 
HETATM   33  C9  UNK     1      28.631  -6.522  34.293  1.00  0.00     0.008 A 
ENDBRANCH  21  28
ENDBRANCH  20  21
ENDBRANCH  19  20
ENDBRANCH   1  19
TORSDOF 8
ENDMDL
MODEL 2
REMARK VINA RESULT:      -7.6      2.323      5.435
REMARK  8 active torsions:
REMARK  status: ('A' for Active; 'I' for Inactive)
REMARK    1  A    between atoms: C14_19  and  N1_4 
REMARK    2  A    between atoms: C5_10  and  N1_4 
REMARK    3  A    between atoms: C14_19  and  N2_5 
REMARK    4  A    between atoms: C17_22  and  N2_5 
REMARK    5  A    between atoms: C1_6  and  C2_7 
REMARK    6  A    between atoms: C1_6  and  C3_8 
REMARK    7  A    between atoms: C1_6  and  C4_9 
REMARK    8  A    between atoms: C2_7  and  C5_10 
ROOT
HETATM    1  N1  UNK     1      28.475  -9.154  37.236  1.00  0.00    -0.367 N 
HETATM    2  H10 UNK     1      28.804  -9.597  36.384  1.00  0.00     0.161 HD
ENDROOT
BRANCH   1   3
HETATM    3  C14 UNK     1      29.033  -9.610  38.424  1.00  0.00     0.172 C 
HETATM    4  S1  UNK     1      27.986  -9.828  39.719  1.00  0.00    -0.041 SA
BRANCH   3   5
HETATM    5  N2  UNK     1      30.427  -9.797  38.402  1.00  0.00    -0.333 N 
HETATM    6  H17 UNK     1      30.735 -10.704  38.735  1.00  0.00     0.168 HD
BRANCH   5   7
HETATM    7  C17 UNK     1      31.462  -9.104  37.774  1.00  0.00     0.036 A 
HETATM    8  C20 UNK     1      31.864  -9.460  36.491  1.00  0.00     0.067 A 
HETATM    9  C19 UNK     1      32.902  -8.753  35.883  1.00  0.00     0.092 A 
HETATM   10  C18 UNK     1      33.555  -7.695  36.517  1.00  0.00     0.004 A 
HETATM   11  O1  UNK     1      33.264  -9.159  34.583  1.00  0.00    -0.275 OA
HETATM   12  C21 UNK     1      34.638  -7.006  35.799  1.00  0.00    -0.043 A 
HETATM   13  C23 UNK     1      33.135  -7.352  37.808  1.00  0.00     0.017 A 
HETATM   14  C24 UNK     1      34.961  -7.413  34.565  1.00  0.00     0.090 A 
HETATM   15  C25 UNK     1      35.360  -5.864  36.454  1.00  0.00     0.049 C 
HETATM   16  C26 UNK     1      34.281  -8.528  33.883  1.00  0.00     0.288 A 
HETATM   17  O2  UNK     1      34.604  -8.874  32.751  1.00  0.00    -0.260 OA
HETATM   18  C22 UNK     1      32.097  -8.051  38.432  1.00  0.00     0.030 A 
ENDBRANCH   5   7
ENDBRANCH   3   5
ENDBRANCH   1   3
BRANCH   1  19
HETATM   19  C5  UNK     1      27.470  -8.118  37.081  1.00  0.00     0.123 C 
BRANCH  19  20
HETATM   20  C2  UNK     1      28.035  -6.841  36.456  1.00  0.00     0.034 C 
BRANCH  20  21
HETATM   21  C1  UNK     1      29.190  -7.082  35.447  1.00  0.00     0.053 C 
BRANCH  21  22
HETATM   22  C3  UNK     1      28.714  -7.287  34.015  1.00  0.00    -0.050 A 
HETATM   23  C6  UNK     1      27.994  -6.281  33.403  1.00  0.00     0.008 A 
HETATM   24  C10 UNK     1      27.556  -6.468  32.091  1.00  0.00     0.001 A 
HETATM   25  C15 UNK     1      27.849  -7.656  31.422  1.00  0.00     0.000 A 
HETATM   26  C12 UNK     1      28.578  -8.657  32.064  1.00  0.00     0.001 A 
HETATM   27  C8  UNK     1      29.015  -8.470  33.375  1.00  0.00     0.008 A 
ENDBRANCH  21  22
BRANCH  21  28
HETATM   28  C4  UNK     1      30.283  -6.018  35.519  1.00  0.00    -0.050 A 
HETATM   29  C7  UNK     1      30.410  -5.278  36.674  1.00  0.00     0.008 A 
HETATM   30  C11 UNK     1      31.408  -4.305  36.740  1.00  0.00     0.001 A 
HETATM   31  C16 UNK     1      32.253  -4.097  35.650  1.00  0.00     0.000 A 
HETATM   32  C13 UNK     1      32.101  -4.863  34.494  1.00  0.00     0.001 A 
HETATM   33  C9  UNK     1      31.103  -5.835  34.428  1.00  0.00     0.008 A 
ENDBRANCH  21  28
ENDBRANCH  20  21
ENDBRANCH  19  20
ENDBRANCH   1  19
TORSDOF 8
ENDMDL
MODEL 3
REMARK VINA RESULT:      -7.5      3.375      6.573
REMARK  8 active torsions:
REMARK  status: ('A' for Active; 'I' for Inactive)
REMARK    1  A    between atoms: C14_19  and  N1_4 
REMARK    2  A    between atoms: C5_10  and  N1_4 
REMARK    3  A    between atoms: C14_19  and  N2_5 
REMARK    4  A    between atoms: C17_22  and  N2_5 
REMARK    5  A    between atoms: C1_6  and  C2_7 
REMARK    6  A    between atoms: C1_6  and  C3_8 
REMARK    7  A    between atoms: C1_6  and  C4_9 
REMARK    8  A    between atoms: C2_7  and  C5_10 
ROOT
HETATM    1  N1  UNK     1      33.428  -4.250  35.552  1.00  0.00    -0.367 N 
HETATM    2  H10 UNK     1      33.995  -3.417  35.431  1.00  0.00     0.161 HD
ENDROOT
BRANCH   1   3
HETATM    3  C14 UNK     1      33.909  -5.201  36.443  1.00  0.00     0.172 C 
HETATM    4  S1  UNK     1      35.262  -6.073  35.965  1.00  0.00    -0.041 SA
BRANCH   3   5
HETATM    5  N2  UNK     1      33.171  -5.340  37.632  1.00  0.00    -0.333 N 
HETATM    6  H17 UNK     1      33.439  -4.700  38.371  1.00  0.00     0.168 HD
BRANCH   5   7
HETATM    7  C17 UNK     1      31.972  -5.988  37.928  1.00  0.00     0.036 A 
HETATM    8  C20 UNK     1      30.785  -5.266  37.997  1.00  0.00     0.067 A 
HETATM    9  C19 UNK     1      29.597  -5.935  38.294  1.00  0.00     0.092 A 
HETATM   10  C18 UNK     1      29.554  -7.311  38.526  1.00  0.00     0.004 A 
HETATM   11  O1  UNK     1      28.428  -5.150  38.349  1.00  0.00    -0.275 OA
HETATM   12  C21 UNK     1      28.258  -7.933  38.832  1.00  0.00    -0.043 A 
HETATM   13  C23 UNK     1      30.760  -8.020  38.452  1.00  0.00     0.017 A 
HETATM   14  C24 UNK     1      27.163  -7.162  38.878  1.00  0.00     0.090 A 
HETATM   15  C25 UNK     1      28.179  -9.410  39.087  1.00  0.00     0.049 C 
HETATM   16  C26 UNK     1      27.192  -5.710  38.635  1.00  0.00     0.288 A 
HETATM   17  O2  UNK     1      26.169  -5.036  38.686  1.00  0.00    -0.260 OA
HETATM   18  C22 UNK     1      31.960  -7.363  38.156  1.00  0.00     0.030 A 
ENDBRANCH   5   7
ENDBRANCH   3   5
ENDBRANCH   1   3
BRANCH   1  19
HETATM   19  C5  UNK     1      32.206  -4.321  34.772  1.00  0.00     0.123 C 
BRANCH  19  20
HETATM   20  C2  UNK     1      32.086  -5.629  33.986  1.00  0.00     0.034 C 
BRANCH  20  21
HETATM   21  C1  UNK     1      30.747  -6.385  34.207  1.00  0.00     0.053 C 
BRANCH  21  22
HETATM   22  C3  UNK     1      29.803  -6.310  33.015  1.00  0.00    -0.050 A 
HETATM   23  C6  UNK     1      30.335  -6.317  31.743  1.00  0.00     0.008 A 
HETATM   24  C10 UNK     1      29.471  -6.247  30.650  1.00  0.00     0.001 A 
HETATM   25  C15 UNK     1      28.094  -6.172  30.855  1.00  0.00     0.000 A 
HETATM   26  C12 UNK     1      27.580  -6.166  32.152  1.00  0.00     0.001 A 
HETATM   27  C8  UNK     1      28.445  -6.236  33.244  1.00  0.00     0.008 A 
ENDBRANCH  21  22
BRANCH  21  28
HETATM   28  C4  UNK     1      30.941  -7.827  34.669  1.00  0.00    -0.050 A 
HETATM   29  C7  UNK     1      32.219  -8.340  34.718  1.00  0.00     0.008 A 
HETATM   30  C11 UNK     1      32.396  -9.658  35.140  1.00  0.00     0.001 A 
HETATM   31  C16 UNK     1      31.292 -10.429  35.501  1.00  0.00     0.000 A 
HETATM   32  C13 UNK     1      30.010  -9.883  35.442  1.00  0.00     0.001 A 
HETATM   33  C9  UNK     1      29.833  -8.565  35.021  1.00  0.00     0.008 A 
ENDBRANCH  21  28
ENDBRANCH  20  21
ENDBRANCH  19  20
ENDBRANCH   1  19
TORSDOF 8
ENDMDL
MODEL 4
REMARK VINA RESULT:      -7.4      1.746      2.452
REMARK  8 active torsions:
REMARK  status: ('A' for Active; 'I' for Inactive)
REMARK    1  A    between atoms: C14_19  and  N1_4 
REMARK    2  A    between atoms: C5_10  and  N1_4 
REMARK    3  A    between atoms: C14_19  and  N2_5 
REMARK    4  A    between atoms: C17_22  and  N2_5 
REMARK    5  A    between atoms: C1_6  and  C2_7 
REMARK    6  A    between atoms: C1_6  and  C3_8 
REMARK    7  A    between atoms: C1_6  and  C4_9 
REMARK    8  A    between atoms: C2_7  and  C5_10 
ROOT
HETATM    1  N1  UNK     1      32.612  -9.687  35.333  1.00  0.00    -0.367 N 
HETATM    2  H10 UNK     1      33.014 -10.505  34.887  1.00  0.00     0.161 HD
ENDROOT
BRANCH   1   3
HETATM    3  C14 UNK     1      31.394  -9.869  35.976  1.00  0.00     0.172 C 
HETATM    4  S1  UNK     1      31.349  -9.544  37.623  1.00  0.00    -0.041 SA
BRANCH   3   5
HETATM    5  N2  UNK     1      30.350 -10.345  35.163  1.00  0.00    -0.333 N 
HETATM    6  H17 UNK     1      29.802 -11.091  35.576  1.00  0.00     0.168 HD
BRANCH   5   7
HETATM    7  C17 UNK     1      29.737  -9.834  34.018  1.00  0.00     0.036 A 
HETATM    8  C20 UNK     1      30.081 -10.325  32.763  1.00  0.00     0.067 A 
HETATM    9  C19 UNK     1      29.456  -9.800  31.631  1.00  0.00     0.092 A 
HETATM   10  C18 UNK     1      28.492  -8.794  31.712  1.00  0.00     0.004 A 
HETATM   11  O1  UNK     1      29.846 -10.339  30.389  1.00  0.00    -0.275 OA
HETATM   12  C21 UNK     1      27.885  -8.301  30.468  1.00  0.00    -0.043 A 
HETATM   13  C23 UNK     1      28.160  -8.313  32.985  1.00  0.00     0.017 A 
HETATM   14  C24 UNK     1      28.274  -8.831  29.301  1.00  0.00     0.090 A 
HETATM   15  C25 UNK     1      26.845  -7.219  30.520  1.00  0.00     0.049 C 
HETATM   16  C26 UNK     1      29.290  -9.893  29.199  1.00  0.00     0.288 A 
HETATM   17  O2  UNK     1      29.622 -10.354  28.113  1.00  0.00    -0.260 OA
HETATM   18  C22 UNK     1      28.778  -8.829  34.129  1.00  0.00     0.030 A 
ENDBRANCH   5   7
ENDBRANCH   3   5
ENDBRANCH   1   3
BRANCH   1  19
HETATM   19  C5  UNK     1      33.370  -8.454  35.228  1.00  0.00     0.123 C 
BRANCH  19  20
HETATM   20  C2  UNK     1      33.039  -7.668  33.957  1.00  0.00     0.034 C 
BRANCH  20  21
HETATM   21  C1  UNK     1      31.729  -6.840  34.043  1.00  0.00     0.053 C 
BRANCH  21  22
HETATM   22  C3  UNK     1      31.816  -5.662  35.005  1.00  0.00    -0.050 A 
HETATM   23  C6  UNK     1      32.789  -4.707  34.800  1.00  0.00     0.008 A 
HETATM   24  C10 UNK     1      32.871  -3.628  35.681  1.00  0.00     0.001 A 
HETATM   25  C15 UNK     1      31.976  -3.530  36.747  1.00  0.00     0.000 A 
HETATM   26  C12 UNK     1      31.001  -4.510  36.932  1.00  0.00     0.001 A 
HETATM   27  C8  UNK     1      30.921  -5.588  36.051  1.00  0.00     0.008 A 
ENDBRANCH  21  22
BRANCH  21  28
HETATM   28  C4  UNK     1      31.205  -6.400  32.677  1.00  0.00    -0.050 A 
HETATM   29  C7  UNK     1      31.706  -7.012  31.549  1.00  0.00     0.008 A 
HETATM   30  C11 UNK     1      31.227  -6.611  30.301  1.00  0.00     0.001 A 
HETATM   31  C16 UNK     1      30.262  -5.609  30.214  1.00  0.00     0.000 A 
HETATM   32  C13 UNK     1      29.773  -5.008  31.374  1.00  0.00     0.001 A 
HETATM   33  C9  UNK     1      30.251  -5.409  32.621  1.00  0.00     0.008 A 
ENDBRANCH  21  28
ENDBRANCH  20  21
ENDBRANCH  19  20
ENDBRANCH   1  19
TORSDOF 8
ENDMDL
MODEL 5
REMARK VINA RESULT:      -7.4      2.411      4.718
REMARK  8 active torsions:
REMARK  status: ('A' for Active; 'I' for Inactive)
REMARK    1  A    between atoms: C14_19  and  N1_4 
REMARK    2  A    between atoms: C5_10  and  N1_4 
REMARK    3  A    between atoms: C14_19  and  N2_5 
REMARK    4  A    between atoms: C17_22  and  N2_5 
REMARK    5  A    between atoms: C1_6  and  C2_7 
REMARK    6  A    between atoms: C1_6  and  C3_8 
REMARK    7  A    between atoms: C1_6  and  C4_9 
REMARK    8  A    between atoms: C2_7  and  C5_10 
ROOT
HETATM    1  N1  UNK     1      31.337  -4.611  36.165  1.00  0.00    -0.367 N 
HETATM    2  H10 UNK     1      31.643  -3.746  36.600  1.00  0.00     0.161 HD
ENDROOT
BRANCH   1   3
HETATM    3  C14 UNK     1      32.006  -4.992  35.009  1.00  0.00     0.172 C 
HETATM    4  S1  UNK     1      33.587  -5.528  35.189  1.00  0.00    -0.041 SA
BRANCH   3   5
HETATM    5  N2  UNK     1      31.278  -4.843  33.814  1.00  0.00    -0.333 N 
HETATM    6  H17 UNK     1      31.360  -3.929  33.383  1.00  0.00     0.168 HD
BRANCH   5   7
HETATM    7  C17 UNK     1      30.677  -5.762  32.954  1.00  0.00     0.036 A 
HETATM    8  C20 UNK     1      31.460  -6.628  32.199  1.00  0.00     0.067 A 
HETATM    9  C19 UNK     1      30.838  -7.540  31.346  1.00  0.00     0.092 A 
HETATM   10  C18 UNK     1      29.450  -7.617  31.221  1.00  0.00     0.004 A 
HETATM   11  O1  UNK     1      31.685  -8.391  30.607  1.00  0.00    -0.275 OA
HETATM   12  C21 UNK     1      28.881  -8.609  30.298  1.00  0.00    -0.043 A 
HETATM   13  C23 UNK     1      28.679  -6.737  31.990  1.00  0.00     0.017 A 
HETATM   14  C24 UNK     1      29.709  -9.405  29.608  1.00  0.00     0.090 A 
HETATM   15  C25 UNK     1      27.392  -8.717  30.141  1.00  0.00     0.049 C 
HETATM   16  C26 UNK     1      31.175  -9.336  29.729  1.00  0.00     0.288 A 
HETATM   17  O2  UNK     1      31.903 -10.081  29.082  1.00  0.00    -0.260 OA
HETATM   18  C22 UNK     1      29.288  -5.816  32.850  1.00  0.00     0.030 A 
ENDBRANCH   5   7
ENDBRANCH   3   5
ENDBRANCH   1   3
BRANCH   1  19
HETATM   19  C5  UNK     1      30.245  -5.312  36.815  1.00  0.00     0.123 C 
BRANCH  19  20
HETATM   20  C2  UNK     1      30.458  -6.827  36.851  1.00  0.00     0.034 C 
BRANCH  20  21
HETATM   21  C1  UNK     1      29.232  -7.654  36.376  1.00  0.00     0.053 C 
BRANCH  21  22
HETATM   22  C3  UNK     1      29.571  -8.682  35.304  1.00  0.00    -0.050 A 
HETATM   23  C6  UNK     1      28.542  -9.297  34.623  1.00  0.00     0.008 A 
HETATM   24  C10 UNK     1      28.851 -10.240  33.642  1.00  0.00     0.001 A 
HETATM   25  C15 UNK     1      30.183 -10.544  33.365  1.00  0.00     0.000 A 
HETATM   26  C12 UNK     1      31.206  -9.908  34.068  1.00  0.00     0.001 A 
HETATM   27  C8  UNK     1      30.896  -8.966  35.048  1.00  0.00     0.008 A 
ENDBRANCH  21  22
BRANCH  21  28
HETATM   28  C4  UNK     1      28.454  -8.290  37.525  1.00  0.00    -0.050 A 
HETATM   29  C7  UNK     1      29.051  -9.298  38.250  1.00  0.00     0.008 A 
HETATM   30  C11 UNK     1      28.340  -9.879  39.300  1.00  0.00     0.001 A 
HETATM   31  C16 UNK     1      27.052  -9.437  39.599  1.00  0.00     0.000 A 
HETATM   32  C13 UNK     1      26.474  -8.414  38.849  1.00  0.00     0.001 A 
HETATM   33  C9  UNK     1      27.184  -7.833  37.799  1.00  0.00     0.008 A 
ENDBRANCH  21  28
ENDBRANCH  20  21
ENDBRANCH  19  20
ENDBRANCH   1  19
TORSDOF 8
ENDMDL
MODEL 6
REMARK VINA RESULT:      -7.4      3.275      5.920
REMARK  8 active torsions:
REMARK  status: ('A' for Active; 'I' for Inactive)
REMARK    1  A    between atoms: C14_19  and  N1_4 
REMARK    2  A    between atoms: C5_10  and  N1_4 
REMARK    3  A    between atoms: C14_19  and  N2_5 
REMARK    4  A    between atoms: C17_22  and  N2_5 
REMARK    5  A    between atoms: C1_6  and  C2_7 
REMARK    6  A    between atoms: C1_6  and  C3_8 
REMARK    7  A    between atoms: C1_6  and  C4_9 
REMARK    8  A    between atoms: C2_7  and  C5_10 
ROOT
HETATM    1  N1  UNK     1      34.214  -6.700  34.400  1.00  0.00    -0.367 N 
HETATM    2  H10 UNK     1      33.958  -7.413  33.723  1.00  0.00     0.161 HD
ENDROOT
BRANCH   1   3
HETATM    3  C14 UNK     1      35.142  -7.070  35.365  1.00  0.00     0.172 C 
HETATM    4  S1  UNK     1      36.747  -7.158  34.880  1.00  0.00    -0.041 SA
BRANCH   3   5
HETATM    5  N2  UNK     1      34.608  -7.363  36.633  1.00  0.00    -0.333 N 
HETATM    6  H17 UNK     1      35.295  -7.415  37.377  1.00  0.00     0.168 HD
BRANCH   5   7
HETATM    7  C17 UNK     1      33.308  -7.339  37.138  1.00  0.00     0.036 A 
HETATM    8  C20 UNK     1      32.776  -6.156  37.641  1.00  0.00     0.067 A 
HETATM    9  C19 UNK     1      31.473  -6.154  38.141  1.00  0.00     0.092 A 
HETATM   10  C18 UNK     1      30.678  -7.302  38.155  1.00  0.00     0.004 A 
HETATM   11  O1  UNK     1      30.989  -4.926  38.636  1.00  0.00    -0.275 OA
HETATM   12  C21 UNK     1      29.317  -7.207  38.700  1.00  0.00    -0.043 A 
HETATM   13  C23 UNK     1      31.233  -8.482  37.644  1.00  0.00     0.017 A 
HETATM   14  C24 UNK     1      28.883  -6.027  39.164  1.00  0.00     0.090 A 
HETATM   15  C25 UNK     1      28.437  -8.423  38.730  1.00  0.00     0.049 C 
HETATM   16  C26 UNK     1      29.709  -4.808  39.156  1.00  0.00     0.288 A 
HETATM   17  O2  UNK     1      29.279  -3.745  39.589  1.00  0.00    -0.260 OA
HETATM   18  C22 UNK     1      32.538  -8.501  37.139  1.00  0.00     0.030 A 
ENDBRANCH   5   7
ENDBRANCH   3   5
ENDBRANCH   1   3
BRANCH   1  19
HETATM   19  C5  UNK     1      33.568  -5.408  34.256  1.00  0.00     0.123 C 
BRANCH  19  20
HETATM   20  C2  UNK     1      32.049  -5.523  34.111  1.00  0.00     0.034 C 
BRANCH  20  21
HETATM   21  C1  UNK     1      31.566  -6.873  33.514  1.00  0.00     0.053 C 
BRANCH  21  22
HETATM   22  C3  UNK     1      30.282  -7.393  34.148  1.00  0.00    -0.050 A 
HETATM   23  C6  UNK     1      30.033  -8.749  34.130  1.00  0.00     0.008 A 
HETATM   24  C10 UNK     1      28.857  -9.227  34.710  1.00  0.00     0.001 A 
HETATM   25  C15 UNK     1      27.958  -8.336  35.295  1.00  0.00     0.000 A 
HETATM   26  C12 UNK     1      28.233  -6.968  35.300  1.00  0.00     0.001 A 
HETATM   27  C8  UNK     1      29.409  -6.492  34.720  1.00  0.00     0.008 A 
ENDBRANCH  21  22
BRANCH  21  28
HETATM   28  C4  UNK     1      31.462  -6.853  31.991  1.00  0.00    -0.050 A 
HETATM   29  C7  UNK     1      30.460  -6.109  31.406  1.00  0.00     0.008 A 
HETATM   30  C11 UNK     1      30.365  -6.091  30.015  1.00  0.00     0.001 A 
HETATM   31  C16 UNK     1      31.273  -6.816  29.244  1.00  0.00     0.000 A 
HETATM   32  C13 UNK     1      32.277  -7.560  29.864  1.00  0.00     0.001 A 
HETATM   33  C9  UNK     1      32.372  -7.578  31.255  1.00  0.00     0.008 A 
ENDBRANCH  21  28
ENDBRANCH  20  21
ENDBRANCH  19  20
ENDBRANCH   1  19
TORSDOF 8
ENDMDL
MODEL 7
REMARK VINA RESULT:      -7.3      2.386      3.699
REMARK  8 active torsions:
REMARK  status: ('A' for Active; 'I' for Inactive)
REMARK    1  A    between atoms: C14_19  and  N1_4 
REMARK    2  A    between atoms: C5_10  and  N1_4 
REMARK    3  A    between atoms: C14_19  and  N2_5 
REMARK    4  A    between atoms: C17_22  and  N2_5 
REMARK    5  A    between atoms: C1_6  and  C2_7 
REMARK    6  A    between atoms: C1_6  and  C3_8 
REMARK    7  A    between atoms: C1_6  and  C4_9 
REMARK    8  A    between atoms: C2_7  and  C5_10 
ROOT
HETATM    1  N1  UNK     1      31.042  -4.592  36.230  1.00  0.00    -0.367 N 
HETATM    2  H10 UNK     1      31.083  -3.581  36.319  1.00  0.00     0.161 HD
ENDROOT
BRANCH   1   3
HETATM    3  C14 UNK     1      31.799  -5.153  35.209  1.00  0.00     0.172 C 
HETATM    4  S1  UNK     1      33.229  -5.913  35.655  1.00  0.00    -0.041 SA
BRANCH   3   5
HETATM    5  N2  UNK     1      31.284  -4.980  33.912  1.00  0.00    -0.333 N 
HETATM    6  H17 UNK     1      31.560  -4.114  33.462  1.00  0.00     0.168 HD
BRANCH   5   7
HETATM    7  C17 UNK     1      30.690  -5.859  33.007  1.00  0.00     0.036 A 
HETATM    8  C20 UNK     1      31.479  -6.700  32.229  1.00  0.00     0.067 A 
HETATM    9  C19 UNK     1      30.864  -7.573  31.330  1.00  0.00     0.092 A 
HETATM   10  C18 UNK     1      29.478  -7.634  31.182  1.00  0.00     0.004 A 
HETATM   11  O1  UNK     1      31.716  -8.400  30.571  1.00  0.00    -0.275 OA
HETATM   12  C21 UNK     1      28.916  -8.583  30.211  1.00  0.00    -0.043 A 
HETATM   13  C23 UNK     1      28.701  -6.779  31.974  1.00  0.00     0.017 A 
HETATM   14  C24 UNK     1      29.749  -9.358  29.503  1.00  0.00     0.090 A 
HETATM   15  C25 UNK     1      27.429  -8.673  30.027  1.00  0.00     0.049 C 
HETATM   16  C26 UNK     1      31.214  -9.305  29.648  1.00  0.00     0.288 A 
HETATM   17  O2  UNK     1      31.946 -10.029  28.983  1.00  0.00    -0.260 OA
HETATM   18  C22 UNK     1      29.303  -5.898  32.879  1.00  0.00     0.030 A 
ENDBRANCH   5   7
ENDBRANCH   3   5
ENDBRANCH   1   3
BRANCH   1  19
HETATM   19  C5  UNK     1      30.197  -5.292  37.179  1.00  0.00     0.123 C 
BRANCH  19  20
HETATM   20  C2  UNK     1      29.297  -6.333  36.508  1.00  0.00     0.034 C 
BRANCH  20  21
HETATM   21  C1  UNK     1      29.632  -7.802  36.884  1.00  0.00     0.053 C 
BRANCH  21  22
HETATM   22  C3  UNK     1      28.673  -8.402  37.905  1.00  0.00    -0.050 A 
HETATM   23  C6  UNK     1      29.073  -9.510  38.621  1.00  0.00     0.008 A 
HETATM   24  C10 UNK     1      28.195 -10.061  39.556  1.00  0.00     0.001 A 
HETATM   25  C15 UNK     1      26.939  -9.489  39.752  1.00  0.00     0.000 A 
HETATM   26  C12 UNK     1      26.559  -8.368  39.014  1.00  0.00     0.001 A 
HETATM   27  C8  UNK     1      27.437  -7.818  38.080  1.00  0.00     0.008 A 
ENDBRANCH  21  22
BRANCH  21  28
HETATM   28  C4  UNK     1      29.786  -8.713  35.669  1.00  0.00    -0.050 A 
HETATM   29  C7  UNK     1      31.054  -9.082  35.276  1.00  0.00     0.008 A 
HETATM   30  C11 UNK     1      31.195  -9.914  34.165  1.00  0.00     0.001 A 
HETATM   31  C16 UNK     1      30.066 -10.356  33.476  1.00  0.00     0.000 A 
HETATM   32  C13 UNK     1      28.795  -9.966  33.898  1.00  0.00     0.001 A 
HETATM   33  C9  UNK     1      28.654  -9.133  35.008  1.00  0.00     0.008 A 
ENDBRANCH  21  28
ENDBRANCH  20  21
ENDBRANCH  19  20
ENDBRANCH   1  19
TORSDOF 8
ENDMDL
MODEL 8
REMARK VINA RESULT:      -7.3      1.197      2.214
REMARK  8 active torsions:
REMARK  status: ('A' for Active; 'I' for Inactive)
REMARK    1  A    between atoms: C14_19  and  N1_4 
REMARK    2  A    between atoms: C5_10  and  N1_4 
REMARK    3  A    between atoms: C14_19  and  N2_5 
REMARK    4  A    between atoms: C17_22  and  N2_5 
REMARK    5  A    between atoms: C1_6  and  C2_7 
REMARK    6  A    between atoms: C1_6  and  C3_8 
REMARK    7  A    between atoms: C1_6  and  C4_9 
REMARK    8  A    between atoms: C2_7  and  C5_10 
ROOT
HETATM    1  N1  UNK     1      33.148  -8.825  36.162  1.00  0.00    -0.367 N 
HETATM    2  H10 UNK     1      34.053  -9.214  35.916  1.00  0.00     0.161 HD
ENDROOT
BRANCH   1   3
HETATM    3  C14 UNK     1      32.064  -9.692  36.095  1.00  0.00     0.172 C 
HETATM    4  S1  UNK     1      31.243  -9.993  37.528  1.00  0.00    -0.041 SA
BRANCH   3   5
HETATM    5  N2  UNK     1      31.811 -10.243  34.825  1.00  0.00    -0.333 N 
HETATM    6  H17 UNK     1      31.630 -11.240  34.828  1.00  0.00     0.168 HD
BRANCH   5   7
HETATM    7  C17 UNK     1      31.495  -9.669  33.593  1.00  0.00     0.036 A 
HETATM    8  C20 UNK     1      30.188  -9.708  33.119  1.00  0.00     0.067 A 
HETATM    9  C19 UNK     1      29.895  -9.128  31.885  1.00  0.00     0.092 A 
HETATM   10  C18 UNK     1      30.869  -8.505  31.103  1.00  0.00     0.004 A 
HETATM   11  O1  UNK     1      28.553  -9.198  31.458  1.00  0.00    -0.275 OA
HETATM   12  C21 UNK     1      30.469  -7.920  29.815  1.00  0.00    -0.043 A 
HETATM   13  C23 UNK     1      32.179  -8.477  31.598  1.00  0.00     0.017 A 
HETATM   14  C24 UNK     1      29.187  -8.001  29.435  1.00  0.00     0.090 A 
HETATM   15  C25 UNK     1      31.494  -7.244  28.951  1.00  0.00     0.049 C 
HETATM   16  C26 UNK     1      28.148  -8.655  30.248  1.00  0.00     0.288 A 
HETATM   17  O2  UNK     1      26.983  -8.710  29.868  1.00  0.00    -0.260 OA
HETATM   18  C22 UNK     1      32.490  -9.055  32.834  1.00  0.00     0.030 A 
ENDBRANCH   5   7
ENDBRANCH   3   5
ENDBRANCH   1   3
BRANCH   1  19
HETATM   19  C5  UNK     1      33.126  -7.425  36.541  1.00  0.00     0.123 C 
BRANCH  19  20
HETATM   20  C2  UNK     1      32.361  -6.556  35.538  1.00  0.00     0.034 C 
BRANCH  20  21
HETATM   21  C1  UNK     1      30.817  -6.636  35.674  1.00  0.00     0.053 C 
BRANCH  21  22
HETATM   22  C3  UNK     1      30.275  -5.902  36.894  1.00  0.00    -0.050 A 
HETATM   23  C6  UNK     1      30.595  -4.571  37.065  1.00  0.00     0.008 A 
HETATM   24  C10 UNK     1      30.100  -3.898  38.182  1.00  0.00     0.001 A 
HETATM   25  C15 UNK     1      29.297  -4.571  39.102  1.00  0.00     0.000 A 
HETATM   26  C12 UNK     1      28.989  -5.917  38.906  1.00  0.00     0.001 A 
HETATM   27  C8  UNK     1      29.484  -6.589  37.789  1.00  0.00     0.008 A 
ENDBRANCH  21  22
BRANCH  21  28
HETATM   28  C4  UNK     1      30.080  -6.217  34.404  1.00  0.00    -0.050 A 
HETATM   29  C7  UNK     1      28.744  -6.530  34.281  1.00  0.00     0.008 A 
HETATM   30  C11 UNK     1      28.071  -6.147  33.121  1.00  0.00     0.001 A 
HETATM   31  C16 UNK     1      28.750  -5.462  32.114  1.00  0.00     0.000 A 
HETATM   32  C13 UNK     1      30.102  -5.159  32.266  1.00  0.00     0.001 A 
HETATM   33  C9  UNK     1      30.776  -5.541  33.427  1.00  0.00     0.008 A 
ENDBRANCH  21  28
ENDBRANCH  20  21
ENDBRANCH  19  20
ENDBRANCH   1  19
TORSDOF 8
ENDMDL
MODEL 9
REMARK VINA RESULT:      -7.3      2.756      4.230
REMARK  8 active torsions:
REMARK  status: ('A' for Active; 'I' for Inactive)
REMARK    1  A    between atoms: C14_19  and  N1_4 
REMARK    2  A    between atoms: C5_10  and  N1_4 
REMARK    3  A    between atoms: C14_19  and  N2_5 
REMARK    4  A    between atoms: C17_22  and  N2_5 
REMARK    5  A    between atoms: C1_6  and  C2_7 
REMARK    6  A    between atoms: C1_6  and  C3_8 
REMARK    7  A    between atoms: C1_6  and  C4_9 
REMARK    8  A    between atoms: C2_7  and  C5_10 
ROOT
HETATM    1  N1  UNK     1      30.969  -4.612  36.269  1.00  0.00    -0.367 N 
HETATM    2  H10 UNK     1      30.781  -3.619  36.358  1.00  0.00     0.161 HD
ENDROOT
BRANCH   1   3
HETATM    3  C14 UNK     1      31.919  -4.978  35.323  1.00  0.00     0.172 C 
HETATM    4  S1  UNK     1      33.427  -5.439  35.902  1.00  0.00    -0.041 SA
BRANCH   3   5
HETATM    5  N2  UNK     1      31.504  -4.880  33.983  1.00  0.00    -0.333 N 
HETATM    6  H17 UNK     1      31.911  -4.103  33.473  1.00  0.00     0.168 HD
BRANCH   5   7
HETATM    7  C17 UNK     1      30.858  -5.772  33.127  1.00  0.00     0.036 A 
HETATM    8  C20 UNK     1      29.541  -5.541  32.742  1.00  0.00     0.067 A 
HETATM    9  C19 UNK     1      28.914  -6.446  31.885  1.00  0.00     0.092 A 
HETATM   10  C18 UNK     1      29.563  -7.581  31.395  1.00  0.00     0.004 A 
HETATM   11  O1  UNK     1      27.581  -6.159  31.530  1.00  0.00    -0.275 OA
HETATM   12  C21 UNK     1      28.826  -8.480  30.496  1.00  0.00    -0.043 A 
HETATM   13  C23 UNK     1      30.889  -7.795  31.795  1.00  0.00     0.017 A 
HETATM   14  C24 UNK     1      27.559  -8.182  30.176  1.00  0.00     0.090 A 
HETATM   15  C25 UNK     1      29.495  -9.709  29.953  1.00  0.00     0.049 C 
HETATM   16  C26 UNK     1      26.861  -6.989  30.684  1.00  0.00     0.288 A 
HETATM   17  O2  UNK     1      25.701  -6.748  30.370  1.00  0.00    -0.260 OA
HETATM   18  C22 UNK     1      31.531  -6.897  32.654  1.00  0.00     0.030 A 
ENDBRANCH   5   7
ENDBRANCH   3   5
ENDBRANCH   1   3
BRANCH   1  19
HETATM   19  C5  UNK     1      30.215  -5.496  37.138  1.00  0.00     0.123 C 
BRANCH  19  20
HETATM   20  C2  UNK     1      29.414  -6.543  36.361  1.00  0.00     0.034 C 
BRANCH  20  21
HETATM   21  C1  UNK     1      29.664  -8.005  36.819  1.00  0.00     0.053 C 
BRANCH  21  22
HETATM   22  C3  UNK     1      28.657  -8.500  37.849  1.00  0.00    -0.050 A 
HETATM   23  C6  UNK     1      27.449  -7.846  37.965  1.00  0.00     0.008 A 
HETATM   24  C10 UNK     1      26.526  -8.298  38.909  1.00  0.00     0.001 A 
HETATM   25  C15 UNK     1      26.833  -9.395  39.714  1.00  0.00     0.000 A 
HETATM   26  C12 UNK     1      28.062 -10.039  39.576  1.00  0.00     0.001 A 
HETATM   27  C8  UNK     1      28.984  -9.586  38.633  1.00  0.00     0.008 A 
ENDBRANCH  21  22
BRANCH  21  28
HETATM   28  C4  UNK     1      29.792  -8.986  35.655  1.00  0.00    -0.050 A 
HETATM   29  C7  UNK     1      31.013  -9.580  35.422  1.00  0.00     0.008 A 
HETATM   30  C11 UNK     1      31.130 -10.476  34.359  1.00  0.00     0.001 A 
HETATM   31  C16 UNK     1      30.024 -10.754  33.556  1.00  0.00     0.000 A 
HETATM   32  C13 UNK     1      28.800 -10.137  33.816  1.00  0.00     0.001 A 
HETATM   33  C9  UNK     1      28.683  -9.241  34.879  1.00  0.00     0.008 A 
ENDBRANCH  21  28
ENDBRANCH  20  21
ENDBRANCH  19  20
ENDBRANCH   1  19
TORSDOF 8
ENDMDL
MODEL 10
REMARK VINA RESULT:      -7.3     11.355     13.338
REMARK  8 active torsions:
REMARK  status: ('A' for Active; 'I' for Inactive)
REMARK    1  A    between atoms: C14_19  and  N1_4 
REMARK    2  A    between atoms: C5_10  and  N1_4 
REMARK    3  A    between atoms: C14_19  and  N2_5 
REMARK    4  A    between atoms: C17_22  and  N2_5 
REMARK    5  A    between atoms: C1_6  and  C2_7 
REMARK    6  A    between atoms: C1_6  and  C3_8 
REMARK    7  A    between atoms: C1_6  and  C4_9 
REMARK    8  A    between atoms: C2_7  and  C5_10 
ROOT
HETATM    1  N1  UNK     1      19.381  -2.659  35.357  1.00  0.00    -0.367 N 
HETATM    2  H10 UNK     1      18.624  -2.112  35.756  1.00  0.00     0.161 HD
ENDROOT
BRANCH   1   3
HETATM    3  C14 UNK     1      19.800  -3.762  36.091  1.00  0.00     0.172 C 
HETATM    4  S1  UNK     1      20.708  -3.456  37.470  1.00  0.00    -0.041 SA
BRANCH   3   5
HETATM    5  N2  UNK     1      19.437  -5.012  35.558  1.00  0.00    -0.333 N 
HETATM    6  H17 UNK     1      19.168  -4.991  34.580  1.00  0.00     0.168 HD
BRANCH   5   7
HETATM    7  C17 UNK     1      19.619  -6.319  36.010  1.00  0.00     0.036 A 
HETATM    8  C20 UNK     1      20.547  -7.150  35.391  1.00  0.00     0.067 A 
HETATM    9  C19 UNK     1      20.713  -8.454  35.860  1.00  0.00     0.092 A 
HETATM   10  C18 UNK     1      19.978  -8.959  36.934  1.00  0.00     0.004 A 
HETATM   11  O1  UNK     1      21.668  -9.247  35.193  1.00  0.00    -0.275 OA
HETATM   12  C21 UNK     1      20.218 -10.345  37.361  1.00  0.00    -0.043 A 
HETATM   13  C23 UNK     1      19.048  -8.106  37.543  1.00  0.00     0.017 A 
HETATM   14  C24 UNK     1      21.132 -11.076  36.709  1.00  0.00     0.090 A 
HETATM   15  C25 UNK     1      19.444 -10.918  38.511  1.00  0.00     0.049 C 
HETATM   16  C26 UNK     1      21.916 -10.557  35.574  1.00  0.00     0.288 A 
HETATM   17  O2  UNK     1      22.745 -11.256  35.001  1.00  0.00    -0.260 OA
HETATM   18  C22 UNK     1      18.870  -6.797  37.084  1.00  0.00     0.030 A 
ENDBRANCH   5   7
ENDBRANCH   3   5
ENDBRANCH   1   3
BRANCH   1  19
HETATM   19  C5  UNK     1      19.911  -2.201  34.086  1.00  0.00     0.123 C 
BRANCH  19  20
HETATM   20  C2  UNK     1      18.909  -1.349  33.303  1.00  0.00     0.034 C 
BRANCH  20  21
HETATM   21  C1  UNK     1      18.868   0.142  33.732  1.00  0.00     0.053 C 
BRANCH  21  22
HETATM   22  C3  UNK     1      18.716   1.106  32.562  1.00  0.00    -0.050 A 
HETATM   23  C6  UNK     1      18.233   2.375  32.805  1.00  0.00     0.008 A 
HETATM   24  C10 UNK     1      18.093   3.259  31.734  1.00  0.00     0.001 A 
HETATM   25  C15 UNK     1      18.440   2.852  30.446  1.00  0.00     0.000 A 
HETATM   26  C12 UNK     1      18.926   1.563  30.227  1.00  0.00     0.001 A 
HETATM   27  C8  UNK     1      19.065   0.681  31.298  1.00  0.00     0.008 A 
ENDBRANCH  21  22
BRANCH  21  28
HETATM   28  C4  UNK     1      17.836   0.426  34.820  1.00  0.00    -0.050 A 
HETATM   29  C7  UNK     1      16.553  -0.047  34.655  1.00  0.00     0.008 A 
HETATM   30  C11 UNK     1      15.609   0.213  35.650  1.00  0.00     0.001 A 
HETATM   31  C16 UNK     1      15.973   0.939  36.783  1.00  0.00     0.000 A 
HETATM   32  C13 UNK     1      17.280   1.405  36.923  1.00  0.00     0.001 A 
HETATM   33  C9  UNK     1      18.223   1.146  35.929  1.00  0.00     0.008 A 
ENDBRANCH  21  28
ENDBRANCH  20  21
ENDBRANCH  19  20
ENDBRANCH   1  19
TORSDOF 8
ENDMDL
