MODEL 1
REMARK VINA RESULT:      -9.9      0.000      0.000
REMARK  4 active torsions:
REMARK  status: ('A' for Active; 'I' for Inactive)
REMARK    1  A    between atoms: C5_16  and  N1_10 
REMARK       I    between atoms: C7_18  and  N1_10 
REMARK    2  A    between atoms: C11_22  and  N2_11 
REMARK    3  A    between atoms: C3_14  and  C7_18 
REMARK    4  A    between atoms: C17_28  and  C8_19 
ROOT
HETATM    1  O2  UNK     1      17.883   3.266  32.859  1.00  0.00    -0.267 OA
HETATM    2  N1  UNK     1      18.599   4.015  30.744  1.00  0.00    -0.323 N 
HETATM    3  C7  UNK     1      18.238   4.148  32.078  1.00  0.00     0.262 C 
HETATM    4  H4  UNK     1      18.850   4.854  30.226  1.00  0.00     0.169 HD
ENDROOT
BRANCH   3   5
HETATM    5  C3  UNK     1      18.316   5.540  32.538  1.00  0.00     0.108 A 
HETATM    6  C12 UNK     1      19.578   6.312  32.493  1.00  0.00     0.304 A 
HETATM    7  O1  UNK     1      19.526   7.623  32.958  1.00  0.00    -0.274 OA
HETATM    8  O3  UNK     1      20.621   5.825  32.070  1.00  0.00    -0.259 OA
HETATM    9  C2  UNK     1      18.333   8.191  33.447  1.00  0.00     0.089 A 
HETATM   10  C1  UNK     1      17.157   7.447  33.480  1.00  0.00     0.001 A 
HETATM   11  C10 UNK     1      18.378   9.511  33.890  1.00  0.00     0.041 A 
HETATM   12  C6  UNK     1      15.995   8.045  33.973  1.00  0.00     0.050 A 
HETATM   13  C4  UNK     1      17.181   6.073  33.002  1.00  0.00     0.037 A 
HETATM   14  C11 UNK     1      16.025   9.368  34.422  1.00  0.00     0.103 A 
HETATM   15  C13 UNK     1      17.215  10.100  34.380  1.00  0.00     0.039 A 
BRANCH  14  16
HETATM   16  N2  UNK     1      14.842   9.973  34.922  1.00  0.00    -0.116 N 
HETATM   17  O4  UNK     1      14.866  10.512  36.055  1.00  0.00    -0.532 OA
HETATM   18  O5  UNK     1      13.805   9.953  34.216  1.00  0.00    -0.532 OA
ENDBRANCH  14  16
ENDBRANCH   3   5
BRANCH   2  19
HETATM   19  C5  UNK     1      18.643   2.827  29.974  1.00  0.00     0.035 A 
HETATM   20  C14 UNK     1      17.831   2.716  28.858  1.00  0.00     0.031 A 
HETATM   21  C16 UNK     1      17.875   1.547  28.098  1.00  0.00     0.027 A 
HETATM   22  C15 UNK     1      18.729   0.507  28.466  1.00  0.00     0.049 A 
HETATM   23  C8  UNK     1      19.541   0.637  29.593  1.00  0.00     0.071 A 
HETATM   24 Cl1  UNK     1      18.755  -0.925  27.502  1.00  0.00    -0.083 Cl
HETATM   25  C9  UNK     1      19.497   1.806  30.353  1.00  0.00     0.047 A 
BRANCH  23  26
HETATM   26  C17 UNK     1      20.469  -0.453  30.021  1.00  0.00     0.419 C 
HETATM   27  F1  UNK     1      21.240  -0.121  31.097  1.00  0.00    -0.166 F 
HETATM   28  F2  UNK     1      19.828  -1.604  30.379  1.00  0.00    -0.166 F 
HETATM   29  F3  UNK     1      21.344  -0.809  29.038  1.00  0.00    -0.166 F 
ENDBRANCH  23  26
ENDBRANCH   2  19
TORSDOF 4
ENDMDL
MODEL 2
REMARK VINA RESULT:      -9.7      5.188      9.625
REMARK  4 active torsions:
REMARK  status: ('A' for Active; 'I' for Inactive)
REMARK    1  A    between atoms: C5_16  and  N1_10 
REMARK       I    between atoms: C7_18  and  N1_10 
REMARK    2  A    between atoms: C11_22  and  N2_11 
REMARK    3  A    between atoms: C3_14  and  C7_18 
REMARK    4  A    between atoms: C17_28  and  C8_19 
ROOT
HETATM    1  O2  UNK     1      17.537   3.020  32.900  1.00  0.00    -0.267 OA
HETATM    2  N1  UNK     1      18.708   4.511  31.504  1.00  0.00    -0.323 N 
HETATM    3  C7  UNK     1      18.258   3.270  31.936  1.00  0.00     0.262 C 
HETATM    4  H4  UNK     1      19.322   4.546  30.693  1.00  0.00     0.169 HD
ENDROOT
BRANCH   3   5
HETATM    5  C3  UNK     1      18.745   2.177  31.086  1.00  0.00     0.108 A 
HETATM    6  C12 UNK     1      18.739   2.269  29.608  1.00  0.00     0.304 A 
HETATM    7  O1  UNK     1      19.225   1.166  28.912  1.00  0.00    -0.274 OA
HETATM    8  O3  UNK     1      18.325   3.263  29.022  1.00  0.00    -0.259 OA
HETATM    9  C2  UNK     1      19.701   0.018  29.576  1.00  0.00     0.089 A 
HETATM   10  C1  UNK     1      19.698  -0.047  30.966  1.00  0.00     0.001 A 
HETATM   11  C10 UNK     1      20.169  -1.035  28.793  1.00  0.00     0.041 A 
HETATM   12  C6  UNK     1      20.178  -1.202  31.587  1.00  0.00     0.050 A 
HETATM   13  C4  UNK     1      19.195   1.090  31.722  1.00  0.00     0.037 A 
HETATM   14  C11 UNK     1      20.650  -2.267  30.816  1.00  0.00     0.103 A 
HETATM   15  C13 UNK     1      20.646  -2.183  29.421  1.00  0.00     0.039 A 
BRANCH  14  16
HETATM   16  N2  UNK     1      21.137  -3.440  31.451  1.00  0.00    -0.116 N 
HETATM   17  O4  UNK     1      21.552  -4.388  30.741  1.00  0.00    -0.532 OA
HETATM   18  O5  UNK     1      21.140  -3.496  32.704  1.00  0.00    -0.532 OA
ENDBRANCH  14  16
ENDBRANCH   3   5
BRANCH   2  19
HETATM   19  C5  UNK     1      18.436   5.777  32.077  1.00  0.00     0.035 A 
HETATM   20  C14 UNK     1      19.465   6.478  32.682  1.00  0.00     0.031 A 
HETATM   21  C16 UNK     1      19.199   7.727  33.246  1.00  0.00     0.027 A 
HETATM   22  C15 UNK     1      17.909   8.254  33.195  1.00  0.00     0.049 A 
HETATM   23  C8  UNK     1      16.884   7.533  32.581  1.00  0.00     0.071 A 
HETATM   24 Cl1  UNK     1      17.616   9.800  33.904  1.00  0.00    -0.083 Cl
HETATM   25  C9  UNK     1      17.150   6.285  32.017  1.00  0.00     0.047 A 
BRANCH  23  26
HETATM   26  C17 UNK     1      15.489   8.063  32.506  1.00  0.00     0.419 C 
HETATM   27  F1  UNK     1      14.905   8.232  33.728  1.00  0.00    -0.166 F 
HETATM   28  F2  UNK     1      15.400   9.279  31.894  1.00  0.00    -0.166 F 
HETATM   29  F3  UNK     1      14.654   7.238  31.811  1.00  0.00    -0.166 F 
ENDBRANCH  23  26
ENDBRANCH   2  19
TORSDOF 4
ENDMDL
MODEL 3
REMARK VINA RESULT:      -9.6      8.676     10.664
REMARK  4 active torsions:
REMARK  status: ('A' for Active; 'I' for Inactive)
REMARK    1  A    between atoms: C5_16  and  N1_10 
REMARK       I    between atoms: C7_18  and  N1_10 
REMARK    2  A    between atoms: C11_22  and  N2_11 
REMARK    3  A    between atoms: C3_14  and  C7_18 
REMARK    4  A    between atoms: C17_28  and  C8_19 
ROOT
HETATM    1  O2  UNK     1      21.278  -4.157  37.050  1.00  0.00    -0.267 OA
HETATM    2  N1  UNK     1      19.827  -5.421  35.693  1.00  0.00    -0.323 N 
HETATM    3  C7  UNK     1      20.384  -4.260  36.212  1.00  0.00     0.262 C 
HETATM    4  H4  UNK     1      19.073  -5.334  35.016  1.00  0.00     0.169 HD
ENDROOT
BRANCH   3   5
HETATM    5  C3  UNK     1      19.778  -3.051  35.641  1.00  0.00     0.108 A 
HETATM    6  C12 UNK     1      20.166  -2.533  34.309  1.00  0.00     0.304 A 
HETATM    7  O1  UNK     1      19.521  -1.377  33.877  1.00  0.00    -0.274 OA
HETATM    8  O3  UNK     1      21.014  -3.088  33.619  1.00  0.00    -0.259 OA
HETATM    9  C2  UNK     1      18.547  -0.731  34.663  1.00  0.00     0.089 A 
HETATM   10  C1  UNK     1      18.198  -1.235  35.912  1.00  0.00     0.001 A 
HETATM   11  C10 UNK     1      17.956   0.419  34.145  1.00  0.00     0.041 A 
HETATM   12  C6  UNK     1      17.228  -0.566  36.661  1.00  0.00     0.050 A 
HETATM   13  C4  UNK     1      18.854  -2.441  36.392  1.00  0.00     0.037 A 
HETATM   14  C11 UNK     1      16.626   0.590  36.155  1.00  0.00     0.103 A 
HETATM   15  C13 UNK     1      16.989   1.081  34.898  1.00  0.00     0.039 A 
BRANCH  14  16
HETATM   16  N2  UNK     1      15.641   1.268  36.920  1.00  0.00    -0.116 N 
HETATM   17  O4  UNK     1      16.008   2.064  37.817  1.00  0.00    -0.532 OA
HETATM   18  O5  UNK     1      14.429   1.053  36.676  1.00  0.00    -0.532 OA
ENDBRANCH  14  16
ENDBRANCH   3   5
BRANCH   2  19
HETATM   19  C5  UNK     1      20.165  -6.759  36.011  1.00  0.00     0.035 A 
HETATM   20  C14 UNK     1      20.681  -7.578  35.021  1.00  0.00     0.031 A 
HETATM   21  C16 UNK     1      21.016  -8.896  35.334  1.00  0.00     0.027 A 
HETATM   22  C15 UNK     1      20.831  -9.373  36.631  1.00  0.00     0.049 A 
HETATM   23  C8  UNK     1      20.311  -8.533  37.616  1.00  0.00     0.071 A 
HETATM   24 Cl1  UNK     1      21.255 -11.010  36.981  1.00  0.00    -0.083 Cl
HETATM   25  C9  UNK     1      19.976  -7.216  37.304  1.00  0.00     0.047 A 
BRANCH  23  26
HETATM   26  C17 UNK     1      20.096  -9.007  39.017  1.00  0.00     0.419 C 
HETATM   27  F1  UNK     1      19.220 -10.049  39.112  1.00  0.00    -0.166 F 
HETATM   28  F2  UNK     1      21.238  -9.441  39.626  1.00  0.00    -0.166 F 
HETATM   29  F3  UNK     1      19.595  -8.031  39.827  1.00  0.00    -0.166 F 
ENDBRANCH  23  26
ENDBRANCH   2  19
TORSDOF 4
ENDMDL
MODEL 4
REMARK VINA RESULT:      -9.5     15.380     17.323
REMARK  4 active torsions:
REMARK  status: ('A' for Active; 'I' for Inactive)
REMARK    1  A    between atoms: C5_16  and  N1_10 
REMARK       I    between atoms: C7_18  and  N1_10 
REMARK    2  A    between atoms: C11_22  and  N2_11 
REMARK    3  A    between atoms: C3_14  and  C7_18 
REMARK    4  A    between atoms: C17_28  and  C8_19 
ROOT
HETATM    1  O2  UNK     1      26.188  -9.168  38.930  1.00  0.00    -0.267 OA
HETATM    2  N1  UNK     1      24.690  -7.386  38.575  1.00  0.00    -0.323 N 
HETATM    3  C7  UNK     1      25.934  -7.979  38.742  1.00  0.00     0.262 C 
HETATM    4  H4  UNK     1      24.649  -6.377  38.449  1.00  0.00     0.169 HD
ENDROOT
BRANCH   3   5
HETATM    5  C3  UNK     1      27.027  -7.002  38.673  1.00  0.00     0.108 A 
HETATM    6  C12 UNK     1      26.789  -5.547  38.802  1.00  0.00     0.304 A 
HETATM    7  O1  UNK     1      27.907  -4.722  38.719  1.00  0.00    -0.274 OA
HETATM    8  O3  UNK     1      25.666  -5.086  38.972  1.00  0.00    -0.259 OA
HETATM    9  C2  UNK     1      29.202  -5.241  38.523  1.00  0.00     0.089 A 
HETATM   10  C1  UNK     1      29.403  -6.613  38.404  1.00  0.00     0.001 A 
HETATM   11  C10 UNK     1      30.259  -4.336  38.453  1.00  0.00     0.041 A 
HETATM   12  C6  UNK     1      30.702  -7.088  38.210  1.00  0.00     0.050 A 
HETATM   13  C4  UNK     1      28.254  -7.501  38.487  1.00  0.00     0.037 A 
HETATM   14  C11 UNK     1      31.772  -6.193  38.138  1.00  0.00     0.103 A 
HETATM   15  C13 UNK     1      31.550  -4.819  38.260  1.00  0.00     0.039 A 
BRANCH  14  16
HETATM   16  N2  UNK     1      33.091  -6.680  37.940  1.00  0.00    -0.116 N 
HETATM   17  O4  UNK     1      33.266  -7.911  37.770  1.00  0.00    -0.532 OA
HETATM   18  O5  UNK     1      34.046  -5.866  37.940  1.00  0.00    -0.532 OA
ENDBRANCH  14  16
ENDBRANCH   3   5
BRANCH   2  19
HETATM   19  C5  UNK     1      23.423  -8.019  38.580  1.00  0.00     0.035 A 
HETATM   20  C14 UNK     1      22.706  -8.084  39.763  1.00  0.00     0.031 A 
HETATM   21  C16 UNK     1      21.457  -8.705  39.769  1.00  0.00     0.027 A 
HETATM   22  C15 UNK     1      20.944  -9.251  38.592  1.00  0.00     0.049 A 
HETATM   23  C8  UNK     1      21.679  -9.176  37.410  1.00  0.00     0.071 A 
HETATM   24 Cl1  UNK     1      19.395 -10.013  38.638  1.00  0.00    -0.083 Cl
HETATM   25  C9  UNK     1      22.928  -8.554  37.403  1.00  0.00     0.047 A 
BRANCH  23  26
HETATM   26  C17 UNK     1      21.165  -9.749  36.129  1.00  0.00     0.419 C 
HETATM   27  F1  UNK     1      22.040  -9.625  35.088  1.00  0.00    -0.166 F 
HETATM   28  F2  UNK     1      20.882 -11.081  36.204  1.00  0.00    -0.166 F 
HETATM   29  F3  UNK     1      20.013  -9.149  35.714  1.00  0.00    -0.166 F 
ENDBRANCH  23  26
ENDBRANCH   2  19
TORSDOF 4
ENDMDL
MODEL 5
REMARK VINA RESULT:      -9.4      7.901     10.925
REMARK  4 active torsions:
REMARK  status: ('A' for Active; 'I' for Inactive)
REMARK    1  A    between atoms: C5_16  and  N1_10 
REMARK       I    between atoms: C7_18  and  N1_10 
REMARK    2  A    between atoms: C11_22  and  N2_11 
REMARK    3  A    between atoms: C3_14  and  C7_18 
REMARK    4  A    between atoms: C17_28  and  C8_19 
ROOT
HETATM    1  O2  UNK     1      21.122  -3.256  36.503  1.00  0.00    -0.267 OA
HETATM    2  N1  UNK     1      19.854  -4.732  35.178  1.00  0.00    -0.323 N 
HETATM    3  C7  UNK     1      20.374  -3.502  35.560  1.00  0.00     0.262 C 
HETATM    4  H4  UNK     1      19.226  -4.763  34.378  1.00  0.00     0.169 HD
ENDROOT
BRANCH   3   5
HETATM    5  C3  UNK     1      19.929  -2.415  34.679  1.00  0.00     0.108 A 
HETATM    6  C12 UNK     1      19.117  -1.282  35.178  1.00  0.00     0.304 A 
HETATM    7  O1  UNK     1      18.756  -0.314  34.246  1.00  0.00    -0.274 OA
HETATM    8  O3  UNK     1      18.776  -1.198  36.353  1.00  0.00    -0.259 OA
HETATM    9  C2  UNK     1      19.142  -0.403  32.894  1.00  0.00     0.089 A 
HETATM   10  C1  UNK     1      19.906  -1.476  32.446  1.00  0.00     0.001 A 
HETATM   11  C10 UNK     1      18.734   0.616  32.036  1.00  0.00     0.041 A 
HETATM   12  C6  UNK     1      20.268  -1.528  31.098  1.00  0.00     0.050 A 
HETATM   13  C4  UNK     1      20.299  -2.505  33.397  1.00  0.00     0.037 A 
HETATM   14  C11 UNK     1      19.865  -0.515  30.225  1.00  0.00     0.103 A 
HETATM   15  C13 UNK     1      19.100   0.556  30.694  1.00  0.00     0.039 A 
BRANCH  14  16
HETATM   16  N2  UNK     1      20.236  -0.572  28.855  1.00  0.00    -0.116 N 
HETATM   17  O4  UNK     1      19.348  -0.439  27.979  1.00  0.00    -0.532 OA
HETATM   18  O5  UNK     1      21.442  -0.752  28.559  1.00  0.00    -0.532 OA
ENDBRANCH  14  16
ENDBRANCH   3   5
BRANCH   2  19
HETATM   19  C5  UNK     1      20.070  -5.990  35.792  1.00  0.00     0.035 A 
HETATM   20  C14 UNK     1      20.297  -7.099  34.995  1.00  0.00     0.031 A 
HETATM   21  C16 UNK     1      20.512  -8.339  35.599  1.00  0.00     0.027 A 
HETATM   22  C15 UNK     1      20.497  -8.449  36.990  1.00  0.00     0.049 A 
HETATM   23  C8  UNK     1      20.267  -7.320  37.776  1.00  0.00     0.071 A 
HETATM   24 Cl1  UNK     1      20.765  -9.999  37.701  1.00  0.00    -0.083 Cl
HETATM   25  C9  UNK     1      20.052  -6.081  37.173  1.00  0.00     0.047 A 
BRANCH  23  26
HETATM   26  C17 UNK     1      20.242  -7.397  39.269  1.00  0.00     0.419 C 
HETATM   27  F1  UNK     1      19.446  -8.397  39.749  1.00  0.00    -0.166 F 
HETATM   28  F2  UNK     1      21.469  -7.615  39.823  1.00  0.00    -0.166 F 
HETATM   29  F3  UNK     1      19.777  -6.250  39.842  1.00  0.00    -0.166 F 
ENDBRANCH  23  26
ENDBRANCH   2  19
TORSDOF 4
ENDMDL
MODEL 6
REMARK VINA RESULT:      -9.4      7.243     10.244
REMARK  4 active torsions:
REMARK  status: ('A' for Active; 'I' for Inactive)
REMARK    1  A    between atoms: C5_16  and  N1_10 
REMARK       I    between atoms: C7_18  and  N1_10 
REMARK    2  A    between atoms: C11_22  and  N2_11 
REMARK    3  A    between atoms: C3_14  and  C7_18 
REMARK    4  A    between atoms: C17_28  and  C8_19 
ROOT
HETATM    1  O2  UNK     1      20.881  -1.921  35.186  1.00  0.00    -0.267 OA
HETATM    2  N1  UNK     1      20.166  -4.073  34.553  1.00  0.00    -0.323 N 
HETATM    3  C7  UNK     1      20.526  -2.748  34.348  1.00  0.00     0.262 C 
HETATM    4  H4  UNK     1      19.873  -4.623  33.749  1.00  0.00     0.169 HD
ENDROOT
BRANCH   3   5
HETATM    5  C3  UNK     1      20.445  -2.363  32.934  1.00  0.00     0.108 A 
HETATM    6  C12 UNK     1      20.957  -3.236  31.853  1.00  0.00     0.304 A 
HETATM    7  O1  UNK     1      20.824  -2.761  30.551  1.00  0.00    -0.274 OA
HETATM    8  O3  UNK     1      21.473  -4.323  32.087  1.00  0.00    -0.259 OA
HETATM    9  C2  UNK     1      20.234  -1.513  30.271  1.00  0.00     0.089 A 
HETATM   10  C1  UNK     1      19.760  -0.708  31.303  1.00  0.00     0.001 A 
HETATM   11  C10 UNK     1      20.145  -1.123  28.937  1.00  0.00     0.041 A 
HETATM   12  C6  UNK     1      19.181   0.522  30.985  1.00  0.00     0.050 A 
HETATM   13  C4  UNK     1      19.884  -1.177  32.675  1.00  0.00     0.037 A 
HETATM   14  C11 UNK     1      19.086   0.928  29.652  1.00  0.00     0.103 A 
HETATM   15  C13 UNK     1      19.566   0.106  28.629  1.00  0.00     0.039 A 
BRANCH  14  16
HETATM   16  N2  UNK     1      18.497   2.180  29.332  1.00  0.00    -0.116 N 
HETATM   17  O4  UNK     1      18.541   3.106  30.177  1.00  0.00    -0.532 OA
HETATM   18  O5  UNK     1      17.949   2.326  28.212  1.00  0.00    -0.532 OA
ENDBRANCH  14  16
ENDBRANCH   3   5
BRANCH   2  19
HETATM   19  C5  UNK     1      20.129  -4.779  35.780  1.00  0.00     0.035 A 
HETATM   20  C14 UNK     1      20.566  -4.151  36.934  1.00  0.00     0.031 A 
HETATM   21  C16 UNK     1      20.528  -4.846  38.143  1.00  0.00     0.027 A 
HETATM   22  C15 UNK     1      20.053  -6.157  38.180  1.00  0.00     0.049 A 
HETATM   23  C8  UNK     1      19.617  -6.774  37.007  1.00  0.00     0.071 A 
HETATM   24 Cl1  UNK     1      20.022  -6.985  39.694  1.00  0.00    -0.083 Cl
HETATM   25  C9  UNK     1      19.655  -6.080  35.798  1.00  0.00     0.047 A 
BRANCH  23  26
HETATM   26  C17 UNK     1      19.103  -8.177  37.004  1.00  0.00     0.419 C 
HETATM   27  F1  UNK     1      18.249  -8.442  35.972  1.00  0.00    -0.166 F 
HETATM   28  F2  UNK     1      20.087  -9.117  36.907  1.00  0.00    -0.166 F 
HETATM   29  F3  UNK     1      18.412  -8.482  38.139  1.00  0.00    -0.166 F 
ENDBRANCH  23  26
ENDBRANCH   2  19
TORSDOF 4
ENDMDL
MODEL 7
REMARK VINA RESULT:      -9.4     15.532     17.293
REMARK  4 active torsions:
REMARK  status: ('A' for Active; 'I' for Inactive)
REMARK    1  A    between atoms: C5_16  and  N1_10 
REMARK       I    between atoms: C7_18  and  N1_10 
REMARK    2  A    between atoms: C11_22  and  N2_11 
REMARK    3  A    between atoms: C3_14  and  C7_18 
REMARK    4  A    between atoms: C17_28  and  C8_19 
ROOT
HETATM    1  O2  UNK     1      25.785  -9.106  39.474  1.00  0.00    -0.267 OA
HETATM    2  N1  UNK     1      24.593  -7.832  37.893  1.00  0.00    -0.323 N 
HETATM    3  C7  UNK     1      25.654  -8.131  38.737  1.00  0.00     0.262 C 
HETATM    4  H4  UNK     1      24.629  -6.966  37.360  1.00  0.00     0.169 HD
ENDROOT
BRANCH   3   5
HETATM    5  C3  UNK     1      26.708  -7.110  38.684  1.00  0.00     0.108 A 
HETATM    6  C12 UNK     1      26.407  -5.665  38.788  1.00  0.00     0.304 A 
HETATM    7  O1  UNK     1      27.492  -4.795  38.724  1.00  0.00    -0.274 OA
HETATM    8  O3  UNK     1      25.262  -5.249  38.923  1.00  0.00    -0.259 OA
HETATM    9  C2  UNK     1      28.812  -5.262  38.567  1.00  0.00     0.089 A 
HETATM   10  C1  UNK     1      29.072  -6.626  38.472  1.00  0.00     0.001 A 
HETATM   11  C10 UNK     1      29.832  -4.315  38.514  1.00  0.00     0.041 A 
HETATM   12  C6  UNK     1      30.394  -7.050  38.317  1.00  0.00     0.050 A 
HETATM   13  C4  UNK     1      27.959  -7.560  38.535  1.00  0.00     0.037 A 
HETATM   14  C11 UNK     1      31.428  -6.112  38.261  1.00  0.00     0.103 A 
HETATM   15  C13 UNK     1      31.147  -4.747  38.360  1.00  0.00     0.039 A 
BRANCH  14  16
HETATM   16  N2  UNK     1      32.770  -6.547  38.104  1.00  0.00    -0.116 N 
HETATM   17  O4  UNK     1      33.011  -7.777  38.066  1.00  0.00    -0.532 OA
HETATM   18  O5  UNK     1      33.680  -5.687  38.006  1.00  0.00    -0.532 OA
ENDBRANCH  14  16
ENDBRANCH   3   5
BRANCH   2  19
HETATM   19  C5  UNK     1      23.412  -8.587  37.688  1.00  0.00     0.035 A 
HETATM   20  C14 UNK     1      23.388  -9.543  36.686  1.00  0.00     0.031 A 
HETATM   21  C16 UNK     1      22.226 -10.289  36.484  1.00  0.00     0.027 A 
HETATM   22  C15 UNK     1      21.107 -10.067  37.288  1.00  0.00     0.049 A 
HETATM   23  C8  UNK     1      21.150  -9.101  38.293  1.00  0.00     0.071 A 
HETATM   24 Cl1  UNK     1      19.687 -11.008  37.008  1.00  0.00    -0.083 Cl
HETATM   25  C9  UNK     1      22.311  -8.355  38.494  1.00  0.00     0.047 A 
BRANCH  23  26
HETATM   26  C17 UNK     1      19.973  -8.833  39.173  1.00  0.00     0.419 C 
HETATM   27  F1  UNK     1      20.151  -7.772  40.013  1.00  0.00    -0.166 F 
HETATM   28  F2  UNK     1      18.829  -8.557  38.483  1.00  0.00    -0.166 F 
HETATM   29  F3  UNK     1      19.671  -9.892  39.978  1.00  0.00    -0.166 F 
ENDBRANCH  23  26
ENDBRANCH   2  19
TORSDOF 4
ENDMDL
MODEL 8
REMARK VINA RESULT:      -9.3      8.515     10.461
REMARK  4 active torsions:
REMARK  status: ('A' for Active; 'I' for Inactive)
REMARK    1  A    between atoms: C5_16  and  N1_10 
REMARK       I    between atoms: C7_18  and  N1_10 
REMARK    2  A    between atoms: C11_22  and  N2_11 
REMARK    3  A    between atoms: C3_14  and  C7_18 
REMARK    4  A    between atoms: C17_28  and  C8_19 
ROOT
HETATM    1  O2  UNK     1      21.240  -4.366  37.001  1.00  0.00    -0.267 OA
HETATM    2  N1  UNK     1      19.356  -5.457  36.104  1.00  0.00    -0.323 N 
HETATM    3  C7  UNK     1      20.184  -4.375  36.373  1.00  0.00     0.262 C 
HETATM    4  H4  UNK     1      18.498  -5.291  35.583  1.00  0.00     0.169 HD
ENDROOT
BRANCH   3   5
HETATM    5  C3  UNK     1      19.665  -3.125  35.803  1.00  0.00     0.108 A 
HETATM    6  C12 UNK     1      20.161  -2.582  34.518  1.00  0.00     0.304 A 
HETATM    7  O1  UNK     1      19.592  -1.389  34.083  1.00  0.00    -0.274 OA
HETATM    8  O3  UNK     1      21.032  -3.150  33.867  1.00  0.00    -0.259 OA
HETATM    9  C2  UNK     1      18.593  -0.728  34.823  1.00  0.00     0.089 A 
HETATM   10  C1  UNK     1      18.141  -1.256  36.029  1.00  0.00     0.001 A 
HETATM   11  C10 UNK     1      18.083   0.461  34.306  1.00  0.00     0.041 A 
HETATM   12  C6  UNK     1      17.149  -0.570  36.734  1.00  0.00     0.050 A 
HETATM   13  C4  UNK     1      18.717  -2.502  36.511  1.00  0.00     0.037 A 
HETATM   14  C11 UNK     1      16.628   0.623  36.228  1.00  0.00     0.103 A 
HETATM   15  C13 UNK     1      17.094   1.137  35.015  1.00  0.00     0.039 A 
BRANCH  14  16
HETATM   16  N2  UNK     1      15.620   1.317  36.948  1.00  0.00    -0.116 N 
HETATM   17  O4  UNK     1      15.961   2.147  37.826  1.00  0.00    -0.532 OA
HETATM   18  O5  UNK     1      14.416   1.083  36.686  1.00  0.00    -0.532 OA
ENDBRANCH  14  16
ENDBRANCH   3   5
BRANCH   2  19
HETATM   19  C5  UNK     1      19.542  -6.805  36.494  1.00  0.00     0.035 A 
HETATM   20  C14 UNK     1      18.838  -7.298  37.580  1.00  0.00     0.031 A 
HETATM   21  C16 UNK     1      19.020  -8.627  37.964  1.00  0.00     0.027 A 
HETATM   22  C15 UNK     1      19.902  -9.442  37.255  1.00  0.00     0.049 A 
HETATM   23  C8  UNK     1      20.603  -8.930  36.163  1.00  0.00     0.071 A 
HETATM   24 Cl1  UNK     1      20.102 -11.081  37.760  1.00  0.00    -0.083 Cl
HETATM   25  C9  UNK     1      20.421  -7.601  35.780  1.00  0.00     0.047 A 
BRANCH  23  26
HETATM   26  C17 UNK     1      21.558  -9.771  35.379  1.00  0.00     0.419 C 
HETATM   27  F1  UNK     1      22.793  -9.868  35.951  1.00  0.00    -0.166 F 
HETATM   28  F2  UNK     1      21.137 -11.058  35.211  1.00  0.00    -0.166 F 
HETATM   29  F3  UNK     1      21.771  -9.285  34.123  1.00  0.00    -0.166 F 
ENDBRANCH  23  26
ENDBRANCH   2  19
TORSDOF 4
ENDMDL
MODEL 9
REMARK VINA RESULT:      -9.3      8.239     10.292
REMARK  4 active torsions:
REMARK  status: ('A' for Active; 'I' for Inactive)
REMARK    1  A    between atoms: C5_16  and  N1_10 
REMARK       I    between atoms: C7_18  and  N1_10 
REMARK    2  A    between atoms: C11_22  and  N2_11 
REMARK    3  A    between atoms: C3_14  and  C7_18 
REMARK    4  A    between atoms: C17_28  and  C8_19 
ROOT
HETATM    1  O2  UNK     1      20.969  -3.789  36.427  1.00  0.00    -0.267 OA
HETATM    2  N1  UNK     1      18.740  -4.520  36.630  1.00  0.00    -0.323 N 
HETATM    3  C7  UNK     1      19.757  -3.588  36.468  1.00  0.00     0.262 C 
HETATM    4  H4  UNK     1      17.780  -4.185  36.664  1.00  0.00     0.169 HD
ENDROOT
BRANCH   3   5
HETATM    5  C3  UNK     1      19.240  -2.221  36.336  1.00  0.00     0.108 A 
HETATM    6  C12 UNK     1      18.736  -1.456  37.499  1.00  0.00     0.304 A 
HETATM    7  O1  UNK     1      18.270  -0.169  37.247  1.00  0.00    -0.274 OA
HETATM    8  O3  UNK     1      18.725  -1.929  38.631  1.00  0.00    -0.259 OA
HETATM    9  C2  UNK     1      18.277   0.383  35.950  1.00  0.00     0.089 A 
HETATM   10  C1  UNK     1      18.755  -0.353  34.871  1.00  0.00     0.001 A 
HETATM   11  C10 UNK     1      17.792   1.680  35.796  1.00  0.00     0.041 A 
HETATM   12  C6  UNK     1      18.745   0.229  33.602  1.00  0.00     0.050 A 
HETATM   13  C4  UNK     1      19.248  -1.702  35.103  1.00  0.00     0.037 A 
HETATM   14  C11 UNK     1      18.261   1.528  33.431  1.00  0.00     0.103 A 
HETATM   15  C13 UNK     1      17.785   2.253  34.527  1.00  0.00     0.039 A 
BRANCH  14  16
HETATM   16  N2  UNK     1      18.252   2.117  32.139  1.00  0.00    -0.116 N 
HETATM   17  O4  UNK     1      17.935   3.325  32.023  1.00  0.00    -0.532 OA
HETATM   18  O5  UNK     1      18.562   1.412  31.148  1.00  0.00    -0.532 OA
ENDBRANCH  14  16
ENDBRANCH   3   5
BRANCH   2  19
HETATM   19  C5  UNK     1      18.868  -5.922  36.784  1.00  0.00     0.035 A 
HETATM   20  C14 UNK     1      18.247  -6.761  35.875  1.00  0.00     0.031 A 
HETATM   21  C16 UNK     1      18.375  -8.142  36.025  1.00  0.00     0.027 A 
HETATM   22  C15 UNK     1      19.121  -8.662  37.082  1.00  0.00     0.049 A 
HETATM   23  C8  UNK     1      19.741  -7.802  37.989  1.00  0.00     0.071 A 
HETATM   24 Cl1  UNK     1      19.256 -10.376  37.237  1.00  0.00    -0.083 Cl
HETATM   25  C9  UNK     1      19.613  -6.421  37.839  1.00  0.00     0.047 A 
BRANCH  23  26
HETATM   26  C17 UNK     1      20.548  -8.320  39.135  1.00  0.00     0.419 C 
HETATM   27  F1  UNK     1      21.620  -9.072  38.750  1.00  0.00    -0.166 F 
HETATM   28  F2  UNK     1      21.065  -7.335  39.925  1.00  0.00    -0.166 F 
HETATM   29  F3  UNK     1      19.820  -9.116  39.968  1.00  0.00    -0.166 F 
ENDBRANCH  23  26
ENDBRANCH   2  19
TORSDOF 4
ENDMDL
MODEL 10
REMARK VINA RESULT:      -9.1      9.753     14.113
REMARK  4 active torsions:
REMARK  status: ('A' for Active; 'I' for Inactive)
REMARK    1  A    between atoms: C5_16  and  N1_10 
REMARK       I    between atoms: C7_18  and  N1_10 
REMARK    2  A    between atoms: C11_22  and  N2_11 
REMARK    3  A    between atoms: C3_14  and  C7_18 
REMARK    4  A    between atoms: C17_28  and  C8_19 
ROOT
HETATM    1  O2  UNK     1      20.477  -3.917  35.319  1.00  0.00    -0.267 OA
HETATM    2  N1  UNK     1      18.646  -3.759  36.790  1.00  0.00    -0.323 N 
HETATM    3  C7  UNK     1      19.636  -4.410  36.067  1.00  0.00     0.262 C 
HETATM    4  H4  UNK     1      18.010  -4.320  37.352  1.00  0.00     0.169 HD
ENDROOT
BRANCH   3   5
HETATM    5  C3  UNK     1      19.609  -5.863  36.275  1.00  0.00     0.108 A 
HETATM    6  C12 UNK     1      18.384  -6.571  36.710  1.00  0.00     0.304 A 
HETATM    7  O1  UNK     1      18.484  -7.950  36.875  1.00  0.00    -0.274 OA
HETATM    8  O3  UNK     1      17.331  -5.978  36.919  1.00  0.00    -0.259 OA
HETATM    9  C2  UNK     1      19.689  -8.641  36.639  1.00  0.00     0.089 A 
HETATM   10  C1  UNK     1      20.829  -7.955  36.231  1.00  0.00     0.001 A 
HETATM   11  C10 UNK     1      19.692 -10.021  36.829  1.00  0.00     0.041 A 
HETATM   12  C6  UNK     1      22.004  -8.676  36.008  1.00  0.00     0.050 A 
HETATM   13  C4  UNK     1      20.755  -6.514  36.051  1.00  0.00     0.037 A 
HETATM   14  C11 UNK     1      22.023 -10.060  36.195  1.00  0.00     0.103 A 
HETATM   15  C13 UNK     1      20.868 -10.732  36.605  1.00  0.00     0.039 A 
BRANCH  14  16
HETATM   16  N2  UNK     1      23.220 -10.790  35.968  1.00  0.00    -0.116 N 
HETATM   17  O4  UNK     1      23.166 -11.859  35.313  1.00  0.00    -0.532 OA
HETATM   18  O5  UNK     1      24.299 -10.344  36.427  1.00  0.00    -0.532 OA
ENDBRANCH  14  16
ENDBRANCH   3   5
BRANCH   2  19
HETATM   19  C5  UNK     1      18.379  -2.368  36.832  1.00  0.00     0.035 A 
HETATM   20  C14 UNK     1      18.224  -1.747  38.060  1.00  0.00     0.031 A 
HETATM   21  C16 UNK     1      17.963  -0.377  38.102  1.00  0.00     0.027 A 
HETATM   22  C15 UNK     1      17.861   0.350  36.915  1.00  0.00     0.049 A 
HETATM   23  C8  UNK     1      18.021  -0.292  35.688  1.00  0.00     0.071 A 
HETATM   24 Cl1  UNK     1      17.536   2.043  37.007  1.00  0.00    -0.083 Cl
HETATM   25  C9  UNK     1      18.282  -1.662  35.645  1.00  0.00     0.047 A 
BRANCH  23  26
HETATM   26  C17 UNK     1      17.919   0.451  34.395  1.00  0.00     0.419 C 
HETATM   27  F1  UNK     1      18.769   1.515  34.311  1.00  0.00    -0.166 F 
HETATM   28  F2  UNK     1      18.196  -0.318  33.302  1.00  0.00    -0.166 F 
HETATM   29  F3  UNK     1      16.672   0.958  34.182  1.00  0.00    -0.166 F 
ENDBRANCH  23  26
ENDBRANCH   2  19
TORSDOF 4
ENDMDL
