MODEL 1
REMARK VINA RESULT:      -8.2      0.000      0.000
REMARK  1 active torsions:
REMARK  status: ('A' for Active; 'I' for Inactive)
REMARK       I    between atoms: C5_11  and  N1_5 
REMARK    1  A    between atoms: C5_11  and  C7_13 
ROOT
HETATM    1 Cl1  UNK     1      19.385   0.169  29.804  1.00  0.00    -0.084 Cl
HETATM    2  O1  UNK     1      20.513  -3.065  34.586  1.00  0.00    -0.304 OA
HETATM    3  O3  UNK     1      17.664  -0.164  34.884  1.00  0.00    -0.287 OA
HETATM    4  C7  UNK     1      19.822  -2.829  35.755  1.00  0.00     0.147 A 
HETATM    5  C8  UNK     1      18.876  -1.897  35.928  1.00  0.00     0.098 A 
HETATM    6  C9  UNK     1      20.216  -2.285  33.497  1.00  0.00     0.090 A 
HETATM    7  C10 UNK     1      19.253  -1.276  33.530  1.00  0.00     0.050 A 
HETATM    8  C11 UNK     1      18.520  -1.031  34.785  1.00  0.00     0.187 A 
HETATM    9  C12 UNK     1      20.923  -2.536  32.320  1.00  0.00     0.040 A 
HETATM   10  C13 UNK     1      18.990  -0.513  32.390  1.00  0.00     0.042 A 
HETATM   11  C14 UNK     1      20.664  -1.774  31.180  1.00  0.00     0.026 A 
HETATM   12  C15 UNK     1      19.700  -0.765  31.215  1.00  0.00     0.035 A 
ENDROOT
BRANCH   4  13
HETATM   13  C5  UNK     1      20.157  -3.679  36.915  1.00  0.00     0.277 C 
HETATM   14  O2  UNK     1      20.409  -3.114  37.982  1.00  0.00    -0.265 OA
HETATM   15  N1  UNK     1      20.173  -5.058  36.726  1.00  0.00    -0.343 N 
HETATM   16  C1  UNK     1      19.879  -5.762  35.470  1.00  0.00     0.156 C 
HETATM   17  C2  UNK     1      20.652  -5.920  37.808  1.00  0.00     0.156 C 
HETATM   18  C3  UNK     1      19.020  -7.008  35.710  1.00  0.00     0.291 C 
HETATM   19  N2  UNK     1      19.613  -7.876  36.734  1.00  0.00     0.087 N 
HETATM   20  C4  UNK     1      19.758  -7.142  37.999  1.00  0.00     0.291 C 
HETATM   21  C6  UNK     1      18.797  -9.075  36.926  1.00  0.00     0.310 C 
ENDBRANCH   4  13
TORSDOF 1
ENDMDL
MODEL 2
REMARK VINA RESULT:      -8.1      4.165      7.386
REMARK  1 active torsions:
REMARK  status: ('A' for Active; 'I' for Inactive)
REMARK       I    between atoms: C5_11  and  N1_5 
REMARK    1  A    between atoms: C5_11  and  C7_13 
ROOT
HETATM    1 Cl1  UNK     1      22.364  -9.126  40.813  1.00  0.00    -0.084 Cl
HETATM    2  O1  UNK     1      21.372  -4.632  37.148  1.00  0.00    -0.304 OA
HETATM    3  O3  UNK     1      18.383  -7.357  37.666  1.00  0.00    -0.287 OA
HETATM    4  C7  UNK     1      20.159  -4.529  36.500  1.00  0.00     0.147 A 
HETATM    5  C8  UNK     1      19.135  -5.382  36.620  1.00  0.00     0.098 A 
HETATM    6  C9  UNK     1      21.557  -5.698  37.993  1.00  0.00     0.090 A 
HETATM    7  C10 UNK     1      20.577  -6.666  38.216  1.00  0.00     0.050 A 
HETATM    8  C11 UNK     1      19.285  -6.546  37.517  1.00  0.00     0.187 A 
HETATM    9  C12 UNK     1      22.789  -5.790  38.643  1.00  0.00     0.040 A 
HETATM   10  C13 UNK     1      20.820  -7.729  39.088  1.00  0.00     0.042 A 
HETATM   11  C14 UNK     1      23.035  -6.852  39.514  1.00  0.00     0.026 A 
HETATM   12  C15 UNK     1      22.054  -7.819  39.736  1.00  0.00     0.035 A 
ENDROOT
BRANCH   4  13
HETATM   13  C5  UNK     1      19.980  -3.376  35.595  1.00  0.00     0.277 C 
HETATM   14  O2  UNK     1      20.359  -3.502  34.429  1.00  0.00    -0.265 OA
HETATM   15  N1  UNK     1      19.404  -2.222  36.121  1.00  0.00    -0.343 N 
HETATM   16  C1  UNK     1      18.943  -2.038  37.504  1.00  0.00     0.156 C 
HETATM   17  C2  UNK     1      19.354  -1.013  35.298  1.00  0.00     0.156 C 
HETATM   18  C3  UNK     1      17.605  -1.295  37.559  1.00  0.00     0.291 C 
HETATM   19  N2  UNK     1      17.660  -0.040  36.796  1.00  0.00     0.087 N 
HETATM   20  C4  UNK     1      18.000  -0.315  35.394  1.00  0.00     0.291 C 
HETATM   21  C6  UNK     1      16.386   0.672  36.887  1.00  0.00     0.310 C 
ENDBRANCH   4  13
TORSDOF 1
ENDMDL
MODEL 3
REMARK VINA RESULT:      -8.0      8.286     11.492
REMARK  1 active torsions:
REMARK  status: ('A' for Active; 'I' for Inactive)
REMARK       I    between atoms: C5_11  and  N1_5 
REMARK    1  A    between atoms: C5_11  and  C7_13 
ROOT
HETATM    1 Cl1  UNK     1      19.091   0.897  28.901  1.00  0.00    -0.084 Cl
HETATM    2  O1  UNK     1      18.080   4.884  33.107  1.00  0.00    -0.304 OA
HETATM    3  O3  UNK     1      19.430   6.226  29.501  1.00  0.00    -0.287 OA
HETATM    4  C7  UNK     1      18.300   6.221  32.854  1.00  0.00     0.147 A 
HETATM    5  C8  UNK     1      18.742   6.735  31.699  1.00  0.00     0.098 A 
HETATM    6  C9  UNK     1      18.330   3.990  32.095  1.00  0.00     0.090 A 
HETATM    7  C10 UNK     1      18.792   4.382  30.838  1.00  0.00     0.050 A 
HETATM    8  C11 UNK     1      19.026   5.814  30.579  1.00  0.00     0.187 A 
HETATM    9  C12 UNK     1      18.101   2.641  32.365  1.00  0.00     0.040 A 
HETATM   10  C13 UNK     1      19.030   3.430  29.845  1.00  0.00     0.042 A 
HETATM   11  C14 UNK     1      18.338   1.687  31.375  1.00  0.00     0.026 A 
HETATM   12  C15 UNK     1      18.802   2.080  30.119  1.00  0.00     0.035 A 
ENDROOT
BRANCH   4  13
HETATM   13  C5  UNK     1      18.025   7.165  33.955  1.00  0.00     0.277 C 
HETATM   14  O2  UNK     1      18.948   7.418  34.733  1.00  0.00    -0.265 OA
HETATM   15  N1  UNK     1      16.742   7.700  34.047  1.00  0.00    -0.343 N 
HETATM   16  C1  UNK     1      15.622   7.420  33.139  1.00  0.00     0.156 C 
HETATM   17  C2  UNK     1      16.392   8.514  35.212  1.00  0.00     0.156 C 
HETATM   18  C3  UNK     1      14.835   8.691  32.804  1.00  0.00     0.291 C 
HETATM   19  N2  UNK     1      14.428   9.402  34.023  1.00  0.00     0.087 N 
HETATM   20  C4  UNK     1      15.610   9.764  34.818  1.00  0.00     0.291 C 
HETATM   21  C6  UNK     1      13.650  10.594  33.686  1.00  0.00     0.310 C 
ENDBRANCH   4  13
TORSDOF 1
ENDMDL
MODEL 4
REMARK VINA RESULT:      -7.9     27.963     29.639
REMARK  1 active torsions:
REMARK  status: ('A' for Active; 'I' for Inactive)
REMARK       I    between atoms: C5_11  and  N1_5 
REMARK    1  A    between atoms: C5_11  and  C7_13 
ROOT
HETATM    1 Cl1  UNK     1      19.125  12.663   7.709  1.00  0.00    -0.084 Cl
HETATM    2  O1  UNK     1      14.323   9.516   8.988  1.00  0.00    -0.304 OA
HETATM    3  O3  UNK     1      17.933   8.048  10.191  1.00  0.00    -0.287 OA
HETATM    4  C7  UNK     1      14.444   8.325   9.674  1.00  0.00     0.147 A 
HETATM    5  C8  UNK     1      15.591   7.782  10.099  1.00  0.00     0.098 A 
HETATM    6  C9  UNK     1      15.472  10.215   8.712  1.00  0.00     0.090 A 
HETATM    7  C10 UNK     1      16.738   9.771   9.094  1.00  0.00     0.050 A 
HETATM    8  C11 UNK     1      16.855   8.497   9.826  1.00  0.00     0.187 A 
HETATM    9  C12 UNK     1      15.335  11.418   8.019  1.00  0.00     0.040 A 
HETATM   10  C13 UNK     1      17.873  10.524   8.787  1.00  0.00     0.042 A 
HETATM   11  C14 UNK     1      16.467  12.173   7.710  1.00  0.00     0.026 A 
HETATM   12  C15 UNK     1      17.733  11.726   8.092  1.00  0.00     0.035 A 
ENDROOT
BRANCH   4  13
HETATM   13  C5  UNK     1      13.197   7.589   9.960  1.00  0.00     0.277 C 
HETATM   14  O2  UNK     1      12.745   7.656  11.105  1.00  0.00    -0.265 OA
HETATM   15  N1  UNK     1      12.620   6.861   8.922  1.00  0.00    -0.343 N 
HETATM   16  C1  UNK     1      13.132   6.758   7.549  1.00  0.00     0.156 C 
HETATM   17  C2  UNK     1      11.474   5.996   9.210  1.00  0.00     0.156 C 
HETATM   18  C3  UNK     1      12.003   6.846   6.518  1.00  0.00     0.291 C 
HETATM   19  N2  UNK     1      10.936   5.880   6.811  1.00  0.00     0.087 N 
HETATM   20  C4  UNK     1      10.384   6.125   8.150  1.00  0.00     0.291 C 
HETATM   21  C6  UNK     1       9.884   5.955   5.799  1.00  0.00     0.310 C 
ENDBRANCH   4  13
TORSDOF 1
ENDMDL
MODEL 5
REMARK VINA RESULT:      -7.8      7.555     10.880
REMARK  1 active torsions:
REMARK  status: ('A' for Active; 'I' for Inactive)
REMARK       I    between atoms: C5_11  and  N1_5 
REMARK    1  A    between atoms: C5_11  and  C7_13 
ROOT
HETATM    1 Cl1  UNK     1      18.216  -1.338  34.754  1.00  0.00    -0.084 Cl
HETATM    2  O1  UNK     1      18.757   4.512  34.455  1.00  0.00    -0.304 OA
HETATM    3  O3  UNK     1      17.630   2.532  31.073  1.00  0.00    -0.287 OA
HETATM    4  C7  UNK     1      18.504   5.166  33.268  1.00  0.00     0.147 A 
HETATM    5  C8  UNK     1      18.132   4.585  32.121  1.00  0.00     0.098 A 
HETATM    6  C9  UNK     1      18.618   3.146  34.477  1.00  0.00     0.090 A 
HETATM    7  C10 UNK     1      18.236   2.407  33.356  1.00  0.00     0.050 A 
HETATM    8  C11 UNK     1      17.969   3.117  32.092  1.00  0.00     0.187 A 
HETATM    9  C12 UNK     1      18.876   2.497  35.685  1.00  0.00     0.040 A 
HETATM   10  C13 UNK     1      18.109   1.019  33.435  1.00  0.00     0.042 A 
HETATM   11  C14 UNK     1      18.751   1.110  35.767  1.00  0.00     0.026 A 
HETATM   12  C15 UNK     1      18.369   0.373  34.645  1.00  0.00     0.035 A 
ENDROOT
BRANCH   4  13
HETATM   13  C5  UNK     1      18.660   6.634  33.266  1.00  0.00     0.277 C 
HETATM   14  O2  UNK     1      19.672   7.100  32.739  1.00  0.00    -0.265 OA
HETATM   15  N1  UNK     1      17.658   7.393  33.866  1.00  0.00    -0.343 N 
HETATM   16  C1  UNK     1      16.442   6.872  34.504  1.00  0.00     0.156 C 
HETATM   17  C2  UNK     1      17.854   8.836  34.021  1.00  0.00     0.156 C 
HETATM   18  C3  UNK     1      15.213   7.715  34.149  1.00  0.00     0.291 C 
HETATM   19  N2  UNK     1      15.445   9.138  34.426  1.00  0.00     0.087 N 
HETATM   20  C4  UNK     1      16.599   9.622  33.655  1.00  0.00     0.291 C 
HETATM   21  C6  UNK     1      14.252   9.923  34.113  1.00  0.00     0.310 C 
ENDBRANCH   4  13
TORSDOF 1
ENDMDL
MODEL 6
REMARK VINA RESULT:      -7.7      4.162      7.195
REMARK  1 active torsions:
REMARK  status: ('A' for Active; 'I' for Inactive)
REMARK       I    between atoms: C5_11  and  N1_5 
REMARK    1  A    between atoms: C5_11  and  C7_13 
ROOT
HETATM    1 Cl1  UNK     1      19.401 -10.458  38.808  1.00  0.00    -0.084 Cl
HETATM    2  O1  UNK     1      20.265  -4.738  37.736  1.00  0.00    -0.304 OA
HETATM    3  O3  UNK     1      19.312  -7.140  34.582  1.00  0.00    -0.287 OA
HETATM    4  C7  UNK     1      20.142  -4.253  36.452  1.00  0.00     0.147 A 
HETATM    5  C8  UNK     1      19.833  -4.979  35.370  1.00  0.00     0.098 A 
HETATM    6  C9  UNK     1      20.055  -6.080  37.938  1.00  0.00     0.090 A 
HETATM    7  C10 UNK     1      19.725  -6.957  36.904  1.00  0.00     0.050 A 
HETATM    8  C11 UNK     1      19.597  -6.428  35.534  1.00  0.00     0.187 A 
HETATM    9  C12 UNK     1      20.182  -6.557  39.243  1.00  0.00     0.040 A 
HETATM   10  C13 UNK     1      19.521  -8.313  37.166  1.00  0.00     0.042 A 
HETATM   11  C14 UNK     1      19.979  -7.912  39.508  1.00  0.00     0.026 A 
HETATM   12  C15 UNK     1      19.651  -8.788  38.473  1.00  0.00     0.035 A 
ENDROOT
BRANCH   4  13
HETATM   13  C5  UNK     1      20.373  -2.808  36.256  1.00  0.00     0.277 C 
HETATM   14  O2  UNK     1      21.527  -2.441  36.021  1.00  0.00    -0.265 OA
HETATM   15  N1  UNK     1      19.276  -1.956  36.359  1.00  0.00    -0.343 N 
HETATM   16  C1  UNK     1      17.891  -2.359  36.638  1.00  0.00     0.156 C 
HETATM   17  C2  UNK     1      19.494  -0.509  36.326  1.00  0.00     0.156 C 
HETATM   18  C3  UNK     1      16.893  -1.593  35.764  1.00  0.00     0.291 C 
HETATM   19  N2  UNK     1      17.104  -0.142  35.861  1.00  0.00     0.087 N 
HETATM   20  C4  UNK     1      18.471   0.200  35.443  1.00  0.00     0.291 C 
HETATM   21  C6  UNK     1      16.123   0.574  35.047  1.00  0.00     0.310 C 
ENDBRANCH   4  13
TORSDOF 1
ENDMDL
MODEL 7
REMARK VINA RESULT:      -7.7     28.331     29.625
REMARK  1 active torsions:
REMARK  status: ('A' for Active; 'I' for Inactive)
REMARK       I    between atoms: C5_11  and  N1_5 
REMARK    1  A    between atoms: C5_11  and  C7_13 
ROOT
HETATM    1 Cl1  UNK     1       3.923   2.912  13.146  1.00  0.00    -0.084 Cl
HETATM    2  O1  UNK     1       7.648   4.485   8.874  1.00  0.00    -0.304 OA
HETATM    3  O3  UNK     1       6.631   7.303  11.640  1.00  0.00    -0.287 OA
HETATM    4  C7  UNK     1       8.145   5.770   8.834  1.00  0.00     0.147 A 
HETATM    5  C8  UNK     1       7.857   6.746   9.704  1.00  0.00     0.098 A 
HETATM    6  C9  UNK     1       6.782   4.164   9.889  1.00  0.00     0.090 A 
HETATM    7  C10 UNK     1       6.393   5.079  10.868  1.00  0.00     0.050 A 
HETATM    8  C11 UNK     1       6.930   6.451  10.815  1.00  0.00     0.187 A 
HETATM    9  C12 UNK     1       6.287   2.860   9.918  1.00  0.00     0.040 A 
HETATM   10  C13 UNK     1       5.508   4.698  11.879  1.00  0.00     0.042 A 
HETATM   11  C14 UNK     1       5.403   2.476  10.926  1.00  0.00     0.026 A 
HETATM   12  C15 UNK     1       5.014   3.393  11.904  1.00  0.00     0.035 A 
ENDROOT
BRANCH   4  13
HETATM   13  C5  UNK     1       9.075   6.095   7.734  1.00  0.00     0.277 C 
HETATM   14  O2  UNK     1       8.607   6.645   6.734  1.00  0.00    -0.265 OA
HETATM   15  N1  UNK     1      10.415   5.751   7.894  1.00  0.00    -0.343 N 
HETATM   16  C1  UNK     1      11.005   5.095   9.068  1.00  0.00     0.156 C 
HETATM   17  C2  UNK     1      11.332   5.915   6.765  1.00  0.00     0.156 C 
HETATM   18  C3  UNK     1      12.357   5.713   9.441  1.00  0.00     0.291 C 
HETATM   19  N2  UNK     1      13.262   5.752   8.284  1.00  0.00     0.087 N 
HETATM   20  C4  UNK     1      12.660   6.533   7.195  1.00  0.00     0.291 C 
HETATM   21  C6  UNK     1      14.557   6.314   8.665  1.00  0.00     0.310 C 
ENDBRANCH   4  13
TORSDOF 1
ENDMDL
MODEL 8
REMARK VINA RESULT:      -7.7      4.083      7.229
REMARK  1 active torsions:
REMARK  status: ('A' for Active; 'I' for Inactive)
REMARK       I    between atoms: C5_11  and  N1_5 
REMARK    1  A    between atoms: C5_11  and  C7_13 
ROOT
HETATM    1 Cl1  UNK     1      19.365 -10.709  38.723  1.00  0.00    -0.084 Cl
HETATM    2  O1  UNK     1      19.295  -5.532  35.929  1.00  0.00    -0.304 OA
HETATM    3  O3  UNK     1      21.937  -5.998  39.000  1.00  0.00    -0.287 OA
HETATM    4  C7  UNK     1      20.154  -4.528  36.320  1.00  0.00     0.147 A 
HETATM    5  C8  UNK     1      21.046  -4.608  37.316  1.00  0.00     0.098 A 
HETATM    6  C9  UNK     1      19.347  -6.723  36.611  1.00  0.00     0.090 A 
HETATM    7  C10 UNK     1      20.227  -6.949  37.670  1.00  0.00     0.050 A 
HETATM    8  C11 UNK     1      21.141  -5.868  38.080  1.00  0.00     0.187 A 
HETATM    9  C12 UNK     1      18.472  -7.730  36.203  1.00  0.00     0.040 A 
HETATM   10  C13 UNK     1      20.238  -8.181  38.328  1.00  0.00     0.042 A 
HETATM   11  C14 UNK     1      18.480  -8.962  36.859  1.00  0.00     0.026 A 
HETATM   12  C15 UNK     1      19.360  -9.186  37.919  1.00  0.00     0.035 A 
ENDROOT
BRANCH   4  13
HETATM   13  C5  UNK     1      20.082  -3.256  35.575  1.00  0.00     0.277 C 
HETATM   14  O2  UNK     1      20.569  -3.229  34.442  1.00  0.00    -0.265 OA
HETATM   15  N1  UNK     1      19.476  -2.170  36.202  1.00  0.00    -0.343 N 
HETATM   16  C1  UNK     1      18.888  -2.166  37.548  1.00  0.00     0.156 C 
HETATM   17  C2  UNK     1      19.525  -0.857  35.557  1.00  0.00     0.156 C 
HETATM   18  C3  UNK     1      17.562  -1.399  37.583  1.00  0.00     0.291 C 
HETATM   19  N2  UNK     1      17.711  -0.053  37.014  1.00  0.00     0.087 N 
HETATM   20  C4  UNK     1      18.180  -0.139  35.624  1.00  0.00     0.291 C 
HETATM   21  C6  UNK     1      16.446   0.677  37.085  1.00  0.00     0.310 C 
ENDBRANCH   4  13
TORSDOF 1
ENDMDL
MODEL 9
REMARK VINA RESULT:      -7.7      5.859      9.625
REMARK  1 active torsions:
REMARK  status: ('A' for Active; 'I' for Inactive)
REMARK       I    between atoms: C5_11  and  N1_5 
REMARK    1  A    between atoms: C5_11  and  C7_13 
ROOT
HETATM    1 Cl1  UNK     1      17.898  -2.248  36.730  1.00  0.00    -0.084 Cl
HETATM    2  O1  UNK     1      17.950   2.288  32.985  1.00  0.00    -0.304 OA
HETATM    3  O3  UNK     1      19.671  -1.203  31.766  1.00  0.00    -0.287 OA
HETATM    4  C7  UNK     1      18.531   2.147  31.743  1.00  0.00     0.147 A 
HETATM    5  C8  UNK     1      19.114   1.036  31.275  1.00  0.00     0.098 A 
HETATM    6  C9  UNK     1      17.962   1.202  33.825  1.00  0.00     0.090 A 
HETATM    7  C10 UNK     1      18.533  -0.021  33.471  1.00  0.00     0.050 A 
HETATM    8  C11 UNK     1      19.153  -0.160  32.141  1.00  0.00     0.187 A 
HETATM    9  C12 UNK     1      17.370   1.359  35.079  1.00  0.00     0.040 A 
HETATM   10  C13 UNK     1      18.517  -1.093  34.366  1.00  0.00     0.042 A 
HETATM   11  C14 UNK     1      17.352   0.289  35.975  1.00  0.00     0.026 A 
HETATM   12  C15 UNK     1      17.925  -0.933  35.620  1.00  0.00     0.035 A 
ENDROOT
BRANCH   4  13
HETATM   13  C5  UNK     1      18.508   3.326  30.855  1.00  0.00     0.277 C 
HETATM   14  O2  UNK     1      18.464   3.125  29.639  1.00  0.00    -0.265 OA
HETATM   15  N1  UNK     1      18.547   4.586  31.448  1.00  0.00    -0.343 N 
HETATM   16  C1  UNK     1      18.601   4.861  32.890  1.00  0.00     0.156 C 
HETATM   17  C2  UNK     1      18.682   5.769  30.598  1.00  0.00     0.156 C 
HETATM   18  C3  UNK     1      17.681   6.023  33.278  1.00  0.00     0.291 C 
HETATM   19  N2  UNK     1      17.944   7.209  32.453  1.00  0.00     0.087 N 
HETATM   20  C4  UNK     1      17.745   6.892  31.032  1.00  0.00     0.291 C 
HETATM   21  C6  UNK     1      17.080   8.318  32.858  1.00  0.00     0.310 C 
ENDBRANCH   4  13
TORSDOF 1
ENDMDL
MODEL 10
REMARK VINA RESULT:      -7.4     11.725     13.559
REMARK  1 active torsions:
REMARK  status: ('A' for Active; 'I' for Inactive)
REMARK       I    between atoms: C5_11  and  N1_5 
REMARK    1  A    between atoms: C5_11  and  C7_13 
ROOT
HETATM    1 Cl1  UNK     1      25.894  -8.838  39.443  1.00  0.00    -0.084 Cl
HETATM    2  O1  UNK     1      31.376  -7.417  37.850  1.00  0.00    -0.304 OA
HETATM    3  O3  UNK     1      28.949  -4.424  39.183  1.00  0.00    -0.287 OA
HETATM    4  C7  UNK     1      31.799  -6.108  37.935  1.00  0.00     0.147 A 
HETATM    5  C8  UNK     1      31.061  -5.075  38.361  1.00  0.00     0.098 A 
HETATM    6  C9  UNK     1      30.088  -7.701  38.233  1.00  0.00     0.090 A 
HETATM    7  C10 UNK     1      29.206  -6.725  38.698  1.00  0.00     0.050 A 
HETATM    8  C11 UNK     1      29.669  -5.328  38.784  1.00  0.00     0.187 A 
HETATM    9  C12 UNK     1      29.674  -9.030  38.142  1.00  0.00     0.040 A 
HETATM   10  C13 UNK     1      27.906  -7.070  39.075  1.00  0.00     0.042 A 
HETATM   11  C14 UNK     1      28.375  -9.378  38.517  1.00  0.00     0.026 A 
HETATM   12  C15 UNK     1      27.494  -8.400  38.981  1.00  0.00     0.035 A 
ENDROOT
BRANCH   4  13
HETATM   13  C5  UNK     1      33.187  -5.824  37.518  1.00  0.00     0.277 C 
HETATM   14  O2  UNK     1      34.026  -5.653  38.405  1.00  0.00    -0.265 OA
HETATM   15  N1  UNK     1      33.454  -5.760  36.153  1.00  0.00    -0.343 N 
HETATM   16  C1  UNK     1      32.480  -5.957  35.071  1.00  0.00     0.156 C 
HETATM   17  C2  UNK     1      34.779  -5.329  35.706  1.00  0.00     0.156 C 
HETATM   18  C3  UNK     1      33.064  -6.798  33.931  1.00  0.00     0.291 C 
HETATM   19  N2  UNK     1      34.343  -6.248  33.465  1.00  0.00     0.087 N 
HETATM   20  C4  UNK     1      35.309  -6.201  34.571  1.00  0.00     0.291 C 
HETATM   21  C6  UNK     1      34.870  -7.043  32.356  1.00  0.00     0.310 C 
ENDBRANCH   4  13
TORSDOF 1
ENDMDL
