MODEL 1
REMARK VINA RESULT:      -9.0      0.000      0.000
REMARK  4 active torsions:
REMARK  status: ('A' for Active; 'I' for Inactive)
REMARK       I    between atoms: C13_17  and  N1_4 
REMARK    1  A    between atoms: C8_12  and  N1_4 
REMARK    2  A    between atoms: C1_5  and  C2_6 
REMARK    3  A    between atoms: C1_5  and  C3_7 
REMARK    4  A    between atoms: C11_15  and  C13_17 
ROOT
HETATM    1  O2  UNK     1      17.623   3.087  32.992  1.00  0.00    -0.267 OA
HETATM    2  N1  UNK     1      18.698   4.643  31.589  1.00  0.00    -0.323 N 
HETATM    3  C13 UNK     1      18.282   3.383  31.997  1.00  0.00     0.262 C 
HETATM    4  H14 UNK     1      19.261   4.717  30.745  1.00  0.00     0.169 HD
ENDROOT
BRANCH   3   5
HETATM    5  C11 UNK     1      18.724   2.329  31.076  1.00  0.00     0.108 A 
HETATM    6  C14 UNK     1      19.131   1.185  31.637  1.00  0.00     0.037 A 
HETATM    7  C12 UNK     1      19.586   0.081  30.806  1.00  0.00    -0.001 A 
HETATM    8  C15 UNK     1      19.590   0.237  29.424  1.00  0.00     0.089 A 
HETATM    9  C17 UNK     1      20.020  -1.130  31.349  1.00  0.00     0.014 A 
HETATM   10  O1  UNK     1      19.159   1.444  28.838  1.00  0.00    -0.274 OA
HETATM   11  C18 UNK     1      20.014  -0.780  28.572  1.00  0.00     0.038 A 
HETATM   12  C16 UNK     1      18.718   2.518  29.608  1.00  0.00     0.304 A 
HETATM   13  O3  UNK     1      18.345   3.564  29.089  1.00  0.00    -0.259 OA
HETATM   14  C20 UNK     1      20.446  -1.986  29.121  1.00  0.00     0.003 A 
HETATM   15  C19 UNK     1      20.449  -2.160  30.507  1.00  0.00     0.001 A 
ENDBRANCH   3   5
BRANCH   2  16
HETATM   16  C8  UNK     1      18.454   5.883  32.230  1.00  0.00     0.035 A 
HETATM   17  C10 UNK     1      19.455   6.457  32.994  1.00  0.00     0.030 A 
HETATM   18  C6  UNK     1      19.215   7.679  33.624  1.00  0.00     0.010 A 
HETATM   19  C3  UNK     1      17.978   8.305  33.482  1.00  0.00    -0.054 A 
HETATM   20  C5  UNK     1      16.979   7.712  32.709  1.00  0.00     0.010 A 
HETATM   21  C9  UNK     1      17.219   6.491  32.078  1.00  0.00     0.030 A 
BRANCH  19  22
HETATM   22  C1  UNK     1      17.721   9.610  34.157  1.00  0.00     0.014 C 
HETATM   23  C4  UNK     1      18.827  10.638  33.835  1.00  0.00     0.015 C 
BRANCH  22  24
HETATM   24  C2  UNK     1      16.335  10.232  33.828  1.00  0.00     0.004 C 
HETATM   25  C7  UNK     1      15.327  10.049  34.957  1.00  0.00     0.006 C 
ENDBRANCH  22  24
ENDBRANCH  19  22
ENDBRANCH   2  16
TORSDOF 4
ENDMDL
MODEL 2
REMARK VINA RESULT:      -8.9      7.595     13.204
REMARK  4 active torsions:
REMARK  status: ('A' for Active; 'I' for Inactive)
REMARK       I    between atoms: C13_17  and  N1_4 
REMARK    1  A    between atoms: C8_12  and  N1_4 
REMARK    2  A    between atoms: C1_5  and  C2_6 
REMARK    3  A    between atoms: C1_5  and  C3_7 
REMARK    4  A    between atoms: C11_15  and  C13_17 
ROOT
HETATM    1  O2  UNK     1      20.918  -3.847  37.743  1.00  0.00    -0.267 OA
HETATM    2  N1  UNK     1      19.707  -4.933  36.040  1.00  0.00    -0.323 N 
HETATM    3  C13 UNK     1      20.159  -3.846  36.775  1.00  0.00     0.262 C 
HETATM    4  H14 UNK     1      19.058  -4.764  35.274  1.00  0.00     0.169 HD
ENDROOT
BRANCH   3   5
HETATM    5  C11 UNK     1      19.619  -2.576  36.275  1.00  0.00     0.108 A 
HETATM    6  C14 UNK     1      18.889  -1.862  37.139  1.00  0.00     0.037 A 
HETATM    7  C12 UNK     1      18.312  -0.589  36.736  1.00  0.00    -0.001 A 
HETATM    8  C15 UNK     1      18.533  -0.131  35.442  1.00  0.00     0.089 A 
HETATM    9  C17 UNK     1      17.544   0.189  37.605  1.00  0.00     0.014 A 
HETATM   10  O1  UNK     1      19.303  -0.887  34.536  1.00  0.00    -0.274 OA
HETATM   11  C18 UNK     1      18.008   1.079  34.992  1.00  0.00     0.038 A 
HETATM   12  C16 UNK     1      19.867  -2.109  34.893  1.00  0.00     0.304 A 
HETATM   13  O3  UNK     1      20.535  -2.759  34.097  1.00  0.00    -0.259 OA
HETATM   14  C20 UNK     1      17.242   1.850  35.865  1.00  0.00     0.003 A 
HETATM   15  C19 UNK     1      17.011   1.406  37.169  1.00  0.00     0.001 A 
ENDBRANCH   3   5
BRANCH   2  16
HETATM   16  C8  UNK     1      20.021  -6.301  36.237  1.00  0.00     0.035 A 
HETATM   17  C10 UNK     1      20.523  -7.038  35.178  1.00  0.00     0.030 A 
HETATM   18  C6  UNK     1      20.834  -8.384  35.373  1.00  0.00     0.010 A 
HETATM   19  C3  UNK     1      20.635  -8.972  36.622  1.00  0.00    -0.054 A 
HETATM   20  C5  UNK     1      20.128  -8.214  37.677  1.00  0.00     0.010 A 
HETATM   21  C9  UNK     1      19.819  -6.868  37.484  1.00  0.00     0.030 A 
BRANCH  19  22
HETATM   22  C1  UNK     1      20.966 -10.411  36.829  1.00  0.00     0.014 C 
HETATM   23  C4  UNK     1      19.738 -11.207  37.321  1.00  0.00     0.015 C 
BRANCH  22  24
HETATM   24  C2  UNK     1      21.560 -11.113  35.576  1.00  0.00     0.004 C 
HETATM   25  C7  UNK     1      23.051 -11.399  35.714  1.00  0.00     0.006 C 
ENDBRANCH  22  24
ENDBRANCH  19  22
ENDBRANCH   2  16
TORSDOF 4
ENDMDL
MODEL 3
REMARK VINA RESULT:      -8.7      1.266      2.489
REMARK  4 active torsions:
REMARK  status: ('A' for Active; 'I' for Inactive)
REMARK       I    between atoms: C13_17  and  N1_4 
REMARK    1  A    between atoms: C8_12  and  N1_4 
REMARK    2  A    between atoms: C1_5  and  C2_6 
REMARK    3  A    between atoms: C1_5  and  C3_7 
REMARK    4  A    between atoms: C11_15  and  C13_17 
ROOT
HETATM    1  O2  UNK     1      18.528   4.624  30.383  1.00  0.00    -0.267 OA
HETATM    2  N1  UNK     1      17.823   4.514  32.627  1.00  0.00    -0.323 N 
HETATM    3  C13 UNK     1      18.329   4.017  31.434  1.00  0.00     0.262 C 
HETATM    4  H14 UNK     1      17.698   3.870  33.405  1.00  0.00     0.169 HD
ENDROOT
BRANCH   3   5
HETATM    5  C11 UNK     1      18.641   2.585  31.519  1.00  0.00     0.108 A 
HETATM    6  C14 UNK     1      19.198   2.036  30.433  1.00  0.00     0.037 A 
HETATM    7  C12 UNK     1      19.544   0.623  30.421  1.00  0.00    -0.001 A 
HETATM    8  C15 UNK     1      19.286  -0.142  31.553  1.00  0.00     0.089 A 
HETATM    9  C17 UNK     1      20.125   0.008  29.310  1.00  0.00     0.014 A 
HETATM   10  O1  UNK     1      18.701   0.442  32.694  1.00  0.00    -0.274 OA
HETATM   11  C18 UNK     1      19.592  -1.500  31.607  1.00  0.00     0.038 A 
HETATM   12  C16 UNK     1      18.358   1.791  32.735  1.00  0.00     0.304 A 
HETATM   13  O3  UNK     1      17.849   2.290  33.732  1.00  0.00    -0.259 OA
HETATM   14  C20 UNK     1      20.172  -2.107  30.494  1.00  0.00     0.003 A 
HETATM   15  C19 UNK     1      20.438  -1.354  29.348  1.00  0.00     0.001 A 
ENDBRANCH   3   5
BRANCH   2  16
HETATM   16  C8  UNK     1      17.418   5.842  32.908  1.00  0.00     0.035 A 
HETATM   17  C10 UNK     1      16.292   6.351  32.285  1.00  0.00     0.030 A 
HETATM   18  C6  UNK     1      15.893   7.660  32.562  1.00  0.00     0.010 A 
HETATM   19  C3  UNK     1      16.628   8.438  33.456  1.00  0.00    -0.054 A 
HETATM   20  C5  UNK     1      17.761   7.909  34.074  1.00  0.00     0.010 A 
HETATM   21  C9  UNK     1      18.159   6.601  33.798  1.00  0.00     0.030 A 
BRANCH  19  22
HETATM   22  C1  UNK     1      16.202   9.836  33.751  1.00  0.00     0.014 C 
HETATM   23  C4  UNK     1      15.135   9.877  34.866  1.00  0.00     0.015 C 
BRANCH  22  24
HETATM   24  C2  UNK     1      17.370  10.789  34.128  1.00  0.00     0.004 C 
HETATM   25  C7  UNK     1      16.901  12.213  34.405  1.00  0.00     0.006 C 
ENDBRANCH  22  24
ENDBRANCH  19  22
ENDBRANCH   2  16
TORSDOF 4
ENDMDL
MODEL 4
REMARK VINA RESULT:      -8.7      6.170     10.881
REMARK  4 active torsions:
REMARK  status: ('A' for Active; 'I' for Inactive)
REMARK       I    between atoms: C13_17  and  N1_4 
REMARK    1  A    between atoms: C8_12  and  N1_4 
REMARK    2  A    between atoms: C1_5  and  C2_6 
REMARK    3  A    between atoms: C1_5  and  C3_7 
REMARK    4  A    between atoms: C11_15  and  C13_17 
ROOT
HETATM    1  O2  UNK     1      18.670  -1.554  36.299  1.00  0.00    -0.267 OA
HETATM    2  N1  UNK     1      19.779  -3.319  35.203  1.00  0.00    -0.323 N 
HETATM    3  C13 UNK     1      19.179  -2.071  35.307  1.00  0.00     0.262 C 
HETATM    4  H14 UNK     1      20.137  -3.610  34.297  1.00  0.00     0.169 HD
ENDROOT
BRANCH   3   5
HETATM    5  C11 UNK     1      19.197  -1.342  34.033  1.00  0.00     0.108 A 
HETATM    6  C14 UNK     1      19.793  -1.959  33.006  1.00  0.00     0.037 A 
HETATM    7  C12 UNK     1      19.858  -1.317  31.702  1.00  0.00    -0.001 A 
HETATM    8  C15 UNK     1      19.294  -0.055  31.545  1.00  0.00     0.089 A 
HETATM    9  C17 UNK     1      20.471  -1.924  30.603  1.00  0.00     0.014 A 
HETATM   10  O1  UNK     1      18.667   0.589  32.629  1.00  0.00    -0.274 OA
HETATM   11  C18 UNK     1      19.324   0.614  30.324  1.00  0.00     0.038 A 
HETATM   12  C16 UNK     1      18.589   0.000  33.888  1.00  0.00     0.304 A 
HETATM   13  O3  UNK     1      18.041   0.569  34.826  1.00  0.00    -0.259 OA
HETATM   14  C20 UNK     1      19.937   0.003  29.231  1.00  0.00     0.003 A 
HETATM   15  C19 UNK     1      20.509  -1.264  29.371  1.00  0.00     0.001 A 
ENDBRANCH   3   5
BRANCH   2  16
HETATM   16  C8  UNK     1      19.941  -4.286  36.225  1.00  0.00     0.035 A 
HETATM   17  C10 UNK     1      20.877  -4.067  37.221  1.00  0.00     0.030 A 
HETATM   18  C6  UNK     1      21.036  -5.020  38.228  1.00  0.00     0.010 A 
HETATM   19  C3  UNK     1      20.259  -6.177  38.222  1.00  0.00    -0.054 A 
HETATM   20  C5  UNK     1      19.321  -6.383  37.210  1.00  0.00     0.010 A 
HETATM   21  C9  UNK     1      19.160  -5.430  36.204  1.00  0.00     0.030 A 
BRANCH  19  22
HETATM   22  C1  UNK     1      20.430  -7.196  39.298  1.00  0.00     0.014 C 
HETATM   23  C4  UNK     1      19.596  -8.463  39.012  1.00  0.00     0.015 C 
BRANCH  22  24
HETATM   24  C2  UNK     1      21.907  -7.604  39.556  1.00  0.00     0.004 C 
HETATM   25  C7  UNK     1      22.563  -8.239  38.335  1.00  0.00     0.006 C 
ENDBRANCH  22  24
ENDBRANCH  19  22
ENDBRANCH   2  16
TORSDOF 4
ENDMDL
MODEL 5
REMARK VINA RESULT:      -8.5      8.212     10.345
REMARK  4 active torsions:
REMARK  status: ('A' for Active; 'I' for Inactive)
REMARK       I    between atoms: C13_17  and  N1_4 
REMARK    1  A    between atoms: C8_12  and  N1_4 
REMARK    2  A    between atoms: C1_5  and  C2_6 
REMARK    3  A    between atoms: C1_5  and  C3_7 
REMARK    4  A    between atoms: C11_15  and  C13_17 
ROOT
HETATM    1  O2  UNK     1      21.324  -4.173  37.421  1.00  0.00    -0.267 OA
HETATM    2  N1  UNK     1      19.096  -4.050  36.669  1.00  0.00    -0.323 N 
HETATM    3  C13 UNK     1      20.277  -4.685  37.030  1.00  0.00     0.262 C 
HETATM    4  H14 UNK     1      18.320  -4.621  36.343  1.00  0.00     0.169 HD
ENDROOT
BRANCH   3   5
HETATM    5  C11 UNK     1      20.183  -6.144  36.900  1.00  0.00     0.108 A 
HETATM    6  C14 UNK     1      20.014  -6.829  38.037  1.00  0.00     0.037 A 
HETATM    7  C12 UNK     1      19.908  -8.280  38.010  1.00  0.00    -0.001 A 
HETATM    8  C15 UNK     1      19.986  -8.937  36.787  1.00  0.00     0.089 A 
HETATM    9  C17 UNK     1      19.732  -9.035  39.172  1.00  0.00     0.014 A 
HETATM   10  O1  UNK     1      20.163  -8.211  35.593  1.00  0.00    -0.274 OA
HETATM   11  C18 UNK     1      19.894 -10.324  36.692  1.00  0.00     0.038 A 
HETATM   12  C16 UNK     1      20.268  -6.822  35.587  1.00  0.00     0.304 A 
HETATM   13  O3  UNK     1      20.422  -6.199  34.543  1.00  0.00    -0.259 OA
HETATM   14  C20 UNK     1      19.718 -11.071  37.856  1.00  0.00     0.003 A 
HETATM   15  C19 UNK     1      19.638 -10.428  39.093  1.00  0.00     0.001 A 
ENDBRANCH   3   5
BRANCH   2  16
HETATM   16  C8  UNK     1      18.827  -2.659  36.672  1.00  0.00     0.035 A 
HETATM   17  C10 UNK     1      18.336  -2.068  37.823  1.00  0.00     0.030 A 
HETATM   18  C6  UNK     1      18.072  -0.698  37.825  1.00  0.00     0.010 A 
HETATM   19  C3  UNK     1      18.302   0.059  36.677  1.00  0.00    -0.054 A 
HETATM   20  C5  UNK     1      18.797  -0.554  35.525  1.00  0.00     0.010 A 
HETATM   21  C9  UNK     1      19.062  -1.923  35.523  1.00  0.00     0.030 A 
BRANCH  19  22
HETATM   22  C1  UNK     1      18.019   1.523  36.679  1.00  0.00     0.014 C 
HETATM   23  C4  UNK     1      18.299   2.154  35.298  1.00  0.00     0.015 C 
BRANCH  22  24
HETATM   24  C2  UNK     1      16.576   1.890  37.124  1.00  0.00     0.004 C 
HETATM   25  C7  UNK     1      15.523   0.966  36.523  1.00  0.00     0.006 C 
ENDBRANCH  22  24
ENDBRANCH  19  22
ENDBRANCH   2  16
TORSDOF 4
ENDMDL
MODEL 6
REMARK VINA RESULT:      -8.3      8.030     10.500
REMARK  4 active torsions:
REMARK  status: ('A' for Active; 'I' for Inactive)
REMARK       I    between atoms: C13_17  and  N1_4 
REMARK    1  A    between atoms: C8_12  and  N1_4 
REMARK    2  A    between atoms: C1_5  and  C2_6 
REMARK    3  A    between atoms: C1_5  and  C3_7 
REMARK    4  A    between atoms: C11_15  and  C13_17 
ROOT
HETATM    1  O2  UNK     1      18.467  -5.610  36.676  1.00  0.00    -0.267 OA
HETATM    2  N1  UNK     1      20.252  -4.079  36.801  1.00  0.00    -0.323 N 
HETATM    3  C13 UNK     1      19.663  -5.335  36.757  1.00  0.00     0.262 C 
HETATM    4  H14 UNK     1      21.263  -4.021  36.891  1.00  0.00     0.169 HD
ENDROOT
BRANCH   3   5
HETATM    5  C11 UNK     1      20.656  -6.414  36.820  1.00  0.00     0.108 A 
HETATM    6  C14 UNK     1      20.479  -7.431  35.968  1.00  0.00     0.037 A 
HETATM    7  C12 UNK     1      21.413  -8.547  35.954  1.00  0.00    -0.001 A 
HETATM    8  C15 UNK     1      22.486  -8.537  36.839  1.00  0.00     0.089 A 
HETATM    9  C17 UNK     1      21.267  -9.629  35.083  1.00  0.00     0.014 A 
HETATM   10  O1  UNK     1      22.667  -7.464  37.733  1.00  0.00    -0.274 OA
HETATM   11  C18 UNK     1      23.414  -9.575  36.877  1.00  0.00     0.038 A 
HETATM   12  C16 UNK     1      21.791  -6.383  37.770  1.00  0.00     0.304 A 
HETATM   13  O3  UNK     1      21.957  -5.453  38.552  1.00  0.00    -0.259 OA
HETATM   14  C20 UNK     1      23.262 -10.651  36.005  1.00  0.00     0.003 A 
HETATM   15  C19 UNK     1      22.190 -10.678  35.110  1.00  0.00     0.001 A 
ENDBRANCH   3   5
BRANCH   2  16
HETATM   16  C8  UNK     1      19.604  -2.819  36.761  1.00  0.00     0.035 A 
HETATM   17  C10 UNK     1      18.875  -2.399  37.859  1.00  0.00     0.030 A 
HETATM   18  C6  UNK     1      18.238  -1.158  37.820  1.00  0.00     0.010 A 
HETATM   19  C3  UNK     1      18.339  -0.359  36.682  1.00  0.00    -0.054 A 
HETATM   20  C5  UNK     1      19.078  -0.798  35.583  1.00  0.00     0.010 A 
HETATM   21  C9  UNK     1      19.716  -2.038  35.623  1.00  0.00     0.030 A 
BRANCH  19  22
HETATM   22  C1  UNK     1      17.658   0.967  36.640  1.00  0.00     0.014 C 
HETATM   23  C4  UNK     1      18.146   1.814  35.444  1.00  0.00     0.015 C 
BRANCH  22  24
HETATM   24  C2  UNK     1      16.107   0.883  36.606  1.00  0.00     0.004 C 
HETATM   25  C7  UNK     1      15.586   0.127  35.389  1.00  0.00     0.006 C 
ENDBRANCH  22  24
ENDBRANCH  19  22
ENDBRANCH   2  16
TORSDOF 4
ENDMDL
MODEL 7
REMARK VINA RESULT:      -8.3      2.012      8.960
REMARK  4 active torsions:
REMARK  status: ('A' for Active; 'I' for Inactive)
REMARK       I    between atoms: C13_17  and  N1_4 
REMARK    1  A    between atoms: C8_12  and  N1_4 
REMARK    2  A    between atoms: C1_5  and  C2_6 
REMARK    3  A    between atoms: C1_5  and  C3_7 
REMARK    4  A    between atoms: C11_15  and  C13_17 
ROOT
HETATM    1  O2  UNK     1      19.334   5.466  32.796  1.00  0.00    -0.267 OA
HETATM    2  N1  UNK     1      17.660   4.482  31.465  1.00  0.00    -0.323 N 
HETATM    3  C13 UNK     1      18.243   5.482  32.230  1.00  0.00     0.262 C 
HETATM    4  H14 UNK     1      16.733   4.645  31.080  1.00  0.00     0.169 HD
ENDROOT
BRANCH   3   5
HETATM    5  C11 UNK     1      17.390   6.673  32.327  1.00  0.00     0.108 A 
HETATM    6  C14 UNK     1      17.031   7.045  33.562  1.00  0.00     0.037 A 
HETATM    7  C12 UNK     1      16.188   8.213  33.760  1.00  0.00    -0.001 A 
HETATM    8  C15 UNK     1      15.763   8.932  32.648  1.00  0.00     0.089 A 
HETATM    9  C17 UNK     1      15.789   8.637  35.030  1.00  0.00     0.014 A 
HETATM   10  O1  UNK     1      16.144   8.537  31.351  1.00  0.00    -0.274 OA
HETATM   11  C18 UNK     1      14.953  10.059  32.769  1.00  0.00     0.038 A 
HETATM   12  C16 UNK     1      16.950   7.423  31.130  1.00  0.00     0.304 A 
HETATM   13  O3  UNK     1      17.276   7.087  29.997  1.00  0.00    -0.259 OA
HETATM   14  C20 UNK     1      14.559  10.476  34.039  1.00  0.00     0.003 A 
HETATM   15  C19 UNK     1      14.977   9.766  35.167  1.00  0.00     0.001 A 
ENDBRANCH   3   5
BRANCH   2  16
HETATM   16  C8  UNK     1      18.194   3.206  31.160  1.00  0.00     0.035 A 
HETATM   17  C10 UNK     1      18.359   2.281  32.176  1.00  0.00     0.030 A 
HETATM   18  C6  UNK     1      18.884   1.024  31.875  1.00  0.00     0.010 A 
HETATM   19  C3  UNK     1      19.238   0.712  30.563  1.00  0.00    -0.054 A 
HETATM   20  C5  UNK     1      19.065   1.656  29.550  1.00  0.00     0.010 A 
HETATM   21  C9  UNK     1      18.539   2.913  29.851  1.00  0.00     0.030 A 
BRANCH  19  22
HETATM   22  C1  UNK     1      19.800  -0.631  30.241  1.00  0.00     0.014 C 
HETATM   23  C4  UNK     1      20.703  -0.579  28.990  1.00  0.00     0.015 C 
BRANCH  22  24
HETATM   24  C2  UNK     1      20.586  -1.287  31.411  1.00  0.00     0.004 C 
HETATM   25  C7  UNK     1      20.755  -2.791  31.234  1.00  0.00     0.006 C 
ENDBRANCH  22  24
ENDBRANCH  19  22
ENDBRANCH   2  16
TORSDOF 4
ENDMDL
MODEL 8
REMARK VINA RESULT:      -8.2      2.920      9.835
REMARK  4 active torsions:
REMARK  status: ('A' for Active; 'I' for Inactive)
REMARK       I    between atoms: C13_17  and  N1_4 
REMARK    1  A    between atoms: C8_12  and  N1_4 
REMARK    2  A    between atoms: C1_5  and  C2_6 
REMARK    3  A    between atoms: C1_5  and  C3_7 
REMARK    4  A    between atoms: C11_15  and  C13_17 
ROOT
HETATM    1  O2  UNK     1      19.617   7.835  33.950  1.00  0.00    -0.267 OA
HETATM    2  N1  UNK     1      17.725   7.374  32.624  1.00  0.00    -0.323 N 
HETATM    3  C13 UNK     1      18.493   8.099  33.525  1.00  0.00     0.262 C 
HETATM    4  H14 UNK     1      16.798   7.721  32.390  1.00  0.00     0.169 HD
ENDROOT
BRANCH   3   5
HETATM    5  C11 UNK     1      17.810   9.316  33.981  1.00  0.00     0.108 A 
HETATM    6  C14 UNK     1      18.450  10.471  33.761  1.00  0.00     0.037 A 
HETATM    7  C12 UNK     1      17.852  11.730  34.176  1.00  0.00    -0.001 A 
HETATM    8  C15 UNK     1      16.611  11.712  34.802  1.00  0.00     0.089 A 
HETATM    9  C17 UNK     1      18.484  12.959  33.967  1.00  0.00     0.014 A 
HETATM   10  O1  UNK     1      15.942  10.494  35.030  1.00  0.00    -0.274 OA
HETATM   11  C18 UNK     1      15.985  12.883  35.224  1.00  0.00     0.038 A 
HETATM   12  C16 UNK     1      16.488   9.272  34.645  1.00  0.00     0.304 A 
HETATM   13  O3  UNK     1      15.898   8.217  34.848  1.00  0.00    -0.259 OA
HETATM   14  C20 UNK     1      16.622  14.105  35.013  1.00  0.00     0.003 A 
HETATM   15  C19 UNK     1      17.869  14.142  34.385  1.00  0.00     0.001 A 
ENDBRANCH   3   5
BRANCH   2  16
HETATM   16  C8  UNK     1      18.065   6.157  31.983  1.00  0.00     0.035 A 
HETATM   17  C10 UNK     1      17.808   4.960  32.627  1.00  0.00     0.030 A 
HETATM   18  C6  UNK     1      18.141   3.761  31.994  1.00  0.00     0.010 A 
HETATM   19  C3  UNK     1      18.728   3.780  30.730  1.00  0.00    -0.054 A 
HETATM   20  C5  UNK     1      18.981   4.996  30.096  1.00  0.00     0.010 A 
HETATM   21  C9  UNK     1      18.646   6.194  30.727  1.00  0.00     0.030 A 
BRANCH  19  22
HETATM   22  C1  UNK     1      19.085   2.499  30.055  1.00  0.00     0.014 C 
HETATM   23  C4  UNK     1      19.116   1.324  31.055  1.00  0.00     0.015 C 
BRANCH  22  24
HETATM   24  C2  UNK     1      18.158   2.130  28.863  1.00  0.00     0.004 C 
HETATM   25  C7  UNK     1      18.400   0.717  28.346  1.00  0.00     0.006 C 
ENDBRANCH  22  24
ENDBRANCH  19  22
ENDBRANCH   2  16
TORSDOF 4
ENDMDL
MODEL 9
REMARK VINA RESULT:      -8.2     14.347     16.521
REMARK  4 active torsions:
REMARK  status: ('A' for Active; 'I' for Inactive)
REMARK       I    between atoms: C13_17  and  N1_4 
REMARK    1  A    between atoms: C8_12  and  N1_4 
REMARK    2  A    between atoms: C1_5  and  C2_6 
REMARK    3  A    between atoms: C1_5  and  C3_7 
REMARK    4  A    between atoms: C11_15  and  C13_17 
ROOT
HETATM    1  O2  UNK     1      26.233  -9.095  39.446  1.00  0.00    -0.267 OA
HETATM    2  N1  UNK     1      24.896  -7.478  38.377  1.00  0.00    -0.323 N 
HETATM    3  C13 UNK     1      26.064  -7.998  38.917  1.00  0.00     0.262 C 
HETATM    4  H14 UNK     1      24.917  -6.537  37.993  1.00  0.00     0.169 HD
ENDROOT
BRANCH   3   5
HETATM    5  C11 UNK     1      27.190  -7.063  38.804  1.00  0.00     0.108 A 
HETATM    6  C14 UNK     1      28.404  -7.611  38.685  1.00  0.00     0.037 A 
HETATM    7  C12 UNK     1      29.582  -6.766  38.565  1.00  0.00    -0.001 A 
HETATM    8  C15 UNK     1      29.423  -5.385  38.578  1.00  0.00     0.089 A 
HETATM    9  C17 UNK     1      30.869  -7.295  38.438  1.00  0.00     0.014 A 
HETATM   10  O1  UNK     1      28.142  -4.813  38.704  1.00  0.00    -0.274 OA
HETATM   11  C18 UNK     1      30.509  -4.520  38.469  1.00  0.00     0.038 A 
HETATM   12  C16 UNK     1      26.996  -5.596  38.820  1.00  0.00     0.304 A 
HETATM   13  O3  UNK     1      25.885  -5.089  38.929  1.00  0.00    -0.259 OA
HETATM   14  C20 UNK     1      31.790  -5.055  38.343  1.00  0.00     0.003 A 
HETATM   15  C19 UNK     1      31.969  -6.440  38.328  1.00  0.00     0.001 A 
ENDBRANCH   3   5
BRANCH   2  16
HETATM   16  C8  UNK     1      23.624  -8.098  38.311  1.00  0.00     0.035 A 
HETATM   17  C10 UNK     1      22.764  -7.993  39.390  1.00  0.00     0.030 A 
HETATM   18  C6  UNK     1      21.510  -8.603  39.325  1.00  0.00     0.010 A 
HETATM   19  C3  UNK     1      21.138  -9.310  38.183  1.00  0.00    -0.054 A 
HETATM   20  C5  UNK     1      22.018  -9.407  37.104  1.00  0.00     0.010 A 
HETATM   21  C9  UNK     1      23.270  -8.796  37.169  1.00  0.00     0.030 A 
BRANCH  19  22
HETATM   22  C1  UNK     1      19.799  -9.963  38.113  1.00  0.00     0.014 C 
HETATM   23  C4  UNK     1      19.522 -10.816  39.370  1.00  0.00     0.015 C 
BRANCH  22  24
HETATM   24  C2  UNK     1      18.621  -8.973  37.898  1.00  0.00     0.004 C 
HETATM   25  C7  UNK     1      18.593  -8.391  36.489  1.00  0.00     0.006 C 
ENDBRANCH  22  24
ENDBRANCH  19  22
ENDBRANCH   2  16
TORSDOF 4
ENDMDL
MODEL 10
REMARK VINA RESULT:      -8.0     14.577     16.788
REMARK  4 active torsions:
REMARK  status: ('A' for Active; 'I' for Inactive)
REMARK       I    between atoms: C13_17  and  N1_4 
REMARK    1  A    between atoms: C8_12  and  N1_4 
REMARK    2  A    between atoms: C1_5  and  C2_6 
REMARK    3  A    between atoms: C1_5  and  C3_7 
REMARK    4  A    between atoms: C11_15  and  C13_17 
ROOT
HETATM    1  O2  UNK     1      26.055  -9.533  39.871  1.00  0.00    -0.267 OA
HETATM    2  N1  UNK     1      25.253  -7.774  38.526  1.00  0.00    -0.323 N 
HETATM    3  C13 UNK     1      26.219  -8.539  39.166  1.00  0.00     0.262 C 
HETATM    4  H14 UNK     1      25.555  -6.962  37.992  1.00  0.00     0.169 HD
ENDROOT
BRANCH   3   5
HETATM    5  C11 UNK     1      27.576  -8.036  38.921  1.00  0.00     0.108 A 
HETATM    6  C14 UNK     1      27.740  -6.711  39.009  1.00  0.00     0.037 A 
HETATM    7  C12 UNK     1      29.049  -6.117  38.785  1.00  0.00    -0.001 A 
HETATM    8  C15 UNK     1      30.121  -6.949  38.477  1.00  0.00     0.089 A 
HETATM    9  C17 UNK     1      29.266  -4.740  38.866  1.00  0.00     0.014 A 
HETATM   10  O1  UNK     1      29.942  -8.343  38.387  1.00  0.00    -0.274 OA
HETATM   11  C18 UNK     1      31.399  -6.444  38.250  1.00  0.00     0.038 A 
HETATM   12  C16 UNK     1      28.701  -8.940  38.596  1.00  0.00     0.304 A 
HETATM   13  O3  UNK     1      28.556 -10.154  38.515  1.00  0.00    -0.259 OA
HETATM   14  C20 UNK     1      31.608  -5.069  38.333  1.00  0.00     0.003 A 
HETATM   15  C19 UNK     1      30.543  -4.218  38.640  1.00  0.00     0.001 A 
ENDBRANCH   3   5
BRANCH   2  16
HETATM   16  C8  UNK     1      23.850  -7.966  38.540  1.00  0.00     0.035 A 
HETATM   17  C10 UNK     1      23.114  -7.496  39.614  1.00  0.00     0.030 A 
HETATM   18  C6  UNK     1      21.731  -7.685  39.626  1.00  0.00     0.010 A 
HETATM   19  C3  UNK     1      21.107  -8.341  38.566  1.00  0.00    -0.054 A 
HETATM   20  C5  UNK     1      21.864  -8.808  37.492  1.00  0.00     0.010 A 
HETATM   21  C9  UNK     1      23.246  -8.619  37.478  1.00  0.00     0.030 A 
BRANCH  19  22
HETATM   22  C1  UNK     1      19.630  -8.543  38.581  1.00  0.00     0.014 C 
HETATM   23  C4  UNK     1      18.887  -7.311  38.020  1.00  0.00     0.015 C 
BRANCH  22  24
HETATM   24  C2  UNK     1      19.156  -9.813  37.822  1.00  0.00     0.004 C 
HETATM   25  C7  UNK     1      19.379 -11.092  38.620  1.00  0.00     0.006 C 
ENDBRANCH  22  24
ENDBRANCH  19  22
ENDBRANCH   2  16
TORSDOF 4
ENDMDL
