MODEL 1
REMARK VINA RESULT:     -11.2      0.000      0.000
REMARK  6 active torsions:
REMARK  status: ('A' for Active; 'I' for Inactive)
REMARK    1  A    between atoms: C5_15  and  N1_8 
REMARK    2  A    between atoms: C6_16  and  N2_9 
REMARK    3  A    between atoms: C17_27  and  N3_10 
REMARK       I    between atoms: C9_19  and  N3_10 
REMARK    4  A    between atoms: C5_15  and  C7_17 
REMARK    5  A    between atoms: C6_16  and  C9_19 
REMARK    6  A    between atoms: C21_31  and  C24_34 
ROOT
HETATM    1  N1  UNK     1      19.254  -3.133  36.134  1.00  0.00     0.096 N 
HETATM    2  N2  UNK     1      18.307  -0.527  35.314  1.00  0.00     0.100 N 
HETATM    3  C1  UNK     1      20.039  -2.287  35.226  1.00  0.00     0.303 C 
HETATM    4  C2  UNK     1      18.435  -2.304  37.027  1.00  0.00     0.303 C 
HETATM    5  C3  UNK     1      19.125  -1.357  34.420  1.00  0.00     0.303 C 
HETATM    6  C4  UNK     1      17.522  -1.374  36.222  1.00  0.00     0.303 C 
ENDROOT
BRANCH   2   7
HETATM    7  C6  UNK     1      17.436   0.358  34.545  1.00  0.00     0.375 C 
BRANCH   7   8
HETATM    8  C9  UNK     1      18.186   1.634  34.204  1.00  0.00     0.250 C 
HETATM    9  O2  UNK     1      19.049   2.109  34.935  1.00  0.00    -0.271 OA
HETATM   10  N3  UNK     1      17.749   2.137  32.980  1.00  0.00    -0.324 N 
HETATM   11  H15 UNK     1      17.017   1.627  32.489  1.00  0.00     0.169 HD
BRANCH  10  12
HETATM   12  C17 UNK     1      18.198   3.303  32.316  1.00  0.00     0.057 A 
HETATM   13  C19 UNK     1      18.253   4.499  33.033  1.00  0.00     0.047 A 
HETATM   14  C21 UNK     1      18.691   5.666  32.408  1.00  0.00     0.050 A 
HETATM   15  C23 UNK     1      19.075   5.638  31.066  1.00  0.00     0.018 A 
HETATM   16  C22 UNK     1      19.020   4.443  30.351  1.00  0.00     0.027 A 
HETATM   17  C20 UNK     1      18.581   3.275  30.976  1.00  0.00     0.060 A 
HETATM   18 Cl1  UNK     1      18.530   1.817  30.051  1.00  0.00    -0.082 Cl
BRANCH  14  19
HETATM   19  C24 UNK     1      18.749   6.945  33.172  1.00  0.00     0.417 C 
HETATM   20  F1  UNK     1      18.066   7.970  32.581  1.00  0.00    -0.166 F 
HETATM   21  F2  UNK     1      18.228   6.852  34.433  1.00  0.00    -0.166 F 
HETATM   22  F3  UNK     1      20.024   7.403  33.336  1.00  0.00    -0.166 F 
ENDBRANCH  14  19
ENDBRANCH  10  12
ENDBRANCH   7   8
ENDBRANCH   2   7
BRANCH   1  23
HETATM   23  C5  UNK     1      20.128  -4.018  36.903  1.00  0.00     0.312 C 
BRANCH  23  24
HETATM   24  C7  UNK     1      20.149  -5.403  36.355  1.00  0.00    -0.011 A 
HETATM   25  C10 UNK     1      20.253  -5.624  35.037  1.00  0.00     0.092 A 
HETATM   26  C13 UNK     1      20.278  -6.974  34.449  1.00  0.00     0.288 A 
HETATM   27  O1  UNK     1      20.189  -8.039  35.331  1.00  0.00    -0.275 OA
HETATM   28  O3  UNK     1      20.374  -7.138  33.237  1.00  0.00    -0.260 OA
HETATM   29  C11 UNK     1      20.080  -7.837  36.721  1.00  0.00     0.090 A 
HETATM   30  C8  UNK     1      20.057  -6.552  37.265  1.00  0.00     0.006 A 
HETATM   31  C14 UNK     1      19.996  -8.984  37.514  1.00  0.00     0.045 A 
HETATM   32  C12 UNK     1      19.946  -6.437  38.657  1.00  0.00     0.015 A 
HETATM   33  C16 UNK     1      19.861  -7.577  39.465  1.00  0.00     0.007 A 
HETATM   34  C15 UNK     1      19.887  -8.848  38.894  1.00  0.00    -0.059 A 
HETATM   35  C18 UNK     1      19.796 -10.057  39.762  1.00  0.00     0.048 C 
ENDBRANCH  23  24
ENDBRANCH   1  23
TORSDOF 6
ENDMDL
MODEL 2
REMARK VINA RESULT:     -10.9      3.393      3.912
REMARK  6 active torsions:
REMARK  status: ('A' for Active; 'I' for Inactive)
REMARK    1  A    between atoms: C5_15  and  N1_8 
REMARK    2  A    between atoms: C6_16  and  N2_9 
REMARK    3  A    between atoms: C17_27  and  N3_10 
REMARK       I    between atoms: C9_19  and  N3_10 
REMARK    4  A    between atoms: C5_15  and  C7_17 
REMARK    5  A    between atoms: C6_16  and  C9_19 
REMARK    6  A    between atoms: C21_31  and  C24_34 
ROOT
HETATM    1  N1  UNK     1      19.629  -3.372  36.549  1.00  0.00     0.096 N 
HETATM    2  N2  UNK     1      18.860  -0.621  36.101  1.00  0.00     0.100 N 
HETATM    3  C1  UNK     1      20.454  -2.472  35.733  1.00  0.00     0.303 C 
HETATM    4  C2  UNK     1      18.892  -2.611  37.566  1.00  0.00     0.303 C 
HETATM    5  C3  UNK     1      19.594  -1.382  35.083  1.00  0.00     0.303 C 
HETATM    6  C4  UNK     1      18.034  -1.521  36.916  1.00  0.00     0.303 C 
ENDROOT
BRANCH   2   7
HETATM    7  C6  UNK     1      18.040   0.417  35.481  1.00  0.00     0.375 C 
BRANCH   7   8
HETATM    8  C9  UNK     1      17.947   0.162  33.987  1.00  0.00     0.250 C 
HETATM    9  O2  UNK     1      17.301  -0.769  33.514  1.00  0.00    -0.271 OA
HETATM   10  N3  UNK     1      18.678   1.121  33.287  1.00  0.00    -0.324 N 
HETATM   11  H15 UNK     1      19.166   1.833  33.826  1.00  0.00     0.169 HD
BRANCH  10  12
HETATM   12  C17 UNK     1      18.841   1.229  31.886  1.00  0.00     0.057 A 
HETATM   13  C19 UNK     1      19.357   0.137  31.188  1.00  0.00     0.047 A 
HETATM   14  C21 UNK     1      19.529   0.211  29.806  1.00  0.00     0.050 A 
HETATM   15  C23 UNK     1      19.187   1.378  29.122  1.00  0.00     0.018 A 
HETATM   16  C22 UNK     1      18.672   2.470  29.820  1.00  0.00     0.027 A 
HETATM   17  C20 UNK     1      18.499   2.396  31.203  1.00  0.00     0.060 A 
HETATM   18 Cl1  UNK     1      17.858   3.771  32.027  1.00  0.00    -0.082 Cl
BRANCH  14  19
HETATM   19  C24 UNK     1      20.081  -0.955  29.059  1.00  0.00     0.417 C 
HETATM   20  F1  UNK     1      21.382  -0.796  28.675  1.00  0.00    -0.166 F 
HETATM   21  F2  UNK     1      20.062  -2.120  29.774  1.00  0.00    -0.166 F 
HETATM   22  F3  UNK     1      19.391  -1.218  27.912  1.00  0.00    -0.166 F 
ENDBRANCH  14  19
ENDBRANCH  10  12
ENDBRANCH   7   8
ENDBRANCH   2   7
BRANCH   1  23
HETATM   23  C5  UNK     1      20.451  -4.409  37.170  1.00  0.00     0.312 C 
BRANCH  23  24
HETATM   24  C7  UNK     1      20.308  -5.724  36.485  1.00  0.00    -0.011 A 
HETATM   25  C10 UNK     1      20.388  -5.823  35.151  1.00  0.00     0.092 A 
HETATM   26  C13 UNK     1      20.254  -7.100  34.430  1.00  0.00     0.288 A 
HETATM   27  O1  UNK     1      20.036  -8.230  35.202  1.00  0.00    -0.275 OA
HETATM   28  O3  UNK     1      20.332  -7.151  33.208  1.00  0.00    -0.260 OA
HETATM   29  C11 UNK     1      19.948  -8.158  36.607  1.00  0.00     0.090 A 
HETATM   30  C8  UNK     1      20.077  -6.940  37.276  1.00  0.00     0.006 A 
HETATM   31  C14 UNK     1      19.727  -9.360  37.281  1.00  0.00     0.045 A 
HETATM   32  C12 UNK     1      19.977  -6.953  38.674  1.00  0.00     0.015 A 
HETATM   33  C16 UNK     1      19.755  -8.150  39.364  1.00  0.00     0.007 A 
HETATM   34  C15 UNK     1      19.630  -9.352  38.669  1.00  0.00    -0.059 A 
HETATM   35  C18 UNK     1      19.395 -10.623  39.412  1.00  0.00     0.048 C 
ENDBRANCH  23  24
ENDBRANCH   1  23
TORSDOF 6
ENDMDL
MODEL 3
REMARK VINA RESULT:     -10.3      3.875      4.717
REMARK  6 active torsions:
REMARK  status: ('A' for Active; 'I' for Inactive)
REMARK    1  A    between atoms: C5_15  and  N1_8 
REMARK    2  A    between atoms: C6_16  and  N2_9 
REMARK    3  A    between atoms: C17_27  and  N3_10 
REMARK       I    between atoms: C9_19  and  N3_10 
REMARK    4  A    between atoms: C5_15  and  C7_17 
REMARK    5  A    between atoms: C6_16  and  C9_19 
REMARK    6  A    between atoms: C21_31  and  C24_34 
ROOT
HETATM    1  N1  UNK     1      19.438  -4.236  36.728  1.00  0.00     0.096 N 
HETATM    2  N2  UNK     1      18.559  -1.696  35.663  1.00  0.00     0.100 N 
HETATM    3  C1  UNK     1      18.061  -3.764  36.920  1.00  0.00     0.303 C 
HETATM    4  C2  UNK     1      19.995  -3.699  35.480  1.00  0.00     0.303 C 
HETATM    5  C3  UNK     1      18.004  -2.232  36.911  1.00  0.00     0.303 C 
HETATM    6  C4  UNK     1      19.937  -2.168  35.471  1.00  0.00     0.303 C 
ENDROOT
BRANCH   2   7
HETATM    7  C6  UNK     1      18.505  -0.236  35.656  1.00  0.00     0.375 C 
BRANCH   7   8
HETATM    8  C9  UNK     1      18.020   0.245  34.300  1.00  0.00     0.250 C 
HETATM    9  O2  UNK     1      16.842   0.501  34.071  1.00  0.00    -0.271 OA
HETATM   10  N3  UNK     1      19.091   0.346  33.413  1.00  0.00    -0.324 N 
HETATM   11  H15 UNK     1      20.017   0.094  33.753  1.00  0.00     0.169 HD
BRANCH  10  12
HETATM   12  C17 UNK     1      19.056   0.757  32.060  1.00  0.00     0.057 A 
HETATM   13  C19 UNK     1      19.468  -0.144  31.078  1.00  0.00     0.047 A 
HETATM   14  C21 UNK     1      19.445   0.230  29.735  1.00  0.00     0.050 A 
HETATM   15  C23 UNK     1      19.010   1.506  29.373  1.00  0.00     0.018 A 
HETATM   16  C22 UNK     1      18.598   2.406  30.354  1.00  0.00     0.027 A 
HETATM   17  C20 UNK     1      18.622   2.032  31.698  1.00  0.00     0.060 A 
HETATM   18 Cl1  UNK     1      18.103   3.180  32.880  1.00  0.00    -0.082 Cl
BRANCH  14  19
HETATM   19  C24 UNK     1      19.886  -0.732  28.684  1.00  0.00     0.417 C 
HETATM   20  F1  UNK     1      19.792  -2.041  29.064  1.00  0.00    -0.166 F 
HETATM   21  F2  UNK     1      19.165  -0.646  27.526  1.00  0.00    -0.166 F 
HETATM   22  F3  UNK     1      21.188  -0.550  28.319  1.00  0.00    -0.166 F 
ENDBRANCH  14  19
ENDBRANCH  10  12
ENDBRANCH   7   8
ENDBRANCH   2   7
BRANCH   1  23
HETATM   23  C5  UNK     1      19.491  -5.697  36.734  1.00  0.00     0.312 C 
BRANCH  23  24
HETATM   24  C7  UNK     1      20.796  -6.211  37.234  1.00  0.00    -0.011 A 
HETATM   25  C10 UNK     1      21.540  -5.496  38.090  1.00  0.00     0.092 A 
HETATM   26  C13 UNK     1      22.835  -5.962  38.612  1.00  0.00     0.288 A 
HETATM   27  O1  UNK     1      23.272  -7.203  38.176  1.00  0.00    -0.275 OA
HETATM   28  O3  UNK     1      23.488  -5.279  39.394  1.00  0.00    -0.260 OA
HETATM   29  C11 UNK     1      22.512  -7.977  37.277  1.00  0.00     0.090 A 
HETATM   30  C8  UNK     1      21.286  -7.523  36.790  1.00  0.00     0.006 A 
HETATM   31  C14 UNK     1      23.051  -9.211  36.906  1.00  0.00     0.045 A 
HETATM   32  C12 UNK     1      20.592  -8.353  35.900  1.00  0.00     0.015 A 
HETATM   33  C16 UNK     1      21.119  -9.592  35.518  1.00  0.00     0.007 A 
HETATM   34  C15 UNK     1      22.346 -10.021  36.021  1.00  0.00    -0.059 A 
HETATM   35  C18 UNK     1      22.901 -11.342  35.611  1.00  0.00     0.048 C 
ENDBRANCH  23  24
ENDBRANCH   1  23
TORSDOF 6
ENDMDL
MODEL 4
REMARK VINA RESULT:     -10.0      6.931     11.822
REMARK  6 active torsions:
REMARK  status: ('A' for Active; 'I' for Inactive)
REMARK    1  A    between atoms: C5_15  and  N1_8 
REMARK    2  A    between atoms: C6_16  and  N2_9 
REMARK    3  A    between atoms: C17_27  and  N3_10 
REMARK       I    between atoms: C9_19  and  N3_10 
REMARK    4  A    between atoms: C5_15  and  C7_17 
REMARK    5  A    between atoms: C6_16  and  C9_19 
REMARK    6  A    between atoms: C21_31  and  C24_34 
ROOT
HETATM    1  N1  UNK     1      20.001  -3.938  36.669  1.00  0.00     0.096 N 
HETATM    2  N2  UNK     1      20.177  -6.786  37.138  1.00  0.00     0.100 N 
HETATM    3  C1  UNK     1      20.849  -4.485  37.736  1.00  0.00     0.303 C 
HETATM    4  C2  UNK     1      19.878  -4.901  35.567  1.00  0.00     0.303 C 
HETATM    5  C3  UNK     1      20.297  -5.823  38.240  1.00  0.00     0.303 C 
HETATM    6  C4  UNK     1      19.328  -6.240  36.071  1.00  0.00     0.303 C 
ENDROOT
BRANCH   2   7
HETATM    7  C6  UNK     1      19.650  -8.061  37.619  1.00  0.00     0.375 C 
BRANCH   7   8
HETATM    8  C9  UNK     1      20.793  -9.047  37.791  1.00  0.00     0.250 C 
HETATM    9  O2  UNK     1      20.792  -9.915  38.658  1.00  0.00    -0.271 OA
HETATM   10  N3  UNK     1      21.782  -8.809  36.838  1.00  0.00    -0.324 N 
HETATM   11  H15 UNK     1      21.638  -8.044  36.182  1.00  0.00     0.169 HD
BRANCH  10  12
HETATM   12  C17 UNK     1      23.001  -9.507  36.666  1.00  0.00     0.057 A 
HETATM   13  C19 UNK     1      24.157  -8.985  37.247  1.00  0.00     0.047 A 
HETATM   14  C21 UNK     1      25.373  -9.649  37.096  1.00  0.00     0.050 A 
HETATM   15  C23 UNK     1      25.435 -10.836  36.365  1.00  0.00     0.018 A 
HETATM   16  C22 UNK     1      24.280 -11.357  35.784  1.00  0.00     0.027 A 
HETATM   17  C20 UNK     1      23.062 -10.693  35.935  1.00  0.00     0.060 A 
HETATM   18 Cl1  UNK     1      21.656 -11.374  35.199  1.00  0.00    -0.082 Cl
BRANCH  14  19
HETATM   19  C24 UNK     1      26.610  -9.091  37.716  1.00  0.00     0.417 C 
HETATM   20  F1  UNK     1      27.430 -10.041  38.255  1.00  0.00    -0.166 F 
HETATM   21  F2  UNK     1      27.396  -8.399  36.838  1.00  0.00    -0.166 F 
HETATM   22  F3  UNK     1      26.342  -8.220  38.732  1.00  0.00    -0.166 F 
ENDBRANCH  14  19
ENDBRANCH  10  12
ENDBRANCH   7   8
ENDBRANCH   2   7
BRANCH   1  23
HETATM   23  C5  UNK     1      20.530  -2.663  36.188  1.00  0.00     0.312 C 
BRANCH  23  24
HETATM   24  C7  UNK     1      19.558  -1.944  35.318  1.00  0.00    -0.011 A 
HETATM   25  C10 UNK     1      18.482  -1.336  35.836  1.00  0.00     0.092 A 
HETATM   26  C13 UNK     1      17.495  -0.613  35.016  1.00  0.00     0.288 A 
HETATM   27  O1  UNK     1      17.725  -0.582  33.649  1.00  0.00    -0.275 OA
HETATM   28  O3  UNK     1      16.522  -0.069  35.526  1.00  0.00    -0.260 OA
HETATM   29  C11 UNK     1      18.847  -1.212  33.076  1.00  0.00     0.090 A 
HETATM   30  C8  UNK     1      19.774  -1.893  33.866  1.00  0.00     0.006 A 
HETATM   31  C14 UNK     1      18.977  -1.115  31.689  1.00  0.00     0.045 A 
HETATM   32  C12 UNK     1      20.864  -2.492  33.219  1.00  0.00     0.015 A 
HETATM   33  C16 UNK     1      21.007  -2.405  31.829  1.00  0.00     0.007 A 
HETATM   34  C15 UNK     1      20.065  -1.717  31.066  1.00  0.00    -0.059 A 
HETATM   35  C18 UNK     1      20.225  -1.627  29.586  1.00  0.00     0.048 C 
ENDBRANCH  23  24
ENDBRANCH   1  23
TORSDOF 6
ENDMDL
MODEL 5
REMARK VINA RESULT:      -9.9      1.891      2.516
REMARK  6 active torsions:
REMARK  status: ('A' for Active; 'I' for Inactive)
REMARK    1  A    between atoms: C5_15  and  N1_8 
REMARK    2  A    between atoms: C6_16  and  N2_9 
REMARK    3  A    between atoms: C17_27  and  N3_10 
REMARK       I    between atoms: C9_19  and  N3_10 
REMARK    4  A    between atoms: C5_15  and  C7_17 
REMARK    5  A    between atoms: C6_16  and  C9_19 
REMARK    6  A    between atoms: C21_31  and  C24_34 
ROOT
HETATM    1  N1  UNK     1      19.559  -3.937  36.454  1.00  0.00     0.096 N 
HETATM    2  N2  UNK     1      18.430  -1.337  35.884  1.00  0.00     0.100 N 
HETATM    3  C1  UNK     1      18.129  -3.669  36.645  1.00  0.00     0.303 C 
HETATM    4  C2  UNK     1      20.102  -3.087  35.387  1.00  0.00     0.303 C 
HETATM    5  C3  UNK     1      17.888  -2.186  36.952  1.00  0.00     0.303 C 
HETATM    6  C4  UNK     1      19.861  -1.606  35.693  1.00  0.00     0.303 C 
ENDROOT
BRANCH   2   7
HETATM    7  C6  UNK     1      18.202   0.076  36.178  1.00  0.00     0.375 C 
BRANCH   7   8
HETATM    8  C9  UNK     1      17.642   0.764  34.946  1.00  0.00     0.250 C 
HETATM    9  O2  UNK     1      16.501   0.566  34.538  1.00  0.00    -0.271 OA
HETATM   10  N3  UNK     1      18.597   1.617  34.395  1.00  0.00    -0.324 N 
HETATM   11  H15 UNK     1      19.506   1.671  34.849  1.00  0.00     0.169 HD
BRANCH  10  12
HETATM   12  C17 UNK     1      18.465   2.434  33.248  1.00  0.00     0.057 A 
HETATM   13  C19 UNK     1      18.116   3.774  33.420  1.00  0.00     0.047 A 
HETATM   14  C21 UNK     1      17.979   4.607  32.310  1.00  0.00     0.050 A 
HETATM   15  C23 UNK     1      18.189   4.100  31.027  1.00  0.00     0.018 A 
HETATM   16  C22 UNK     1      18.537   2.761  30.855  1.00  0.00     0.027 A 
HETATM   17  C20 UNK     1      18.675   1.928  31.965  1.00  0.00     0.060 A 
HETATM   18 Cl1  UNK     1      19.107   0.276  31.706  1.00  0.00    -0.082 Cl
BRANCH  14  19
HETATM   19  C24 UNK     1      17.605   6.039  32.493  1.00  0.00     0.417 C 
HETATM   20  F1  UNK     1      18.422   6.909  31.828  1.00  0.00    -0.166 F 
HETATM   21  F2  UNK     1      16.343   6.334  32.058  1.00  0.00    -0.166 F 
HETATM   22  F3  UNK     1      17.642   6.429  33.800  1.00  0.00    -0.166 F 
ENDBRANCH  14  19
ENDBRANCH  10  12
ENDBRANCH   7   8
ENDBRANCH   2   7
BRANCH   1  23
HETATM   23  C5  UNK     1      19.786  -5.351  36.158  1.00  0.00     0.312 C 
BRANCH  23  24
HETATM   24  C7  UNK     1      20.622  -6.015  37.197  1.00  0.00    -0.011 A 
HETATM   25  C10 UNK     1      21.718  -5.421  37.688  1.00  0.00     0.092 A 
HETATM   26  C13 UNK     1      22.575  -6.038  38.714  1.00  0.00     0.288 A 
HETATM   27  O1  UNK     1      22.197  -7.291  39.169  1.00  0.00    -0.275 OA
HETATM   28  O3  UNK     1      23.571  -5.463  39.140  1.00  0.00    -0.260 OA
HETATM   29  C11 UNK     1      21.050  -7.941  38.672  1.00  0.00     0.090 A 
HETATM   30  C8  UNK     1      20.248  -7.344  37.698  1.00  0.00     0.006 A 
HETATM   31  C14 UNK     1      20.767  -9.201  39.203  1.00  0.00     0.045 A 
HETATM   32  C12 UNK     1      19.124  -8.055  37.256  1.00  0.00     0.015 A 
HETATM   33  C16 UNK     1      18.827  -9.320  37.779  1.00  0.00     0.007 A 
HETATM   34  C15 UNK     1      19.647  -9.891  38.750  1.00  0.00    -0.059 A 
HETATM   35  C18 UNK     1      19.323 -11.238  39.302  1.00  0.00     0.048 C 
ENDBRANCH  23  24
ENDBRANCH   1  23
TORSDOF 6
ENDMDL
MODEL 6
REMARK VINA RESULT:      -9.8      3.285      4.245
REMARK  6 active torsions:
REMARK  status: ('A' for Active; 'I' for Inactive)
REMARK    1  A    between atoms: C5_15  and  N1_8 
REMARK    2  A    between atoms: C6_16  and  N2_9 
REMARK    3  A    between atoms: C17_27  and  N3_10 
REMARK       I    between atoms: C9_19  and  N3_10 
REMARK    4  A    between atoms: C5_15  and  C7_17 
REMARK    5  A    between atoms: C6_16  and  C9_19 
REMARK    6  A    between atoms: C21_31  and  C24_34 
ROOT
HETATM    1  N1  UNK     1      19.515  -4.437  36.899  1.00  0.00     0.096 N 
HETATM    2  N2  UNK     1      18.866  -1.967  35.545  1.00  0.00     0.100 N 
HETATM    3  C1  UNK     1      18.129  -3.965  36.797  1.00  0.00     0.303 C 
HETATM    4  C2  UNK     1      20.303  -3.967  35.753  1.00  0.00     0.303 C 
HETATM    5  C3  UNK     1      18.080  -2.437  36.693  1.00  0.00     0.303 C 
HETATM    6  C4  UNK     1      20.253  -2.439  35.648  1.00  0.00     0.303 C 
ENDROOT
BRANCH   2   7
HETATM    7  C6  UNK     1      18.820  -0.510  35.447  1.00  0.00     0.375 C 
BRANCH   7   8
HETATM    8  C9  UNK     1      18.427  -0.111  34.035  1.00  0.00     0.250 C 
HETATM    9  O2  UNK     1      17.345   0.404  33.770  1.00  0.00    -0.271 OA
HETATM   10  N3  UNK     1      19.457  -0.412  33.145  1.00  0.00    -0.324 N 
HETATM   11  H15 UNK     1      20.299  -0.843  33.520  1.00  0.00     0.169 HD
BRANCH  10  12
HETATM   12  C17 UNK     1      19.481  -0.195  31.747  1.00  0.00     0.057 A 
HETATM   13  C19 UNK     1      18.885   0.961  31.241  1.00  0.00     0.047 A 
HETATM   14  C21 UNK     1      18.892   1.205  29.868  1.00  0.00     0.050 A 
HETATM   15  C23 UNK     1      19.493   0.292  29.000  1.00  0.00     0.018 A 
HETATM   16  C22 UNK     1      20.088  -0.863  29.506  1.00  0.00     0.027 A 
HETATM   17  C20 UNK     1      20.082  -1.107  30.880  1.00  0.00     0.060 A 
HETATM   18 Cl1  UNK     1      20.830  -2.550  31.463  1.00  0.00    -0.082 Cl
BRANCH  14  19
HETATM   19  C24 UNK     1      18.255   2.440  29.326  1.00  0.00     0.417 C 
HETATM   20  F1  UNK     1      17.288   2.960  30.138  1.00  0.00    -0.166 F 
HETATM   21  F2  UNK     1      19.136   3.464  29.121  1.00  0.00    -0.166 F 
HETATM   22  F3  UNK     1      17.648   2.232  28.122  1.00  0.00    -0.166 F 
ENDBRANCH  14  19
ENDBRANCH  10  12
ENDBRANCH   7   8
ENDBRANCH   2   7
BRANCH   1  23
HETATM   23  C5  UNK     1      19.560  -5.896  36.997  1.00  0.00     0.312 C 
BRANCH  23  24
HETATM   24  C7  UNK     1      20.900  -6.390  37.420  1.00  0.00    -0.011 A 
HETATM   25  C10 UNK     1      21.671  -5.674  38.251  1.00  0.00     0.092 A 
HETATM   26  C13 UNK     1      23.002  -6.121  38.697  1.00  0.00     0.288 A 
HETATM   27  O1  UNK     1      23.441  -7.344  38.214  1.00  0.00    -0.275 OA
HETATM   28  O3  UNK     1      23.679  -5.439  39.458  1.00  0.00    -0.260 OA
HETATM   29  C11 UNK     1      22.653  -8.118  37.340  1.00  0.00     0.090 A 
HETATM   30  C8  UNK     1      21.394  -7.682  36.925  1.00  0.00     0.006 A 
HETATM   31  C14 UNK     1      23.198  -9.332  36.918  1.00  0.00     0.045 A 
HETATM   32  C12 UNK     1      20.673  -8.510  36.056  1.00  0.00     0.015 A 
HETATM   33  C16 UNK     1      21.206  -9.730  35.623  1.00  0.00     0.007 A 
HETATM   34  C15 UNK     1      22.466 -10.141  36.054  1.00  0.00    -0.059 A 
HETATM   35  C18 UNK     1      23.027 -11.442  35.590  1.00  0.00     0.048 C 
ENDBRANCH  23  24
ENDBRANCH   1  23
TORSDOF 6
ENDMDL
MODEL 7
REMARK VINA RESULT:      -9.7      2.963      3.412
REMARK  6 active torsions:
REMARK  status: ('A' for Active; 'I' for Inactive)
REMARK    1  A    between atoms: C5_15  and  N1_8 
REMARK    2  A    between atoms: C6_16  and  N2_9 
REMARK    3  A    between atoms: C17_27  and  N3_10 
REMARK       I    between atoms: C9_19  and  N3_10 
REMARK    4  A    between atoms: C5_15  and  C7_17 
REMARK    5  A    between atoms: C6_16  and  C9_19 
REMARK    6  A    between atoms: C21_31  and  C24_34 
ROOT
HETATM    1  N1  UNK     1      19.302  -2.622  36.377  1.00  0.00     0.096 N 
HETATM    2  N2  UNK     1      18.445   0.139  36.387  1.00  0.00     0.100 N 
HETATM    3  C1  UNK     1      19.721  -1.690  35.323  1.00  0.00     0.303 C 
HETATM    4  C2  UNK     1      19.065  -1.903  37.634  1.00  0.00     0.303 C 
HETATM    5  C3  UNK     1      18.679  -0.581  35.130  1.00  0.00     0.303 C 
HETATM    6  C4  UNK     1      18.025  -0.794  37.441  1.00  0.00     0.303 C 
ENDROOT
BRANCH   2   7
HETATM    7  C6  UNK     1      17.451   1.194  36.203  1.00  0.00     0.375 C 
BRANCH   7   8
HETATM    8  C9  UNK     1      17.248   1.442  34.718  1.00  0.00     0.250 C 
HETATM    9  O2  UNK     1      16.365   0.890  34.070  1.00  0.00    -0.271 OA
HETATM   10  N3  UNK     1      18.186   2.362  34.251  1.00  0.00    -0.324 N 
HETATM   11  H15 UNK     1      18.862   2.733  34.915  1.00  0.00     0.169 HD
BRANCH  10  12
HETATM   12  C17 UNK     1      18.329   2.854  32.932  1.00  0.00     0.057 A 
HETATM   13  C19 UNK     1      18.507   1.939  31.894  1.00  0.00     0.047 A 
HETATM   14  C21 UNK     1      18.650   2.392  30.583  1.00  0.00     0.050 A 
HETATM   15  C23 UNK     1      18.617   3.760  30.309  1.00  0.00     0.018 A 
HETATM   16  C22 UNK     1      18.439   4.674  31.346  1.00  0.00     0.027 A 
HETATM   17  C20 UNK     1      18.296   4.221  32.658  1.00  0.00     0.060 A 
HETATM   18 Cl1  UNK     1      18.079   5.389  33.912  1.00  0.00    -0.082 Cl
BRANCH  14  19
HETATM   19  C24 UNK     1      18.841   1.414  29.473  1.00  0.00     0.417 C 
HETATM   20  F1  UNK     1      18.259   0.200  29.704  1.00  0.00    -0.166 F 
HETATM   21  F2  UNK     1      18.323   1.835  28.280  1.00  0.00    -0.166 F 
HETATM   22  F3  UNK     1      20.157   1.148  29.227  1.00  0.00    -0.166 F 
ENDBRANCH  14  19
ENDBRANCH  10  12
ENDBRANCH   7   8
ENDBRANCH   2   7
BRANCH   1  23
HETATM   23  C5  UNK     1      20.298  -3.677  36.561  1.00  0.00     0.312 C 
BRANCH  23  24
HETATM   24  C7  UNK     1      19.676  -4.977  36.937  1.00  0.00    -0.011 A 
HETATM   25  C10 UNK     1      18.459  -5.318  36.490  1.00  0.00     0.092 A 
HETATM   26  C13 UNK     1      17.804  -6.591  36.835  1.00  0.00     0.288 A 
HETATM   27  O1  UNK     1      18.511  -7.451  37.660  1.00  0.00    -0.275 OA
HETATM   28  O3  UNK     1      16.689  -6.869  36.407  1.00  0.00    -0.260 OA
HETATM   29  C11 UNK     1      19.792  -7.121  38.145  1.00  0.00     0.090 A 
HETATM   30  C8  UNK     1      20.400  -5.910  37.811  1.00  0.00     0.006 A 
HETATM   31  C14 UNK     1      20.410  -8.063  38.969  1.00  0.00     0.045 A 
HETATM   32  C12 UNK     1      21.675  -5.657  38.333  1.00  0.00     0.015 A 
HETATM   33  C16 UNK     1      22.308  -6.592  39.162  1.00  0.00     0.007 A 
HETATM   34  C15 UNK     1      21.676  -7.793  39.479  1.00  0.00    -0.059 A 
HETATM   35  C18 UNK     1      22.356  -8.784  40.361  1.00  0.00     0.048 C 
ENDBRANCH  23  24
ENDBRANCH   1  23
TORSDOF 6
ENDMDL
MODEL 8
REMARK VINA RESULT:      -9.6     12.963     14.830
REMARK  6 active torsions:
REMARK  status: ('A' for Active; 'I' for Inactive)
REMARK    1  A    between atoms: C5_15  and  N1_8 
REMARK    2  A    between atoms: C6_16  and  N2_9 
REMARK    3  A    between atoms: C17_27  and  N3_10 
REMARK       I    between atoms: C9_19  and  N3_10 
REMARK    4  A    between atoms: C5_15  and  C7_17 
REMARK    5  A    between atoms: C6_16  and  C9_19 
REMARK    6  A    between atoms: C21_31  and  C24_34 
ROOT
HETATM    1  N1  UNK     1      32.472  -6.678  36.468  1.00  0.00     0.096 N 
HETATM    2  N2  UNK     1      33.618  -6.802  33.817  1.00  0.00     0.100 N 
HETATM    3  C1  UNK     1      33.600  -7.568  36.166  1.00  0.00     0.303 C 
HETATM    4  C2  UNK     1      32.500  -5.499  35.594  1.00  0.00     0.303 C 
HETATM    5  C3  UNK     1      33.587  -7.982  34.690  1.00  0.00     0.303 C 
HETATM    6  C4  UNK     1      32.489  -5.912  34.119  1.00  0.00     0.303 C 
ENDROOT
BRANCH   2   7
HETATM    7  C6  UNK     1      33.604  -7.198  32.410  1.00  0.00     0.375 C 
BRANCH   7   8
HETATM    8  C9  UNK     1      32.368  -8.035  32.132  1.00  0.00     0.250 C 
HETATM    9  O2  UNK     1      32.280  -9.214  32.460  1.00  0.00    -0.271 OA
HETATM   10  N3  UNK     1      31.403  -7.267  31.482  1.00  0.00    -0.324 N 
HETATM   11  H15 UNK     1      31.627  -6.296  31.274  1.00  0.00     0.169 HD
BRANCH  10  12
HETATM   12  C17 UNK     1      30.118  -7.677  31.054  1.00  0.00     0.057 A 
HETATM   13  C19 UNK     1      30.026  -8.591  30.002  1.00  0.00     0.047 A 
HETATM   14  C21 UNK     1      28.775  -9.016  29.557  1.00  0.00     0.050 A 
HETATM   15  C23 UNK     1      27.616  -8.528  30.161  1.00  0.00     0.018 A 
HETATM   16  C22 UNK     1      27.709  -7.615  31.211  1.00  0.00     0.027 A 
HETATM   17  C20 UNK     1      28.960  -7.190  31.657  1.00  0.00     0.060 A 
HETATM   18 Cl1  UNK     1      29.028  -6.058  32.961  1.00  0.00    -0.082 Cl
BRANCH  14  19
HETATM   19  C24 UNK     1      28.675  -9.991  28.433  1.00  0.00     0.417 C 
HETATM   20  F1  UNK     1      29.552  -9.746  27.414  1.00  0.00    -0.166 F 
HETATM   21  F2  UNK     1      28.917 -11.283  28.807  1.00  0.00    -0.166 F 
HETATM   22  F3  UNK     1      27.438 -10.003  27.856  1.00  0.00    -0.166 F 
ENDBRANCH  14  19
ENDBRANCH  10  12
ENDBRANCH   7   8
ENDBRANCH   2   7
BRANCH   1  23
HETATM   23  C5  UNK     1      32.487  -6.282  37.876  1.00  0.00     0.312 C 
BRANCH  23  24
HETATM   24  C7  UNK     1      31.118  -6.015  38.399  1.00  0.00    -0.011 A 
HETATM   25  C10 UNK     1      30.743  -4.779  38.757  1.00  0.00     0.092 A 
HETATM   26  C13 UNK     1      29.402  -4.466  39.279  1.00  0.00     0.288 A 
HETATM   27  O1  UNK     1      28.515  -5.525  39.390  1.00  0.00    -0.275 OA
HETATM   28  O3  UNK     1      29.095  -3.322  39.597  1.00  0.00    -0.260 OA
HETATM   29  C11 UNK     1      28.881  -6.834  39.021  1.00  0.00     0.090 A 
HETATM   30  C8  UNK     1      30.155  -7.116  38.528  1.00  0.00     0.006 A 
HETATM   31  C14 UNK     1      27.906  -7.822  39.175  1.00  0.00     0.045 A 
HETATM   32  C12 UNK     1      30.440  -8.444  38.184  1.00  0.00     0.015 A 
HETATM   33  C16 UNK     1      29.474  -9.446  38.333  1.00  0.00     0.007 A 
HETATM   34  C15 UNK     1      28.208  -9.135  38.828  1.00  0.00    -0.059 A 
HETATM   35  C18 UNK     1      27.183 -10.207  38.984  1.00  0.00     0.048 C 
ENDBRANCH  23  24
ENDBRANCH   1  23
TORSDOF 6
ENDMDL
MODEL 9
REMARK VINA RESULT:      -9.5     15.926     18.645
REMARK  6 active torsions:
REMARK  status: ('A' for Active; 'I' for Inactive)
REMARK    1  A    between atoms: C5_15  and  N1_8 
REMARK    2  A    between atoms: C6_16  and  N2_9 
REMARK    3  A    between atoms: C17_27  and  N3_10 
REMARK       I    between atoms: C9_19  and  N3_10 
REMARK    4  A    between atoms: C5_15  and  C7_17 
REMARK    5  A    between atoms: C6_16  and  C9_19 
REMARK    6  A    between atoms: C21_31  and  C24_34 
ROOT
HETATM    1  N1  UNK     1      32.183  -5.965  35.965  1.00  0.00     0.096 N 
HETATM    2  N2  UNK     1      34.796  -6.510  34.855  1.00  0.00     0.100 N 
HETATM    3  C1  UNK     1      33.061  -4.879  35.514  1.00  0.00     0.303 C 
HETATM    4  C2  UNK     1      32.445  -7.189  35.198  1.00  0.00     0.303 C 
HETATM    5  C3  UNK     1      34.535  -5.287  35.624  1.00  0.00     0.303 C 
HETATM    6  C4  UNK     1      33.918  -7.597  35.307  1.00  0.00     0.303 C 
ENDROOT
BRANCH   2   7
HETATM    7  C6  UNK     1      36.200  -6.900  34.962  1.00  0.00     0.375 C 
BRANCH   7   8
HETATM    8  C9  UNK     1      36.606  -7.673  33.719  1.00  0.00     0.250 C 
HETATM    9  O2  UNK     1      36.674  -7.153  32.610  1.00  0.00    -0.271 OA
HETATM   10  N3  UNK     1      36.878  -9.001  34.045  1.00  0.00    -0.324 N 
HETATM   11  H15 UNK     1      36.773  -9.284  35.017  1.00  0.00     0.169 HD
BRANCH  10  12
HETATM   12  C17 UNK     1      37.285 -10.038  33.173  1.00  0.00     0.057 A 
HETATM   13  C19 UNK     1      38.624 -10.095  32.784  1.00  0.00     0.047 A 
HETATM   14  C21 UNK     1      39.058 -11.105  31.926  1.00  0.00     0.050 A 
HETATM   15  C23 UNK     1      38.153 -12.057  31.455  1.00  0.00     0.018 A 
HETATM   16  C22 UNK     1      36.816 -12.000  31.844  1.00  0.00     0.027 A 
HETATM   17  C20 UNK     1      36.381 -10.989  32.703  1.00  0.00     0.060 A 
HETATM   18 Cl1  UNK     1      34.715 -10.956  33.158  1.00  0.00    -0.082 Cl
BRANCH  14  19
HETATM   19  C24 UNK     1      40.488 -11.166  31.509  1.00  0.00     0.417 C 
HETATM   20  F1  UNK     1      40.670 -11.098  30.157  1.00  0.00    -0.166 F 
HETATM   21  F2  UNK     1      41.251 -10.154  32.022  1.00  0.00    -0.166 F 
HETATM   22  F3  UNK     1      41.101 -12.321  31.903  1.00  0.00    -0.166 F 
ENDBRANCH  14  19
ENDBRANCH  10  12
ENDBRANCH   7   8
ENDBRANCH   2   7
BRANCH   1  23
HETATM   23  C5  UNK     1      30.778  -5.574  35.857  1.00  0.00     0.312 C 
BRANCH  23  24
HETATM   24  C7  UNK     1      30.095  -5.558  37.180  1.00  0.00    -0.011 A 
HETATM   25  C10 UNK     1      30.124  -4.468  37.961  1.00  0.00     0.092 A 
HETATM   26  C13 UNK     1      29.464  -4.405  39.276  1.00  0.00     0.288 A 
HETATM   27  O1  UNK     1      28.792  -5.544  39.691  1.00  0.00    -0.275 OA
HETATM   28  O3  UNK     1      29.512  -3.390  39.962  1.00  0.00    -0.260 OA
HETATM   29  C11 UNK     1      28.745  -6.703  38.892  1.00  0.00     0.090 A 
HETATM   30  C8  UNK     1      29.375  -6.750  37.648  1.00  0.00     0.006 A 
HETATM   31  C14 UNK     1      28.039  -7.791  39.411  1.00  0.00     0.045 A 
HETATM   32  C12 UNK     1      29.281  -7.940  36.915  1.00  0.00     0.015 A 
HETATM   33  C16 UNK     1      28.578  -9.039  37.423  1.00  0.00     0.007 A 
HETATM   34  C15 UNK     1      27.958  -8.964  38.668  1.00  0.00    -0.059 A 
HETATM   35  C18 UNK     1      27.210 -10.138  39.202  1.00  0.00     0.048 C 
ENDBRANCH  23  24
ENDBRANCH   1  23
TORSDOF 6
ENDMDL
MODEL 10
REMARK VINA RESULT:      -9.5      5.097      8.065
REMARK  6 active torsions:
REMARK  status: ('A' for Active; 'I' for Inactive)
REMARK    1  A    between atoms: C5_15  and  N1_8 
REMARK    2  A    between atoms: C6_16  and  N2_9 
REMARK    3  A    between atoms: C17_27  and  N3_10 
REMARK       I    between atoms: C9_19  and  N3_10 
REMARK    4  A    between atoms: C5_15  and  C7_17 
REMARK    5  A    between atoms: C6_16  and  C9_19 
REMARK    6  A    between atoms: C21_31  and  C24_34 
ROOT
HETATM    1  N1  UNK     1      18.844   3.746  31.338  1.00  0.00     0.096 N 
HETATM    2  N2  UNK     1      19.259   6.405  32.396  1.00  0.00     0.100 N 
HETATM    3  C1  UNK     1      17.952   4.308  32.360  1.00  0.00     0.303 C 
HETATM    4  C2  UNK     1      19.412   4.817  30.509  1.00  0.00     0.303 C 
HETATM    5  C3  UNK     1      18.693   5.334  33.226  1.00  0.00     0.303 C 
HETATM    6  C4  UNK     1      20.151   5.843  31.374  1.00  0.00     0.303 C 
ENDROOT
BRANCH   2   7
HETATM    7  C6  UNK     1      19.966   7.382  33.222  1.00  0.00     0.375 C 
BRANCH   7   8
HETATM    8  C9  UNK     1      18.984   8.042  34.174  1.00  0.00     0.250 C 
HETATM    9  O2  UNK     1      19.083   7.950  35.394  1.00  0.00    -0.271 OA
HETATM   10  N3  UNK     1      18.012   8.738  33.458  1.00  0.00    -0.324 N 
HETATM   11  H15 UNK     1      18.063   8.718  32.442  1.00  0.00     0.169 HD
BRANCH  10  12
HETATM   12  C17 UNK     1      16.926   9.482  33.976  1.00  0.00     0.057 A 
HETATM   13  C19 UNK     1      17.132  10.823  34.303  1.00  0.00     0.047 A 
HETATM   14  C21 UNK     1      16.082  11.584  34.815  1.00  0.00     0.050 A 
HETATM   15  C23 UNK     1      14.826  11.006  35.001  1.00  0.00     0.018 A 
HETATM   16  C22 UNK     1      14.620   9.666  34.675  1.00  0.00     0.027 A 
HETATM   17  C20 UNK     1      15.670   8.904  34.163  1.00  0.00     0.060 A 
HETATM   18 Cl1  UNK     1      15.371   7.248  33.772  1.00  0.00    -0.082 Cl
BRANCH  14  19
HETATM   19  C24 UNK     1      16.301  13.017  35.165  1.00  0.00     0.417 C 
HETATM   20  F1  UNK     1      17.157  13.201  36.214  1.00  0.00    -0.166 F 
HETATM   21  F2  UNK     1      16.828  13.755  34.143  1.00  0.00    -0.166 F 
HETATM   22  F3  UNK     1      15.147  13.654  35.519  1.00  0.00    -0.166 F 
ENDBRANCH  14  19
ENDBRANCH  10  12
ENDBRANCH   7   8
ENDBRANCH   2   7
BRANCH   1  23
HETATM   23  C5  UNK     1      18.135   2.770  30.512  1.00  0.00     0.312 C 
BRANCH  23  24
HETATM   24  C7  UNK     1      18.820   1.447  30.493  1.00  0.00    -0.011 A 
HETATM   25  C10 UNK     1      19.404   0.986  29.378  1.00  0.00     0.092 A 
HETATM   26  C13 UNK     1      20.092  -0.314  29.311  1.00  0.00     0.288 A 
HETATM   27  O1  UNK     1      20.117  -1.066  30.475  1.00  0.00    -0.275 OA
HETATM   28  O3  UNK     1      20.616  -0.703  28.273  1.00  0.00    -0.260 OA
HETATM   29  C11 UNK     1      19.511  -0.607  31.662  1.00  0.00     0.090 A 
HETATM   30  C8  UNK     1      18.862   0.627  31.710  1.00  0.00     0.006 A 
HETATM   31  C14 UNK     1      19.598  -1.449  32.773  1.00  0.00     0.045 A 
HETATM   32  C12 UNK     1      18.286   1.011  32.929  1.00  0.00     0.015 A 
HETATM   33  C16 UNK     1      18.364   0.178  34.051  1.00  0.00     0.007 A 
HETATM   34  C15 UNK     1      19.019  -1.049  33.973  1.00  0.00    -0.059 A 
HETATM   35  C18 UNK     1      19.099  -1.931  35.173  1.00  0.00     0.048 C 
ENDBRANCH  23  24
ENDBRANCH   1  23
TORSDOF 6
ENDMDL
