MODEL 1
REMARK VINA RESULT:      -7.7      0.000      0.000
REMARK  5 active torsions:
REMARK  status: ('A' for Active; 'I' for Inactive)
REMARK    1  A    between atoms: C15_21  and  O2_2 
REMARK    2  A    between atoms: C17_23  and  O2_2 
REMARK    3  A    between atoms: C5_11  and  N1_4 
REMARK    4  A    between atoms: C7_13  and  N2_5 
REMARK    5  A    between atoms: C5_11  and  C6_12 
ROOT
HETATM    1  N3  UNK     1      17.722   2.099  28.084  1.00  0.00    -0.195 NA
HETATM    2  C7  UNK     1      19.115   2.011  30.310  1.00  0.00     0.395 C 
HETATM    3  C13 UNK     1      18.337   2.062  29.067  1.00  0.00     0.089 C 
ENDROOT
BRANCH   2   4
HETATM    4  N2  UNK     1      19.151   3.311  30.976  1.00  0.00     0.104 N 
HETATM    5  C3  UNK     1      19.051   4.402  29.998  1.00  0.00     0.303 C 
HETATM    6  C1  UNK     1      19.084   5.765  30.695  1.00  0.00     0.303 C 
HETATM    7  N1  UNK     1      18.010   5.870  31.691  1.00  0.00     0.096 N 
HETATM    8  C2  UNK     1      18.111   4.781  32.669  1.00  0.00     0.303 C 
HETATM    9  C4  UNK     1      18.077   3.416  31.972  1.00  0.00     0.303 C 
BRANCH   7  10
HETATM   10  C5  UNK     1      18.044   7.170  32.357  1.00  0.00     0.312 C 
BRANCH  10  11
HETATM   11  C6  UNK     1      16.678   7.721  32.583  1.00  0.00    -0.011 A 
HETATM   12  C8  UNK     1      16.513   9.037  33.213  1.00  0.00     0.009 A 
HETATM   13  C10 UNK     1      15.222   9.526  33.413  1.00  0.00     0.090 A 
HETATM   14  C11 UNK     1      17.584   9.839  33.632  1.00  0.00     0.051 A 
HETATM   15  O1  UNK     1      14.092   8.781  33.021  1.00  0.00    -0.275 OA
HETATM   16  C14 UNK     1      14.978  10.766  34.005  1.00  0.00     0.041 A 
HETATM   17  C12 UNK     1      14.216   7.536  32.423  1.00  0.00     0.288 A 
HETATM   18  O3  UNK     1      13.240   6.880  32.077  1.00  0.00    -0.260 OA
HETATM   19  C9  UNK     1      15.586   7.034  32.219  1.00  0.00     0.092 A 
HETATM   20  C16 UNK     1      16.053  11.547  34.413  1.00  0.00     0.039 A 
HETATM   21  C15 UNK     1      17.355  11.085  34.227  1.00  0.00     0.069 A 
BRANCH  21  22
HETATM   22  O2  UNK     1      18.409  11.849  34.626  1.00  0.00    -0.351 OA
BRANCH  22  23
HETATM   23  C17 UNK     1      18.280  13.261  34.476  1.00  0.00     0.171 C 
HETATM   24  C18 UNK     1      18.622  13.639  33.051  1.00  0.00     0.034 C 
ENDBRANCH  22  23
ENDBRANCH  21  22
ENDBRANCH  10  11
ENDBRANCH   7  10
ENDBRANCH   2   4
TORSDOF 5
ENDMDL
MODEL 2
REMARK VINA RESULT:      -7.6     22.515     24.261
REMARK  5 active torsions:
REMARK  status: ('A' for Active; 'I' for Inactive)
REMARK    1  A    between atoms: C15_21  and  O2_2 
REMARK    2  A    between atoms: C17_23  and  O2_2 
REMARK    3  A    between atoms: C5_11  and  N1_4 
REMARK    4  A    between atoms: C7_13  and  N2_5 
REMARK    5  A    between atoms: C5_11  and  C6_12 
ROOT
HETATM    1  N3  UNK     1       7.575   5.479  11.038  1.00  0.00    -0.195 NA
HETATM    2  C7  UNK     1       7.469   7.205   9.061  1.00  0.00     0.395 C 
HETATM    3  C13 UNK     1       7.530   6.241  10.165  1.00  0.00     0.089 C 
ENDROOT
BRANCH   2   4
HETATM    4  N2  UNK     1       8.767   7.360   8.409  1.00  0.00     0.104 N 
HETATM    5  C3  UNK     1       9.714   8.055   9.290  1.00  0.00     0.303 C 
HETATM    6  C1  UNK     1      11.078   8.214   8.610  1.00  0.00     0.303 C 
HETATM    7  N1  UNK     1      11.617   6.910   8.207  1.00  0.00     0.096 N 
HETATM    8  C2  UNK     1      10.671   6.216   7.324  1.00  0.00     0.303 C 
HETATM    9  C4  UNK     1       9.307   6.055   8.005  1.00  0.00     0.303 C 
BRANCH   7  10
HETATM   10  C5  UNK     1      12.916   7.064   7.556  1.00  0.00     0.312 C 
BRANCH  10  11
HETATM   11  C6  UNK     1      14.044   6.713   8.464  1.00  0.00    -0.011 A 
HETATM   12  C8  UNK     1      14.880   7.775   9.038  1.00  0.00     0.009 A 
HETATM   13  C10 UNK     1      15.930   7.416   9.885  1.00  0.00     0.090 A 
HETATM   14  C11 UNK     1      14.688   9.140   8.784  1.00  0.00     0.051 A 
HETATM   15  O1  UNK     1      16.189   6.065  10.191  1.00  0.00    -0.275 OA
HETATM   16  C14 UNK     1      16.772   8.363  10.471  1.00  0.00     0.041 A 
HETATM   17  C12 UNK     1      15.417   5.042   9.665  1.00  0.00     0.288 A 
HETATM   18  O3  UNK     1      15.633   3.863   9.925  1.00  0.00    -0.260 OA
HETATM   19  C9  UNK     1      14.313   5.437   8.773  1.00  0.00     0.092 A 
HETATM   20  C16 UNK     1      16.564   9.712  10.207  1.00  0.00     0.039 A 
HETATM   21  C15 UNK     1      15.524  10.101   9.365  1.00  0.00     0.069 A 
BRANCH  21  22
HETATM   22  O2  UNK     1      15.320  11.422   9.105  1.00  0.00    -0.351 OA
BRANCH  22  23
HETATM   23  C17 UNK     1      15.470  11.847   7.752  1.00  0.00     0.171 C 
HETATM   24  C18 UNK     1      16.942  12.024   7.450  1.00  0.00     0.034 C 
ENDBRANCH  22  23
ENDBRANCH  21  22
ENDBRANCH  10  11
ENDBRANCH   7  10
ENDBRANCH   2   4
TORSDOF 5
ENDMDL
MODEL 3
REMARK VINA RESULT:      -7.5      4.566      6.548
REMARK  5 active torsions:
REMARK  status: ('A' for Active; 'I' for Inactive)
REMARK    1  A    between atoms: C15_21  and  O2_2 
REMARK    2  A    between atoms: C17_23  and  O2_2 
REMARK    3  A    between atoms: C5_11  and  N1_4 
REMARK    4  A    between atoms: C7_13  and  N2_5 
REMARK    5  A    between atoms: C5_11  and  C6_12 
ROOT
HETATM    1  N3  UNK     1      20.519  -3.121  35.636  1.00  0.00    -0.195 NA
HETATM    2  C7  UNK     1      18.366  -2.180  36.810  1.00  0.00     0.395 C 
HETATM    3  C13 UNK     1      19.568  -2.704  36.154  1.00  0.00     0.089 C 
ENDROOT
BRANCH   2   4
HETATM    4  N2  UNK     1      18.045  -0.831  36.349  1.00  0.00     0.104 N 
HETATM    5  C3  UNK     1      19.255  -0.003  36.275  1.00  0.00     0.303 C 
HETATM    6  C1  UNK     1      18.922   1.410  35.788  1.00  0.00     0.303 C 
HETATM    7  N1  UNK     1      18.250   1.369  34.483  1.00  0.00     0.096 N 
HETATM    8  C2  UNK     1      17.039   0.543  34.558  1.00  0.00     0.303 C 
HETATM    9  C4  UNK     1      17.372  -0.872  35.044  1.00  0.00     0.303 C 
BRANCH   7  10
HETATM   10  C5  UNK     1      17.930   2.717  34.021  1.00  0.00     0.312 C 
BRANCH  10  11
HETATM   11  C6  UNK     1      18.301   2.924  32.592  1.00  0.00    -0.011 A 
HETATM   12  C8  UNK     1      18.378   4.284  32.044  1.00  0.00     0.009 A 
HETATM   13  C10 UNK     1      18.728   4.445  30.703  1.00  0.00     0.090 A 
HETATM   14  C11 UNK     1      18.118   5.440  32.792  1.00  0.00     0.051 A 
HETATM   15  O1  UNK     1      19.004   3.333  29.883  1.00  0.00    -0.275 OA
HETATM   16  C14 UNK     1      18.823   5.703  30.103  1.00  0.00     0.041 A 
HETATM   17  C12 UNK     1      18.941   2.038  30.372  1.00  0.00     0.288 A 
HETATM   18  O3  UNK     1      19.180   1.063  29.668  1.00  0.00    -0.260 OA
HETATM   19  C9  UNK     1      18.570   1.884  31.790  1.00  0.00     0.092 A 
HETATM   20  C16 UNK     1      18.562   6.838  30.863  1.00  0.00     0.039 A 
HETATM   21  C15 UNK     1      18.210   6.708  32.205  1.00  0.00     0.069 A 
BRANCH  21  22
HETATM   22  O2  UNK     1      17.953   7.819  32.949  1.00  0.00    -0.351 OA
BRANCH  22  23
HETATM   23  C17 UNK     1      18.396   7.808  34.305  1.00  0.00     0.171 C 
HETATM   24  C18 UNK     1      19.750   8.481  34.387  1.00  0.00     0.034 C 
ENDBRANCH  22  23
ENDBRANCH  21  22
ENDBRANCH  10  11
ENDBRANCH   7  10
ENDBRANCH   2   4
TORSDOF 5
ENDMDL
MODEL 4
REMARK VINA RESULT:      -7.5      9.248     12.495
REMARK  5 active torsions:
REMARK  status: ('A' for Active; 'I' for Inactive)
REMARK    1  A    between atoms: C15_21  and  O2_2 
REMARK    2  A    between atoms: C17_23  and  O2_2 
REMARK    3  A    between atoms: C5_11  and  N1_4 
REMARK    4  A    between atoms: C7_13  and  N2_5 
REMARK    5  A    between atoms: C5_11  and  C6_12 
ROOT
HETATM    1  N3  UNK     1      19.521 -11.035  37.246  1.00  0.00    -0.195 NA
HETATM    2  C7  UNK     1      19.101  -8.707  38.389  1.00  0.00     0.395 C 
HETATM    3  C13 UNK     1      19.337 -10.006  37.750  1.00  0.00     0.089 C 
ENDROOT
BRANCH   2   4
HETATM    4  N2  UNK     1      19.672  -7.612  37.610  1.00  0.00     0.104 N 
HETATM    5  C3  UNK     1      18.707  -7.115  36.622  1.00  0.00     0.303 C 
HETATM    6  C1  UNK     1      19.302  -5.964  35.806  1.00  0.00     0.303 C 
HETATM    7  N1  UNK     1      19.742  -4.873  36.685  1.00  0.00     0.096 N 
HETATM    8  C2  UNK     1      20.709  -5.369  37.671  1.00  0.00     0.303 C 
HETATM    9  C4  UNK     1      20.112  -6.521  38.488  1.00  0.00     0.303 C 
BRANCH   7  10
HETATM   10  C5  UNK     1      20.312  -3.776  35.906  1.00  0.00     0.312 C 
BRANCH  10  11
HETATM   11  C6  UNK     1      19.516  -2.523  36.034  1.00  0.00    -0.011 A 
HETATM   12  C8  UNK     1      19.257  -1.695  34.849  1.00  0.00     0.009 A 
HETATM   13  C10 UNK     1      18.508  -0.527  35.001  1.00  0.00     0.090 A 
HETATM   14  C11 UNK     1      19.720  -2.008  33.564  1.00  0.00     0.051 A 
HETATM   15  O1  UNK     1      18.006  -0.142  36.260  1.00  0.00    -0.275 OA
HETATM   16  C14 UNK     1      18.217   0.316  33.927  1.00  0.00     0.041 A 
HETATM   17  C12 UNK     1      18.234  -0.903  37.395  1.00  0.00     0.288 A 
HETATM   18  O3  UNK     1      17.801  -0.578  38.495  1.00  0.00    -0.260 OA
HETATM   19  C9  UNK     1      19.025  -2.133  37.219  1.00  0.00     0.092 A 
HETATM   20  C16 UNK     1      18.685  -0.013  32.659  1.00  0.00     0.039 A 
HETATM   21  C15 UNK     1      19.436  -1.173  32.478  1.00  0.00     0.069 A 
BRANCH  21  22
HETATM   22  O2  UNK     1      19.895  -1.496  31.237  1.00  0.00    -0.351 OA
BRANCH  22  23
HETATM   23  C17 UNK     1      20.571  -0.472  30.509  1.00  0.00     0.171 C 
HETATM   24  C18 UNK     1      20.730  -0.913  29.070  1.00  0.00     0.034 C 
ENDBRANCH  22  23
ENDBRANCH  21  22
ENDBRANCH  10  11
ENDBRANCH   7  10
ENDBRANCH   2   4
TORSDOF 5
ENDMDL
MODEL 5
REMARK VINA RESULT:      -7.5      4.062      8.124
REMARK  5 active torsions:
REMARK  status: ('A' for Active; 'I' for Inactive)
REMARK    1  A    between atoms: C15_21  and  O2_2 
REMARK    2  A    between atoms: C17_23  and  O2_2 
REMARK    3  A    between atoms: C5_11  and  N1_4 
REMARK    4  A    between atoms: C7_13  and  N2_5 
REMARK    5  A    between atoms: C5_11  and  C6_12 
ROOT
HETATM    1  N3  UNK     1      14.285  11.718  32.821  1.00  0.00    -0.195 NA
HETATM    2  C7  UNK     1      14.088   9.169  33.425  1.00  0.00     0.395 C 
HETATM    3  C13 UNK     1      14.200  10.592  33.087  1.00  0.00     0.089 C 
ENDROOT
BRANCH   2   4
HETATM    4  N2  UNK     1      15.393   8.513  33.432  1.00  0.00     0.104 N 
HETATM    5  C3  UNK     1      15.434   7.441  34.433  1.00  0.00     0.303 C 
HETATM    6  C1  UNK     1      16.800   6.749  34.439  1.00  0.00     0.303 C 
HETATM    7  N1  UNK     1      17.124   6.219  33.109  1.00  0.00     0.096 N 
HETATM    8  C2  UNK     1      17.086   7.292  32.108  1.00  0.00     0.303 C 
HETATM    9  C4  UNK     1      15.718   7.984  32.101  1.00  0.00     0.303 C 
BRANCH   7  10
HETATM   10  C5  UNK     1      18.429   5.562  33.115  1.00  0.00     0.312 C 
BRANCH  10  11
HETATM   11  C6  UNK     1      18.375   4.200  32.513  1.00  0.00    -0.011 A 
HETATM   12  C8  UNK     1      18.400   3.014  33.378  1.00  0.00     0.009 A 
HETATM   13  C10 UNK     1      18.348   1.752  32.785  1.00  0.00     0.090 A 
HETATM   14  C11 UNK     1      18.475   3.072  34.777  1.00  0.00     0.051 A 
HETATM   15  O1  UNK     1      18.272   1.608  31.385  1.00  0.00    -0.275 OA
HETATM   16  C14 UNK     1      18.368   0.575  33.535  1.00  0.00     0.041 A 
HETATM   17  C12 UNK     1      18.246   2.708  30.543  1.00  0.00     0.288 A 
HETATM   18  O3  UNK     1      18.179   2.595  29.324  1.00  0.00    -0.260 OA
HETATM   19  C9  UNK     1      18.301   4.033  31.185  1.00  0.00     0.092 A 
HETATM   20  C16 UNK     1      18.442   0.653  34.921  1.00  0.00     0.039 A 
HETATM   21  C15 UNK     1      18.495   1.900  35.542  1.00  0.00     0.069 A 
BRANCH  21  22
HETATM   22  O2  UNK     1      18.568   1.979  36.899  1.00  0.00    -0.351 OA
BRANCH  22  23
HETATM   23  C17 UNK     1      17.710   1.118  37.646  1.00  0.00     0.171 C 
HETATM   24  C18 UNK     1      16.274   1.550  37.437  1.00  0.00     0.034 C 
ENDBRANCH  22  23
ENDBRANCH  21  22
ENDBRANCH  10  11
ENDBRANCH   7  10
ENDBRANCH   2   4
TORSDOF 5
ENDMDL
MODEL 6
REMARK VINA RESULT:      -7.4     11.068     15.313
REMARK  5 active torsions:
REMARK  status: ('A' for Active; 'I' for Inactive)
REMARK    1  A    between atoms: C15_21  and  O2_2 
REMARK    2  A    between atoms: C17_23  and  O2_2 
REMARK    3  A    between atoms: C5_11  and  N1_4 
REMARK    4  A    between atoms: C7_13  and  N2_5 
REMARK    5  A    between atoms: C5_11  and  C6_12 
ROOT
HETATM    1  N3  UNK     1      15.978   0.034  34.573  1.00  0.00    -0.195 NA
HETATM    2  C7  UNK     1      18.331   0.704  35.529  1.00  0.00     0.395 C 
HETATM    3  C13 UNK     1      17.017   0.328  34.996  1.00  0.00     0.089 C 
ENDROOT
BRANCH   2   4
HETATM    4  N2  UNK     1      19.072  -0.461  36.006  1.00  0.00     0.104 N 
HETATM    5  C3  UNK     1      18.359  -1.117  37.109  1.00  0.00     0.303 C 
HETATM    6  C1  UNK     1      19.132  -2.342  37.608  1.00  0.00     0.303 C 
HETATM    7  N1  UNK     1      19.369  -3.292  36.514  1.00  0.00     0.096 N 
HETATM    8  C2  UNK     1      20.084  -2.636  35.413  1.00  0.00     0.303 C 
HETATM    9  C4  UNK     1      19.310  -1.412  34.912  1.00  0.00     0.303 C 
BRANCH   7  10
HETATM   10  C5  UNK     1      20.108  -4.458  36.991  1.00  0.00     0.312 C 
BRANCH  10  11
HETATM   11  C6  UNK     1      19.429  -5.737  36.638  1.00  0.00    -0.011 A 
HETATM   12  C8  UNK     1      20.177  -7.000  36.679  1.00  0.00     0.009 A 
HETATM   13  C10 UNK     1      19.514  -8.181  36.343  1.00  0.00     0.090 A 
HETATM   14  C11 UNK     1      21.529  -7.093  37.038  1.00  0.00     0.051 A 
HETATM   15  O1  UNK     1      18.155  -8.173  35.970  1.00  0.00    -0.275 OA
HETATM   16  C14 UNK     1      20.152  -9.423  36.356  1.00  0.00     0.041 A 
HETATM   17  C12 UNK     1      17.424  -6.997  35.923  1.00  0.00     0.288 A 
HETATM   18  O3  UNK     1      16.240  -6.978  35.601  1.00  0.00    -0.260 OA
HETATM   19  C9  UNK     1      18.138  -5.759  36.281  1.00  0.00     0.092 A 
HETATM   20  C16 UNK     1      21.493  -9.494  36.716  1.00  0.00     0.039 A 
HETATM   21  C15 UNK     1      22.181  -8.331  37.057  1.00  0.00     0.069 A 
BRANCH  21  22
HETATM   22  O2  UNK     1      23.494  -8.400  37.409  1.00  0.00    -0.351 OA
BRANCH  22  23
HETATM   23  C17 UNK     1      23.835  -7.977  38.727  1.00  0.00     0.171 C 
HETATM   24  C18 UNK     1      25.342  -7.985  38.874  1.00  0.00     0.034 C 
ENDBRANCH  22  23
ENDBRANCH  21  22
ENDBRANCH  10  11
ENDBRANCH   7  10
ENDBRANCH   2   4
TORSDOF 5
ENDMDL
MODEL 7
REMARK VINA RESULT:      -7.2      2.816      5.000
REMARK  5 active torsions:
REMARK  status: ('A' for Active; 'I' for Inactive)
REMARK    1  A    between atoms: C15_21  and  O2_2 
REMARK    2  A    between atoms: C17_23  and  O2_2 
REMARK    3  A    between atoms: C5_11  and  N1_4 
REMARK    4  A    between atoms: C7_13  and  N2_5 
REMARK    5  A    between atoms: C5_11  and  C6_12 
ROOT
HETATM    1  N3  UNK     1      20.536  -2.503  30.825  1.00  0.00    -0.195 NA
HETATM    2  C7  UNK     1      19.853  -0.667  29.074  1.00  0.00     0.395 C 
HETATM    3  C13 UNK     1      20.233  -1.691  30.053  1.00  0.00     0.089 C 
ENDROOT
BRANCH   2   4
HETATM    4  N2  UNK     1      19.077   0.406  29.692  1.00  0.00     0.104 N 
HETATM    5  C3  UNK     1      19.645   0.778  30.994  1.00  0.00     0.303 C 
HETATM    6  C1  UNK     1      18.836   1.906  31.641  1.00  0.00     0.303 C 
HETATM    7  N1  UNK     1      18.772   3.076  30.758  1.00  0.00     0.096 N 
HETATM    8  C2  UNK     1      18.202   2.705  29.457  1.00  0.00     0.303 C 
HETATM    9  C4  UNK     1      19.012   1.577  28.809  1.00  0.00     0.303 C 
BRANCH   7  10
HETATM   10  C5  UNK     1      17.997   4.151  31.376  1.00  0.00     0.312 C 
BRANCH  10  11
HETATM   11  C6  UNK     1      18.870   5.180  32.008  1.00  0.00    -0.011 A 
HETATM   12  C8  UNK     1      18.284   6.192  32.896  1.00  0.00     0.009 A 
HETATM   13  C10 UNK     1      19.127   7.143  33.474  1.00  0.00     0.090 A 
HETATM   14  C11 UNK     1      16.918   6.264  33.201  1.00  0.00     0.051 A 
HETATM   15  O1  UNK     1      20.513   7.140  33.218  1.00  0.00    -0.275 OA
HETATM   16  C14 UNK     1      18.651   8.140  34.328  1.00  0.00     0.041 A 
HETATM   17  C12 UNK     1      21.094   6.197  32.385  1.00  0.00     0.288 A 
HETATM   18  O3  UNK     1      22.299   6.184  32.156  1.00  0.00    -0.260 OA
HETATM   19  C9  UNK     1      20.191   5.200  31.783  1.00  0.00     0.092 A 
HETATM   20  C16 UNK     1      17.292   8.193  34.618  1.00  0.00     0.039 A 
HETATM   21  C15 UNK     1      16.427   7.257  34.056  1.00  0.00     0.069 A 
BRANCH  21  22
HETATM   22  O2  UNK     1      15.096   7.309  34.340  1.00  0.00    -0.351 OA
BRANCH  22  23
HETATM   23  C17 UNK     1      14.293   8.165  33.530  1.00  0.00     0.171 C 
HETATM   24  C18 UNK     1      13.552   7.327  32.510  1.00  0.00     0.034 C 
ENDBRANCH  22  23
ENDBRANCH  21  22
ENDBRANCH  10  11
ENDBRANCH   7  10
ENDBRANCH   2   4
TORSDOF 5
ENDMDL
MODEL 8
REMARK VINA RESULT:      -7.2     22.583     23.996
REMARK  5 active torsions:
REMARK  status: ('A' for Active; 'I' for Inactive)
REMARK    1  A    between atoms: C15_21  and  O2_2 
REMARK    2  A    between atoms: C17_23  and  O2_2 
REMARK    3  A    between atoms: C5_11  and  N1_4 
REMARK    4  A    between atoms: C7_13  and  N2_5 
REMARK    5  A    between atoms: C5_11  and  C6_12 
ROOT
HETATM    1  N3  UNK     1      17.841   7.718  10.240  1.00  0.00    -0.195 NA
HETATM    2  C7  UNK     1      15.977   5.918   9.806  1.00  0.00     0.395 C 
HETATM    3  C13 UNK     1      17.017   6.924  10.048  1.00  0.00     0.089 C 
ENDROOT
BRANCH   2   4
HETATM    4  N2  UNK     1      14.855   6.472   9.054  1.00  0.00     0.104 N 
HETATM    5  C3  UNK     1      13.948   5.407   8.608  1.00  0.00     0.303 C 
HETATM    6  C1  UNK     1      12.768   5.987   7.822  1.00  0.00     0.303 C 
HETATM    7  N1  UNK     1      12.040   6.976   8.626  1.00  0.00     0.096 N 
HETATM    8  C2  UNK     1      12.946   8.042   9.070  1.00  0.00     0.303 C 
HETATM    9  C4  UNK     1      14.127   7.462   9.857  1.00  0.00     0.303 C 
BRANCH   7  10
HETATM   10  C5  UNK     1      10.916   7.531   7.875  1.00  0.00     0.312 C 
BRANCH  10  11
HETATM   11  C6  UNK     1       9.603   7.073   8.410  1.00  0.00    -0.011 A 
HETATM   12  C8  UNK     1       8.865   7.915   9.360  1.00  0.00     0.009 A 
HETATM   13  C10 UNK     1       7.638   7.460   9.844  1.00  0.00     0.090 A 
HETATM   14  C11 UNK     1       9.322   9.159   9.817  1.00  0.00     0.051 A 
HETATM   15  O1  UNK     1       7.108   6.220   9.434  1.00  0.00    -0.275 OA
HETATM   16  C14 UNK     1       6.873   8.197  10.750  1.00  0.00     0.041 A 
HETATM   17  C12 UNK     1       7.781   5.404   8.538  1.00  0.00     0.288 A 
HETATM   18  O3  UNK     1       7.329   4.324   8.174  1.00  0.00    -0.260 OA
HETATM   19  C9  UNK     1       9.074   5.899   8.037  1.00  0.00     0.092 A 
HETATM   20  C16 UNK     1       7.344   9.430  11.190  1.00  0.00     0.039 A 
HETATM   21  C15 UNK     1       8.567   9.910  10.725  1.00  0.00     0.069 A 
BRANCH  21  22
HETATM   22  O2  UNK     1       9.029  11.116  11.155  1.00  0.00    -0.351 OA
BRANCH  22  23
HETATM   23  C17 UNK     1       9.293  12.103  10.160  1.00  0.00     0.171 C 
HETATM   24  C18 UNK     1      10.738  12.540  10.268  1.00  0.00     0.034 C 
ENDBRANCH  22  23
ENDBRANCH  21  22
ENDBRANCH  10  11
ENDBRANCH   7  10
ENDBRANCH   2   4
TORSDOF 5
ENDMDL
MODEL 9
REMARK VINA RESULT:      -7.1     18.866     20.446
REMARK  5 active torsions:
REMARK  status: ('A' for Active; 'I' for Inactive)
REMARK    1  A    between atoms: C15_21  and  O2_2 
REMARK    2  A    between atoms: C17_23  and  O2_2 
REMARK    3  A    between atoms: C5_11  and  N1_4 
REMARK    4  A    between atoms: C7_13  and  N2_5 
REMARK    5  A    between atoms: C5_11  and  C6_12 
ROOT
HETATM    1  N3  UNK     1      35.409  -6.238  29.370  1.00  0.00    -0.195 NA
HETATM    2  C7  UNK     1      33.567  -8.107  29.258  1.00  0.00     0.395 C 
HETATM    3  C13 UNK     1      34.595  -7.063  29.323  1.00  0.00     0.089 C 
ENDROOT
BRANCH   2   4
HETATM    4  N2  UNK     1      32.706  -8.090  30.438  1.00  0.00     0.104 N 
HETATM    5  C3  UNK     1      33.505  -8.180  31.667  1.00  0.00     0.303 C 
HETATM    6  C1  UNK     1      32.605  -8.157  32.907  1.00  0.00     0.303 C 
HETATM    7  N1  UNK     1      31.771  -6.950  32.926  1.00  0.00     0.096 N 
HETATM    8  C2  UNK     1      30.971  -6.861  31.698  1.00  0.00     0.303 C 
HETATM    9  C4  UNK     1      31.872  -6.882  30.458  1.00  0.00     0.303 C 
BRANCH   7  10
HETATM   10  C5  UNK     1      30.911  -6.930  34.107  1.00  0.00     0.312 C 
BRANCH  10  11
HETATM   11  C6  UNK     1      31.287  -5.846  35.057  1.00  0.00    -0.011 A 
HETATM   12  C8  UNK     1      30.450  -5.580  36.234  1.00  0.00     0.009 A 
HETATM   13  C10 UNK     1      30.827  -4.557  37.106  1.00  0.00     0.090 A 
HETATM   14  C11 UNK     1      29.284  -6.296  36.538  1.00  0.00     0.051 A 
HETATM   15  O1  UNK     1      31.985  -3.790  36.871  1.00  0.00    -0.275 OA
HETATM   16  C14 UNK     1      30.087  -4.240  38.247  1.00  0.00     0.041 A 
HETATM   17  C12 UNK     1      32.795  -4.018  35.769  1.00  0.00     0.288 A 
HETATM   18  O3  UNK     1      33.805  -3.357  35.556  1.00  0.00    -0.260 OA
HETATM   19  C9  UNK     1      32.383  -5.100  34.859  1.00  0.00     0.092 A 
HETATM   20  C16 UNK     1      28.934  -4.963  38.531  1.00  0.00     0.039 A 
HETATM   21  C15 UNK     1      28.533  -5.990  37.679  1.00  0.00     0.069 A 
BRANCH  21  22
HETATM   22  O2  UNK     1      27.404  -6.699  37.956  1.00  0.00    -0.351 OA
BRANCH  22  23
HETATM   23  C17 UNK     1      27.544  -8.110  38.107  1.00  0.00     0.171 C 
HETATM   24  C18 UNK     1      27.721  -8.434  39.575  1.00  0.00     0.034 C 
ENDBRANCH  22  23
ENDBRANCH  21  22
ENDBRANCH  10  11
ENDBRANCH   7  10
ENDBRANCH   2   4
TORSDOF 5
ENDMDL
MODEL 10
REMARK VINA RESULT:      -7.1     18.507     19.830
REMARK  5 active torsions:
REMARK  status: ('A' for Active; 'I' for Inactive)
REMARK    1  A    between atoms: C15_21  and  O2_2 
REMARK    2  A    between atoms: C17_23  and  O2_2 
REMARK    3  A    between atoms: C5_11  and  N1_4 
REMARK    4  A    between atoms: C7_13  and  N2_5 
REMARK    5  A    between atoms: C5_11  and  C6_12 
ROOT
HETATM    1  N3  UNK     1      31.263  -9.160  27.738  1.00  0.00    -0.195 NA
HETATM    2  C7  UNK     1      29.462  -7.986  29.248  1.00  0.00     0.395 C 
HETATM    3  C13 UNK     1      30.469  -8.643  28.407  1.00  0.00     0.089 C 
ENDROOT
BRANCH   2   4
HETATM    4  N2  UNK     1      29.729  -8.196  30.669  1.00  0.00     0.104 N 
HETATM    5  C3  UNK     1      31.100  -7.793  31.008  1.00  0.00     0.303 C 
HETATM    6  C1  UNK     1      31.380  -8.009  32.499  1.00  0.00     0.303 C 
HETATM    7  N1  UNK     1      30.412  -7.277  33.324  1.00  0.00     0.096 N 
HETATM    8  C2  UNK     1      29.042  -7.682  32.987  1.00  0.00     0.303 C 
HETATM    9  C4  UNK     1      28.761  -7.465  31.495  1.00  0.00     0.303 C 
BRANCH   7  10
HETATM   10  C5  UNK     1      30.679  -7.485  34.746  1.00  0.00     0.312 C 
BRANCH  10  11
HETATM   11  C6  UNK     1      31.102  -6.230  35.427  1.00  0.00    -0.011 A 
HETATM   12  C8  UNK     1      30.315  -5.705  36.551  1.00  0.00     0.009 A 
HETATM   13  C10 UNK     1      30.735  -4.527  37.169  1.00  0.00     0.090 A 
HETATM   14  C11 UNK     1      29.156  -6.319  37.044  1.00  0.00     0.051 A 
HETATM   15  O1  UNK     1      31.891  -3.847  36.733  1.00  0.00    -0.275 OA
HETATM   16  C14 UNK     1      30.045  -3.960  38.242  1.00  0.00     0.041 A 
HETATM   17  C12 UNK     1      32.653  -4.319  35.677  1.00  0.00     0.288 A 
HETATM   18  O3  UNK     1      33.661  -3.736  35.290  1.00  0.00    -0.260 OA
HETATM   19  C9  UNK     1      32.196  -5.563  35.035  1.00  0.00     0.092 A 
HETATM   20  C16 UNK     1      28.898  -4.586  38.718  1.00  0.00     0.039 A 
HETATM   21  C15 UNK     1      28.453  -5.764  38.120  1.00  0.00     0.069 A 
BRANCH  21  22
HETATM   22  O2  UNK     1      27.330  -6.377  38.584  1.00  0.00    -0.351 OA
BRANCH  22  23
HETATM   23  C17 UNK     1      27.186  -7.768  38.302  1.00  0.00     0.171 C 
HETATM   24  C18 UNK     1      27.440  -8.557  39.568  1.00  0.00     0.034 C 
ENDBRANCH  22  23
ENDBRANCH  21  22
ENDBRANCH  10  11
ENDBRANCH   7  10
ENDBRANCH   2   4
TORSDOF 5
ENDMDL
