MODEL 1
REMARK VINA RESULT:      -7.0      0.000      0.000
REMARK  1 active torsions:
REMARK  status: ('A' for Active; 'I' for Inactive)
REMARK    1  A    between atoms: C5_9  and  O3_3 
ROOT
HETATM    1  O1  UNK     1      17.597   1.957  33.857  1.00  0.00    -0.319 OA
HETATM    2  O2  UNK     1      19.816  -1.405  31.434  1.00  0.00    -0.274 OA
HETATM    3  O4  UNK     1      20.897  -3.047  30.261  1.00  0.00    -0.260 OA
HETATM    4  C1  UNK     1      18.667   0.373  32.653  1.00  0.00     0.037 A 
HETATM    5  C2  UNK     1      19.300  -0.087  31.486  1.00  0.00     0.103 A 
HETATM    6  C3  UNK     1      18.176   1.674  32.655  1.00  0.00     0.121 A 
HETATM    7  C4  UNK     1      19.419   0.755  30.374  1.00  0.00     0.002 A 
HETATM    8  C5  UNK     1      18.273   2.547  31.573  1.00  0.00     0.103 A 
HETATM    9  C6  UNK     1      18.908   2.058  30.425  1.00  0.00     0.054 A 
HETATM   10  C7  UNK     1      18.363  -0.158  33.934  1.00  0.00     0.042 A 
HETATM   11  C8  UNK     1      20.080   0.247  29.181  1.00  0.00     0.020 A 
HETATM   12  C9  UNK     1      17.716   0.841  34.623  1.00  0.00     0.143 A 
HETATM   13  C10 UNK     1      20.562  -0.998  29.150  1.00  0.00     0.083 A 
HETATM   14  C11 UNK     1      20.450  -1.907  30.304  1.00  0.00     0.288 A 
ENDROOT
BRANCH   8  15
HETATM   15  O3  UNK     1      17.779   3.819  31.613  1.00  0.00    -0.353 OA
HETATM   16  C12 UNK     1      18.689   4.874  31.315  1.00  0.00     0.210 C 
ENDBRANCH   8  15
TORSDOF 1
ENDMDL
MODEL 2
REMARK VINA RESULT:      -6.9      2.673      5.656
REMARK  1 active torsions:
REMARK  status: ('A' for Active; 'I' for Inactive)
REMARK    1  A    between atoms: C5_9  and  O3_3 
ROOT
HETATM    1  O1  UNK     1      18.241   0.958  33.043  1.00  0.00    -0.319 OA
HETATM    2  O2  UNK     1      18.330   5.521  34.170  1.00  0.00    -0.274 OA
HETATM    3  O4  UNK     1      18.371   7.741  34.728  1.00  0.00    -0.260 OA
HETATM    4  C1  UNK     1      18.286   3.162  33.536  1.00  0.00     0.037 A 
HETATM    5  C2  UNK     1      18.338   4.518  33.170  1.00  0.00     0.103 A 
HETATM    6  C3  UNK     1      18.297   2.215  32.518  1.00  0.00     0.121 A 
HETATM    7  C4  UNK     1      18.399   4.878  31.819  1.00  0.00     0.002 A 
HETATM    8  C5  UNK     1      18.356   2.527  31.161  1.00  0.00     0.103 A 
HETATM    9  C6  UNK     1      18.407   3.887  30.830  1.00  0.00     0.054 A 
HETATM   10  C7  UNK     1      18.221   2.427  34.748  1.00  0.00     0.042 A 
HETATM   11  C8  UNK     1      18.452   6.292  31.475  1.00  0.00     0.020 A 
HETATM   12  C9  UNK     1      18.195   1.098  34.394  1.00  0.00     0.143 A 
HETATM   13  C10 UNK     1      18.442   7.224  32.431  1.00  0.00     0.083 A 
HETATM   14  C11 UNK     1      18.380   6.874  33.861  1.00  0.00     0.288 A 
ENDROOT
BRANCH   8  15
HETATM   15  O3  UNK     1      18.364   1.569  30.189  1.00  0.00    -0.353 OA
HETATM   16  C12 UNK     1      17.955   1.969  28.884  1.00  0.00     0.210 C 
ENDBRANCH   8  15
TORSDOF 1
ENDMDL
MODEL 3
REMARK VINA RESULT:      -6.9      1.353      3.159
REMARK  1 active torsions:
REMARK  status: ('A' for Active; 'I' for Inactive)
REMARK    1  A    between atoms: C5_9  and  O3_3 
ROOT
HETATM    1  O1  UNK     1      17.820   3.527  32.911  1.00  0.00    -0.319 OA
HETATM    2  O2  UNK     1      19.825   0.628  29.801  1.00  0.00    -0.274 OA
HETATM    3  O4  UNK     1      20.801  -0.778  28.280  1.00  0.00    -0.260 OA
HETATM    4  C1  UNK     1      18.781   2.096  31.450  1.00  0.00     0.037 A 
HETATM    5  C2  UNK     1      19.264   0.828  31.086  1.00  0.00     0.103 A 
HETATM    6  C3  UNK     1      18.239   2.244  32.722  1.00  0.00     0.121 A 
HETATM    7  C4  UNK     1      19.191  -0.237  31.991  1.00  0.00     0.002 A 
HETATM    8  C5  UNK     1      18.146   1.212  33.655  1.00  0.00     0.103 A 
HETATM    9  C6  UNK     1      18.637  -0.039  33.262  1.00  0.00     0.054 A 
HETATM   10  C7  UNK     1      18.682   3.373  30.838  1.00  0.00     0.042 A 
HETATM   11  C8  UNK     1      19.702  -1.537  31.582  1.00  0.00     0.020 A 
HETATM   12  C9  UNK     1      18.093   4.202  31.763  1.00  0.00     0.143 A 
HETATM   13  C10 UNK     1      20.227  -1.708  30.366  1.00  0.00     0.083 A 
HETATM   14  C11 UNK     1      20.316  -0.606  29.393  1.00  0.00     0.288 A 
ENDROOT
BRANCH   8  15
HETATM   15  O3  UNK     1      17.606   1.394  34.896  1.00  0.00    -0.353 OA
HETATM   16  C12 UNK     1      16.659   0.425  35.336  1.00  0.00     0.210 C 
ENDBRANCH   8  15
TORSDOF 1
ENDMDL
MODEL 4
REMARK VINA RESULT:      -6.8      1.625      3.988
REMARK  1 active torsions:
REMARK  status: ('A' for Active; 'I' for Inactive)
REMARK    1  A    between atoms: C5_9  and  O3_3 
ROOT
HETATM    1  O1  UNK     1      19.907   0.623  29.104  1.00  0.00    -0.319 OA
HETATM    2  O2  UNK     1      19.106  -0.896  33.480  1.00  0.00    -0.274 OA
HETATM    3  O4  UNK     1      18.718  -1.643  35.609  1.00  0.00    -0.260 OA
HETATM    4  C1  UNK     1      19.501  -0.062  31.218  1.00  0.00     0.037 A 
HETATM    5  C2  UNK     1      19.006   0.139  32.518  1.00  0.00     0.103 A 
HETATM    6  C3  UNK     1      19.380   0.983  30.309  1.00  0.00     0.121 A 
HETATM    7  C4  UNK     1      18.415   1.360  32.862  1.00  0.00     0.002 A 
HETATM    8  C5  UNK     1      18.799   2.214  30.608  1.00  0.00     0.103 A 
HETATM    9  C6  UNK     1      18.316   2.383  31.911  1.00  0.00     0.054 A 
HETATM   10  C7  UNK     1      20.141  -1.115  30.514  1.00  0.00     0.042 A 
HETATM   11  C8  UNK     1      17.913   1.535  34.217  1.00  0.00     0.020 A 
HETATM   12  C9  UNK     1      20.364  -0.650  29.240  1.00  0.00     0.143 A 
HETATM   13  C10 UNK     1      18.014   0.548  35.112  1.00  0.00     0.083 A 
HETATM   14  C11 UNK     1      18.632  -0.747  34.778  1.00  0.00     0.288 A 
ENDROOT
BRANCH   8  15
HETATM   15  O3  UNK     1      18.697   3.217  29.687  1.00  0.00    -0.353 OA
HETATM   16  C12 UNK     1      19.027   4.532  30.127  1.00  0.00     0.210 C 
ENDBRANCH   8  15
TORSDOF 1
ENDMDL
MODEL 5
REMARK VINA RESULT:      -6.8      4.633      8.768
REMARK  1 active torsions:
REMARK  status: ('A' for Active; 'I' for Inactive)
REMARK    1  A    between atoms: C5_9  and  O3_3 
ROOT
HETATM    1  O1  UNK     1      15.367   6.176  32.086  1.00  0.00    -0.319 OA
HETATM    2  O2  UNK     1      17.738   9.958  33.559  1.00  0.00    -0.274 OA
HETATM    3  O4  UNK     1      18.887  11.805  34.274  1.00  0.00    -0.260 OA
HETATM    4  C1  UNK     1      16.546   7.964  32.805  1.00  0.00     0.037 A 
HETATM    5  C2  UNK     1      17.701   8.559  33.340  1.00  0.00     0.103 A 
HETATM    6  C3  UNK     1      16.557   6.587  32.608  1.00  0.00     0.121 A 
HETATM    7  C4  UNK     1      18.814   7.772  33.656  1.00  0.00     0.002 A 
HETATM    8  C5  UNK     1      17.642   5.764  32.908  1.00  0.00     0.103 A 
HETATM    9  C6  UNK     1      18.777   6.388  33.440  1.00  0.00     0.054 A 
HETATM   10  C7  UNK     1      15.268   8.406  32.374  1.00  0.00     0.042 A 
HETATM   11  C8  UNK     1      19.994   8.420  34.209  1.00  0.00     0.020 A 
HETATM   12  C9  UNK     1      14.594   7.286  31.948  1.00  0.00     0.143 A 
HETATM   13  C10 UNK     1      20.012   9.740  34.408  1.00  0.00     0.083 A 
HETATM   14  C11 UNK     1      18.856  10.594  34.085  1.00  0.00     0.288 A 
ENDROOT
BRANCH   8  15
HETATM   15  O3  UNK     1      17.616   4.416  32.700  1.00  0.00    -0.353 OA
HETATM   16  C12 UNK     1      18.279   3.930  31.536  1.00  0.00     0.210 C 
ENDBRANCH   8  15
TORSDOF 1
ENDMDL
MODEL 6
REMARK VINA RESULT:      -6.7     12.998     14.989
REMARK  1 active torsions:
REMARK  status: ('A' for Active; 'I' for Inactive)
REMARK    1  A    between atoms: C5_9  and  O3_3 
ROOT
HETATM    1  O1  UNK     1      19.106   2.634  18.743  1.00  0.00    -0.319 OA
HETATM    2  O2  UNK     1      19.379   0.275  14.686  1.00  0.00    -0.274 OA
HETATM    3  O4  UNK     1      19.512  -0.866  12.706  1.00  0.00    -0.260 OA
HETATM    4  C1  UNK     1      19.225   1.457  16.818  1.00  0.00     0.037 A 
HETATM    5  C2  UNK     1      19.131   0.265  16.080  1.00  0.00     0.103 A 
HETATM    6  C3  UNK     1      18.973   1.397  18.184  1.00  0.00     0.121 A 
HETATM    7  C4  UNK     1      18.795  -0.932  16.722  1.00  0.00     0.002 A 
HETATM    8  C5  UNK     1      18.635   0.229  18.865  1.00  0.00     0.103 A 
HETATM    9  C6  UNK     1      18.550  -0.942  18.101  1.00  0.00     0.054 A 
HETATM   10  C7  UNK     1      19.528   2.816  16.540  1.00  0.00     0.042 A 
HETATM   11  C8  UNK     1      18.707  -2.149  15.929  1.00  0.00     0.020 A 
HETATM   12  C9  UNK     1      19.442   3.485  17.738  1.00  0.00     0.143 A 
HETATM   13  C10 UNK     1      18.942  -2.122  14.615  1.00  0.00     0.083 A 
HETATM   14  C11 UNK     1      19.299  -0.877  13.913  1.00  0.00     0.288 A 
ENDROOT
BRANCH   8  15
HETATM   15  O3  UNK     1      18.394   0.208  20.208  1.00  0.00    -0.353 OA
HETATM   16  C12 UNK     1      19.530   0.232  21.068  1.00  0.00     0.210 C 
ENDBRANCH   8  15
TORSDOF 1
ENDMDL
MODEL 7
REMARK VINA RESULT:      -6.7     15.236     17.968
REMARK  1 active torsions:
REMARK  status: ('A' for Active; 'I' for Inactive)
REMARK    1  A    between atoms: C5_9  and  O3_3 
ROOT
HETATM    1  O1  UNK     1      18.689  -3.653  12.187  1.00  0.00    -0.319 OA
HETATM    2  O2  UNK     1      19.477   0.303  14.602  1.00  0.00    -0.274 OA
HETATM    3  O4  UNK     1      19.865   2.233  15.771  1.00  0.00    -0.260 OA
HETATM    4  C1  UNK     1      19.053  -1.775  13.390  1.00  0.00     0.037 A 
HETATM    5  C2  UNK     1      19.068  -1.053  14.595  1.00  0.00     0.103 A 
HETATM    6  C3  UNK     1      18.644  -3.103  13.434  1.00  0.00     0.121 A 
HETATM    7  C4  UNK     1      18.678  -1.671  15.789  1.00  0.00     0.002 A 
HETATM    8  C5  UNK     1      18.247  -3.760  14.599  1.00  0.00     0.103 A 
HETATM    9  C6  UNK     1      18.273  -3.012  15.782  1.00  0.00     0.054 A 
HETATM   10  C7  UNK     1      19.364  -1.511  12.031  1.00  0.00     0.042 A 
HETATM   11  C8  UNK     1      18.704  -0.894  17.019  1.00  0.00     0.020 A 
HETATM   12  C9  UNK     1      19.127  -2.679  11.345  1.00  0.00     0.143 A 
HETATM   13  C10 UNK     1      19.094   0.383  17.008  1.00  0.00     0.083 A 
HETATM   14  C11 UNK     1      19.509   1.060  15.767  1.00  0.00     0.288 A 
ENDROOT
BRANCH   8  15
HETATM   15  O3  UNK     1      17.852  -5.066  14.603  1.00  0.00    -0.353 OA
HETATM   16  C12 UNK     1      18.484  -5.929  15.545  1.00  0.00     0.210 C 
ENDBRANCH   8  15
TORSDOF 1
ENDMDL
MODEL 8
REMARK VINA RESULT:      -6.7     15.193     17.176
REMARK  1 active torsions:
REMARK  status: ('A' for Active; 'I' for Inactive)
REMARK    1  A    between atoms: C5_9  and  O3_3 
ROOT
HETATM    1  O1  UNK     1      23.336  -5.302  16.323  1.00  0.00    -0.319 OA
HETATM    2  O2  UNK     1      19.961  -2.066  16.818  1.00  0.00    -0.274 OA
HETATM    3  O4  UNK     1      18.323  -0.487  17.065  1.00  0.00    -0.260 OA
HETATM    4  C1  UNK     1      21.684  -3.774  16.531  1.00  0.00     0.037 A 
HETATM    5  C2  UNK     1      20.392  -3.294  16.259  1.00  0.00     0.103 A 
HETATM    6  C3  UNK     1      22.061  -4.984  15.959  1.00  0.00     0.121 A 
HETATM    7  C4  UNK     1      19.530  -4.028  15.435  1.00  0.00     0.002 A 
HETATM    8  C5  UNK     1      21.236  -5.748  15.134  1.00  0.00     0.103 A 
HETATM    9  C6  UNK     1      19.955  -5.242  14.882  1.00  0.00     0.054 A 
HETATM   10  C7  UNK     1      22.804  -3.338  17.285  1.00  0.00     0.042 A 
HETATM   11  C8  UNK     1      18.198  -3.502  15.173  1.00  0.00     0.020 A 
HETATM   12  C9  UNK     1      23.776  -4.298  17.127  1.00  0.00     0.143 A 
HETATM   13  C10 UNK     1      17.808  -2.343  15.710  1.00  0.00     0.083 A 
HETATM   14  C11 UNK     1      18.694  -1.549  16.579  1.00  0.00     0.288 A 
ENDROOT
BRANCH   8  15
HETATM   15  O3  UNK     1      21.641  -6.933  14.591  1.00  0.00    -0.353 OA
HETATM   16  C12 UNK     1      21.024  -7.327  13.368  1.00  0.00     0.210 C 
ENDBRANCH   8  15
TORSDOF 1
ENDMDL
MODEL 9
REMARK VINA RESULT:      -6.7      8.933     10.677
REMARK  1 active torsions:
REMARK  status: ('A' for Active; 'I' for Inactive)
REMARK    1  A    between atoms: C5_9  and  O3_3 
ROOT
HETATM    1  O1  UNK     1      23.007  -5.437  38.635  1.00  0.00    -0.319 OA
HETATM    2  O2  UNK     1      20.666  -9.504  38.350  1.00  0.00    -0.274 OA
HETATM    3  O4  UNK     1      19.533 -11.488  38.215  1.00  0.00    -0.260 OA
HETATM    4  C1  UNK     1      21.848  -7.369  38.468  1.00  0.00     0.037 A 
HETATM    5  C2  UNK     1      20.779  -8.141  37.983  1.00  0.00     0.103 A 
HETATM    6  C3  UNK     1      21.915  -6.036  38.080  1.00  0.00     0.121 A 
HETATM    7  C4  UNK     1      19.824  -7.563  37.138  1.00  0.00     0.002 A 
HETATM    8  C5  UNK     1      20.988  -5.419  37.241  1.00  0.00     0.103 A 
HETATM    9  C6  UNK     1      19.934  -6.215  36.775  1.00  0.00     0.054 A 
HETATM   10  C7  UNK     1      22.970  -7.584  39.310  1.00  0.00     0.042 A 
HETATM   11  C8  UNK     1      18.728  -8.390  36.654  1.00  0.00     0.020 A 
HETATM   12  C9  UNK     1      23.639  -6.385  39.378  1.00  0.00     0.143 A 
HETATM   13  C10 UNK     1      18.638  -9.674  37.009  1.00  0.00     0.083 A 
HETATM   14  C11 UNK     1      19.628 -10.308  37.897  1.00  0.00     0.288 A 
ENDROOT
BRANCH   8  15
HETATM   15  O3  UNK     1      21.088  -4.106  36.881  1.00  0.00    -0.353 OA
HETATM   16  C12 UNK     1      20.083  -3.224  37.373  1.00  0.00     0.210 C 
ENDBRANCH   8  15
TORSDOF 1
ENDMDL
MODEL 10
REMARK VINA RESULT:      -6.6      2.319      4.132
REMARK  1 active torsions:
REMARK  status: ('A' for Active; 'I' for Inactive)
REMARK    1  A    between atoms: C5_9  and  O3_3 
ROOT
HETATM    1  O1  UNK     1      18.486  -0.860  35.236  1.00  0.00    -0.319 OA
HETATM    2  O2  UNK     1      18.815   0.690  30.810  1.00  0.00    -0.274 OA
HETATM    3  O4  UNK     1      18.969   1.450  28.656  1.00  0.00    -0.260 OA
HETATM    4  C1  UNK     1      18.676  -0.153  33.098  1.00  0.00     0.037 A 
HETATM    5  C2  UNK     1      19.186  -0.259  31.794  1.00  0.00     0.103 A 
HETATM    6  C3  UNK     1      19.070  -1.108  34.029  1.00  0.00     0.121 A 
HETATM    7  C4  UNK     1      20.062  -1.301  31.465  1.00  0.00     0.002 A 
HETATM    8  C5  UNK     1      19.938  -2.162  33.747  1.00  0.00     0.103 A 
HETATM    9  C6  UNK     1      20.430  -2.239  32.438  1.00  0.00     0.054 A 
HETATM   10  C7  UNK     1      17.801   0.724  33.791  1.00  0.00     0.042 A 
HETATM   11  C8  UNK     1      20.573  -1.381  30.105  1.00  0.00     0.020 A 
HETATM   12  C9  UNK     1      17.720   0.252  35.080  1.00  0.00     0.143 A 
HETATM   13  C10 UNK     1      20.211  -0.478  29.189  1.00  0.00     0.083 A 
HETATM   14  C11 UNK     1      19.292   0.628  29.507  1.00  0.00     0.288 A 
ENDROOT
BRANCH   8  15
HETATM   15  O3  UNK     1      20.302  -3.082  34.687  1.00  0.00    -0.353 OA
HETATM   16  C12 UNK     1      20.853  -2.580  35.902  1.00  0.00     0.210 C 
ENDBRANCH   8  15
TORSDOF 1
ENDMDL
