MODEL 1
REMARK VINA RESULT:      -7.5      0.000      0.000
REMARK  6 active torsions:
REMARK  status: ('A' for Active; 'I' for Inactive)
REMARK    1  A    between atoms: C1_8  and  S1_1 
REMARK    2  A    between atoms: C2_9  and  S1_1 
REMARK    3  A    between atoms: C3_10  and  N1_6 
REMARK    4  A    between atoms: C7_14  and  N1_6 
REMARK    5  A    between atoms: C9_16  and  N2_7 
REMARK    6  A    between atoms: C2_9  and  C3_10 
ROOT
HETATM    1  O1  UNK     1      19.609  -1.545  32.840  1.00  0.00    -0.273 OA
HETATM    2  O2  UNK     1      18.726  -1.319  34.931  1.00  0.00    -0.257 OA
HETATM    3  C7  UNK     1      18.453   0.991  32.163  1.00  0.00     0.081 A 
HETATM    4  C8  UNK     1      19.233   0.210  31.168  1.00  0.00     0.027 A 
HETATM    5  C9  UNK     1      18.328   0.428  33.377  1.00  0.00     0.205 A 
HETATM    6  C10 UNK     1      19.781  -1.022  31.543  1.00  0.00     0.092 A 
HETATM    7  C11 UNK     1      19.466   0.627  29.846  1.00  0.00     0.017 A 
HETATM    8  C12 UNK     1      18.884  -0.864  33.805  1.00  0.00     0.324 A 
HETATM    9  C13 UNK     1      20.527  -1.815  30.666  1.00  0.00     0.038 A 
HETATM   10  C14 UNK     1      20.210  -0.158  28.956  1.00  0.00     0.001 A 
HETATM   11  C15 UNK     1      20.741  -1.377  29.365  1.00  0.00     0.003 A 
ENDROOT
BRANCH   3  12
HETATM   12  N1  UNK     1      17.934   2.198  31.773  1.00  0.00    -0.386 N 
HETATM   13  H14 UNK     1      16.934   2.282  31.646  1.00  0.00     0.159 HD
BRANCH  12  14
HETATM   14  C3  UNK     1      18.703   3.412  31.744  1.00  0.00     0.130 C 
BRANCH  14  15
HETATM   15  C2  UNK     1      17.894   4.593  32.266  1.00  0.00     0.094 C 
BRANCH  15  16
HETATM   16  S1  UNK     1      18.478   5.166  33.891  1.00  0.00    -0.159 SA
BRANCH  16  17
HETATM   17  C1  UNK     1      19.136   6.769  33.379  1.00  0.00    -0.003 C 
HETATM   18  C4  UNK     1      19.142   7.706  34.589  1.00  0.00     0.026 C 
HETATM   19  C5  UNK     1      20.562   6.561  32.860  1.00  0.00     0.026 C 
HETATM   20  C6  UNK     1      18.244   7.334  32.270  1.00  0.00     0.026 C 
ENDBRANCH  16  17
ENDBRANCH  15  16
ENDBRANCH  14  15
ENDBRANCH  12  14
ENDBRANCH   3  12
BRANCH   5  21
HETATM   21  N2  UNK     1      17.585   1.148  34.361  1.00  0.00    -0.107 N 
HETATM   22  O3  UNK     1      18.221   1.909  35.099  1.00  0.00    -0.531 OA
HETATM   23  O4  UNK     1      16.365   0.954  34.396  1.00  0.00    -0.531 OA
ENDBRANCH   5  21
TORSDOF 6
ENDMDL
MODEL 2
REMARK VINA RESULT:      -7.5      1.393      2.128
REMARK  6 active torsions:
REMARK  status: ('A' for Active; 'I' for Inactive)
REMARK    1  A    between atoms: C1_8  and  S1_1 
REMARK    2  A    between atoms: C2_9  and  S1_1 
REMARK    3  A    between atoms: C3_10  and  N1_6 
REMARK    4  A    between atoms: C7_14  and  N1_6 
REMARK    5  A    between atoms: C9_16  and  N2_7 
REMARK    6  A    between atoms: C2_9  and  C3_10 
ROOT
HETATM    1  O1  UNK     1      20.555  -2.276  32.159  1.00  0.00    -0.273 OA
HETATM    2  O2  UNK     1      20.399  -3.055  34.297  1.00  0.00    -0.257 OA
HETATM    3  C7  UNK     1      18.790  -0.138  32.891  1.00  0.00     0.081 A 
HETATM    4  C8  UNK     1      19.322  -0.257  31.510  1.00  0.00     0.027 A 
HETATM    5  C9  UNK     1      19.186  -1.090  33.753  1.00  0.00     0.205 A 
HETATM    6  C10 UNK     1      20.182  -1.316  31.197  1.00  0.00     0.092 A 
HETATM    7  C11 UNK     1      19.016   0.634  30.467  1.00  0.00     0.017 A 
HETATM    8  C12 UNK     1      20.083  -2.218  33.460  1.00  0.00     0.324 A 
HETATM    9  C13 UNK     1      20.724  -1.498  29.921  1.00  0.00     0.038 A 
HETATM   10  C14 UNK     1      19.552   0.465  29.184  1.00  0.00     0.001 A 
HETATM   11  C15 UNK     1      20.405  -0.600  28.910  1.00  0.00     0.003 A 
ENDROOT
BRANCH   3  12
HETATM   12  N1  UNK     1      17.956   0.913  33.173  1.00  0.00    -0.386 N 
HETATM   13  H14 UNK     1      16.955   0.768  33.128  1.00  0.00     0.159 HD
BRANCH  12  14
HETATM   14  C3  UNK     1      18.414   2.150  33.742  1.00  0.00     0.130 C 
BRANCH  14  15
HETATM   15  C2  UNK     1      18.246   3.307  32.764  1.00  0.00     0.094 C 
BRANCH  15  16
HETATM   16  S1  UNK     1      18.337   4.926  33.587  1.00  0.00    -0.159 SA
BRANCH  16  17
HETATM   17  C1  UNK     1      19.015   5.879  32.209  1.00  0.00    -0.003 C 
HETATM   18  C4  UNK     1      19.201   4.944  31.011  1.00  0.00     0.026 C 
HETATM   19  C5  UNK     1      18.026   6.996  31.864  1.00  0.00     0.026 C 
HETATM   20  C6  UNK     1      20.359   6.473  32.638  1.00  0.00     0.026 C 
ENDBRANCH  16  17
ENDBRANCH  15  16
ENDBRANCH  14  15
ENDBRANCH  12  14
ENDBRANCH   3  12
BRANCH   5  21
HETATM   21  N2  UNK     1      18.696  -1.009  35.091  1.00  0.00    -0.107 N 
HETATM   22  O3  UNK     1      17.591  -1.516  35.315  1.00  0.00    -0.531 OA
HETATM   23  O4  UNK     1      19.415  -0.439  35.920  1.00  0.00    -0.531 OA
ENDBRANCH   5  21
TORSDOF 6
ENDMDL
MODEL 3
REMARK VINA RESULT:      -7.3      3.649      4.976
REMARK  6 active torsions:
REMARK  status: ('A' for Active; 'I' for Inactive)
REMARK    1  A    between atoms: C1_8  and  S1_1 
REMARK    2  A    between atoms: C2_9  and  S1_1 
REMARK    3  A    between atoms: C3_10  and  N1_6 
REMARK    4  A    between atoms: C7_14  and  N1_6 
REMARK    5  A    between atoms: C9_16  and  N2_7 
REMARK    6  A    between atoms: C2_9  and  C3_10 
ROOT
HETATM    1  O1  UNK     1      19.199   0.421  28.597  1.00  0.00    -0.273 OA
HETATM    2  O2  UNK     1      18.219   2.433  28.155  1.00  0.00    -0.257 OA
HETATM    3  C7  UNK     1      19.052   1.051  31.390  1.00  0.00     0.081 A 
HETATM    4  C8  UNK     1      19.645  -0.227  30.920  1.00  0.00     0.027 A 
HETATM    5  C9  UNK     1      18.604   1.875  30.428  1.00  0.00     0.205 A 
HETATM    6  C10 UNK     1      19.694  -0.494  29.547  1.00  0.00     0.092 A 
HETATM    7  C11 UNK     1      20.174  -1.212  31.772  1.00  0.00     0.017 A 
HETATM    8  C12 UNK     1      18.644   1.632  28.978  1.00  0.00     0.324 A 
HETATM    9  C13 UNK     1      20.235  -1.674  29.025  1.00  0.00     0.038 A 
HETATM   10  C14 UNK     1      20.719  -2.398  31.264  1.00  0.00     0.001 A 
HETATM   11  C15 UNK     1      20.750  -2.629  29.892  1.00  0.00     0.003 A 
ENDROOT
BRANCH   3  12
HETATM   12  N1  UNK     1      19.009   1.284  32.741  1.00  0.00    -0.386 N 
HETATM   13  H14 UNK     1      19.697   1.901  33.152  1.00  0.00     0.159 HD
BRANCH  12  14
HETATM   14  C3  UNK     1      17.911   0.877  33.574  1.00  0.00     0.130 C 
BRANCH  14  15
HETATM   15  C2  UNK     1      18.401   0.160  34.826  1.00  0.00     0.094 C 
BRANCH  15  16
HETATM   16  S1  UNK     1      18.709   1.307  36.203  1.00  0.00    -0.159 SA
BRANCH  16  17
HETATM   17  C1  UNK     1      17.537   0.609  37.388  1.00  0.00    -0.003 C 
HETATM   18  C4  UNK     1      17.871  -0.870  37.595  1.00  0.00     0.026 C 
HETATM   19  C5  UNK     1      17.672   1.374  38.708  1.00  0.00     0.026 C 
HETATM   20  C6  UNK     1      16.121   0.765  36.827  1.00  0.00     0.026 C 
ENDBRANCH  16  17
ENDBRANCH  15  16
ENDBRANCH  14  15
ENDBRANCH  12  14
ENDBRANCH   3  12
BRANCH   5  21
HETATM   21  N2  UNK     1      18.028   3.114  30.841  1.00  0.00    -0.107 N 
HETATM   22  O3  UNK     1      18.790   4.082  30.941  1.00  0.00    -0.531 OA
HETATM   23  O4  UNK     1      16.812   3.121  31.065  1.00  0.00    -0.531 OA
ENDBRANCH   5  21
TORSDOF 6
ENDMDL
MODEL 4
REMARK VINA RESULT:      -7.2      5.139      8.880
REMARK  6 active torsions:
REMARK  status: ('A' for Active; 'I' for Inactive)
REMARK    1  A    between atoms: C1_8  and  S1_1 
REMARK    2  A    between atoms: C2_9  and  S1_1 
REMARK    3  A    between atoms: C3_10  and  N1_6 
REMARK    4  A    between atoms: C7_14  and  N1_6 
REMARK    5  A    between atoms: C9_16  and  N2_7 
REMARK    6  A    between atoms: C2_9  and  C3_10 
ROOT
HETATM    1  O1  UNK     1      17.884  -0.609  33.298  1.00  0.00    -0.273 OA
HETATM    2  O2  UNK     1      19.219  -1.472  31.662  1.00  0.00    -0.257 OA
HETATM    3  C7  UNK     1      19.634  -1.787  35.240  1.00  0.00     0.081 A 
HETATM    4  C8  UNK     1      18.436  -1.013  35.654  1.00  0.00     0.027 A 
HETATM    5  C9  UNK     1      19.829  -1.896  33.915  1.00  0.00     0.205 A 
HETATM    6  C10 UNK     1      17.610  -0.454  34.672  1.00  0.00     0.092 A 
HETATM    7  C11 UNK     1      18.060  -0.796  36.991  1.00  0.00     0.017 A 
HETATM    8  C12 UNK     1      18.982  -1.328  32.856  1.00  0.00     0.324 A 
HETATM    9  C13 UNK     1      16.466   0.288  34.980  1.00  0.00     0.038 A 
HETATM   10  C14 UNK     1      16.916  -0.055  37.314  1.00  0.00     0.001 A 
HETATM   11  C15 UNK     1      16.119   0.486  36.310  1.00  0.00     0.003 A 
ENDROOT
BRANCH   3  12
HETATM   12  N1  UNK     1      20.431  -2.317  36.223  1.00  0.00    -0.386 N 
HETATM   13  H14 UNK     1      21.294  -1.846  36.459  1.00  0.00     0.159 HD
BRANCH  12  14
HETATM   14  C3  UNK     1      20.007  -3.382  37.088  1.00  0.00     0.130 C 
BRANCH  14  15
HETATM   15  C2  UNK     1      19.952  -4.712  36.346  1.00  0.00     0.094 C 
BRANCH  15  16
HETATM   16  S1  UNK     1      20.764  -6.053  37.269  1.00  0.00    -0.159 SA
BRANCH  16  17
HETATM   17  C1  UNK     1      20.341  -7.420  36.165  1.00  0.00    -0.003 C 
HETATM   18  C4  UNK     1      19.130  -8.158  36.741  1.00  0.00     0.026 C 
HETATM   19  C5  UNK     1      20.005  -6.840  34.788  1.00  0.00     0.026 C 
HETATM   20  C6  UNK     1      21.545  -8.361  36.066  1.00  0.00     0.026 C 
ENDBRANCH  16  17
ENDBRANCH  15  16
ENDBRANCH  14  15
ENDBRANCH  12  14
ENDBRANCH   3  12
BRANCH   5  21
HETATM   21  N2  UNK     1      20.971  -2.634  33.478  1.00  0.00    -0.107 N 
HETATM   22  O3  UNK     1      20.795  -3.823  33.193  1.00  0.00    -0.531 OA
HETATM   23  O4  UNK     1      22.045  -2.024  33.420  1.00  0.00    -0.531 OA
ENDBRANCH   5  21
TORSDOF 6
ENDMDL
MODEL 5
REMARK VINA RESULT:      -7.2      3.687      7.042
REMARK  6 active torsions:
REMARK  status: ('A' for Active; 'I' for Inactive)
REMARK    1  A    between atoms: C1_8  and  S1_1 
REMARK    2  A    between atoms: C2_9  and  S1_1 
REMARK    3  A    between atoms: C3_10  and  N1_6 
REMARK    4  A    between atoms: C7_14  and  N1_6 
REMARK    5  A    between atoms: C9_16  and  N2_7 
REMARK    6  A    between atoms: C2_9  and  C3_10 
ROOT
HETATM    1  O1  UNK     1      18.839   1.468  31.514  1.00  0.00    -0.273 OA
HETATM    2  O2  UNK     1      17.837   2.826  33.049  1.00  0.00    -0.257 OA
HETATM    3  C7  UNK     1      18.737  -0.653  33.441  1.00  0.00     0.081 A 
HETATM    4  C8  UNK     1      19.331  -0.864  32.096  1.00  0.00     0.027 A 
HETATM    5  C9  UNK     1      18.266   0.582  33.684  1.00  0.00     0.205 A 
HETATM    6  C10 UNK     1      19.358   0.200  31.186  1.00  0.00     0.092 A 
HETATM    7  C11 UNK     1      19.882  -2.080  31.658  1.00  0.00     0.017 A 
HETATM    8  C12 UNK     1      18.282   1.723  32.757  1.00  0.00     0.324 A 
HETATM    9  C13 UNK     1      19.898   0.081  29.902  1.00  0.00     0.038 A 
HETATM   10  C14 UNK     1      20.427  -2.213  30.375  1.00  0.00     0.001 A 
HETATM   11  C15 UNK     1      20.435  -1.134  29.497  1.00  0.00     0.003 A 
ENDROOT
BRANCH   3  12
HETATM   12  N1  UNK     1      18.717  -1.714  34.311  1.00  0.00    -0.386 N 
HETATM   13  H14 UNK     1      18.008  -2.427  34.195  1.00  0.00     0.159 HD
BRANCH  12  14
HETATM   14  C3  UNK     1      19.776  -1.986  35.242  1.00  0.00     0.130 C 
BRANCH  14  15
HETATM   15  C2  UNK     1      20.126  -3.469  35.266  1.00  0.00     0.094 C 
BRANCH  15  16
HETATM   16  S1  UNK     1      20.105  -4.157  36.950  1.00  0.00    -0.159 SA
BRANCH  16  17
HETATM   17  C1  UNK     1      19.870  -5.895  36.516  1.00  0.00    -0.003 C 
HETATM   18  C4  UNK     1      20.082  -6.058  35.009  1.00  0.00     0.026 C 
HETATM   19  C5  UNK     1      20.897  -6.728  37.289  1.00  0.00     0.026 C 
HETATM   20  C6  UNK     1      18.449  -6.310  36.905  1.00  0.00     0.026 C 
ENDBRANCH  16  17
ENDBRANCH  15  16
ENDBRANCH  14  15
ENDBRANCH  12  14
ENDBRANCH   3  12
BRANCH   5  21
HETATM   21  N2  UNK     1      17.688   0.823  34.967  1.00  0.00    -0.107 N 
HETATM   22  O3  UNK     1      16.481   0.589  35.092  1.00  0.00    -0.531 OA
HETATM   23  O4  UNK     1      18.442   1.246  35.851  1.00  0.00    -0.531 OA
ENDBRANCH   5  21
TORSDOF 6
ENDMDL
MODEL 6
REMARK VINA RESULT:      -7.0      2.317      4.073
REMARK  6 active torsions:
REMARK  status: ('A' for Active; 'I' for Inactive)
REMARK    1  A    between atoms: C1_8  and  S1_1 
REMARK    2  A    between atoms: C2_9  and  S1_1 
REMARK    3  A    between atoms: C3_10  and  N1_6 
REMARK    4  A    between atoms: C7_14  and  N1_6 
REMARK    5  A    between atoms: C9_16  and  N2_7 
REMARK    6  A    between atoms: C2_9  and  C3_10 
ROOT
HETATM    1  O1  UNK     1      19.444  -1.963  32.113  1.00  0.00    -0.273 OA
HETATM    2  O2  UNK     1      20.304  -2.873  30.206  1.00  0.00    -0.257 OA
HETATM    3  C7  UNK     1      19.425   0.585  30.797  1.00  0.00     0.081 A 
HETATM    4  C8  UNK     1      18.961   0.441  32.200  1.00  0.00     0.027 A 
HETATM    5  C9  UNK     1      19.851  -0.544  30.204  1.00  0.00     0.205 A 
HETATM    6  C10 UNK     1      18.985  -0.823  32.803  1.00  0.00     0.092 A 
HETATM    7  C11 UNK     1      18.488   1.504  32.988  1.00  0.00     0.017 A 
HETATM    8  C12 UNK     1      19.897  -1.885  30.806  1.00  0.00     0.324 A 
HETATM    9  C13 UNK     1      18.565  -1.040  34.118  1.00  0.00     0.038 A 
HETATM   10  C14 UNK     1      18.063   1.301  34.307  1.00  0.00     0.001 A 
HETATM   11  C15 UNK     1      18.102   0.030  34.872  1.00  0.00     0.003 A 
ENDROOT
BRANCH   3  12
HETATM   12  N1  UNK     1      19.383   1.832  30.228  1.00  0.00    -0.386 N 
HETATM   13  H14 UNK     1      20.252   2.318  30.051  1.00  0.00     0.159 HD
BRANCH  12  14
HETATM   14  C3  UNK     1      18.189   2.399  29.666  1.00  0.00     0.130 C 
BRANCH  14  15
HETATM   15  C2  UNK     1      17.849   3.735  30.316  1.00  0.00     0.094 C 
BRANCH  15  16
HETATM   16  S1  UNK     1      19.306   4.811  30.484  1.00  0.00    -0.159 SA
BRANCH  16  17
HETATM   17  C1  UNK     1      18.695   5.865  31.819  1.00  0.00    -0.003 C 
HETATM   18  C4  UNK     1      19.893   6.504  32.526  1.00  0.00     0.026 C 
HETATM   19  C5  UNK     1      17.799   6.947  31.208  1.00  0.00     0.026 C 
HETATM   20  C6  UNK     1      17.894   5.002  32.798  1.00  0.00     0.026 C 
ENDBRANCH  16  17
ENDBRANCH  15  16
ENDBRANCH  14  15
ENDBRANCH  12  14
ENDBRANCH   3  12
BRANCH   5  21
HETATM   21  N2  UNK     1      20.306  -0.446  28.855  1.00  0.00    -0.107 N 
HETATM   22  O3  UNK     1      21.524  -0.322  28.681  1.00  0.00    -0.531 OA
HETATM   23  O4  UNK     1      19.446  -0.492  27.968  1.00  0.00    -0.531 OA
ENDBRANCH   5  21
TORSDOF 6
ENDMDL
MODEL 7
REMARK VINA RESULT:      -7.0      2.281      4.156
REMARK  6 active torsions:
REMARK  status: ('A' for Active; 'I' for Inactive)
REMARK    1  A    between atoms: C1_8  and  S1_1 
REMARK    2  A    between atoms: C2_9  and  S1_1 
REMARK    3  A    between atoms: C3_10  and  N1_6 
REMARK    4  A    between atoms: C7_14  and  N1_6 
REMARK    5  A    between atoms: C9_16  and  N2_7 
REMARK    6  A    between atoms: C2_9  and  C3_10 
ROOT
HETATM    1  O1  UNK     1      19.049  -1.887  34.275  1.00  0.00    -0.273 OA
HETATM    2  O2  UNK     1      19.955  -2.130  32.196  1.00  0.00    -0.257 OA
HETATM    3  C7  UNK     1      18.355   0.805  33.573  1.00  0.00     0.081 A 
HETATM    4  C8  UNK     1      18.038   0.254  34.915  1.00  0.00     0.027 A 
HETATM    5  C9  UNK     1      18.984  -0.034  32.732  1.00  0.00     0.205 A 
HETATM    6  C10 UNK     1      18.393  -1.067  35.214  1.00  0.00     0.092 A 
HETATM    7  C11 UNK     1      17.392   0.977  35.933  1.00  0.00     0.017 A 
HETATM    8  C12 UNK     1      19.378  -1.423  33.012  1.00  0.00     0.324 A 
HETATM    9  C13 UNK     1      18.128  -1.658  36.453  1.00  0.00     0.038 A 
HETATM   10  C14 UNK     1      17.121   0.398  37.179  1.00  0.00     0.001 A 
HETATM   11  C15 UNK     1      17.488  -0.918  37.439  1.00  0.00     0.003 A 
ENDROOT
BRANCH   3  12
HETATM   12  N1  UNK     1      17.990   2.099  33.304  1.00  0.00    -0.386 N 
HETATM   13  H14 UNK     1      17.299   2.272  32.584  1.00  0.00     0.159 HD
BRANCH  12  14
HETATM   14  C3  UNK     1      18.366   3.210  34.132  1.00  0.00     0.130 C 
BRANCH  14  15
HETATM   15  C2  UNK     1      18.180   4.535  33.402  1.00  0.00     0.094 C 
BRANCH  15  16
HETATM   16  S1  UNK     1      18.361   4.362  31.600  1.00  0.00    -0.159 SA
BRANCH  16  17
HETATM   17  C1  UNK     1      19.013   6.010  31.247  1.00  0.00    -0.003 C 
HETATM   18  C4  UNK     1      19.828   6.484  32.453  1.00  0.00     0.026 C 
HETATM   19  C5  UNK     1      19.905   5.919  30.005  1.00  0.00     0.026 C 
HETATM   20  C6  UNK     1      17.838   6.958  30.989  1.00  0.00     0.026 C 
ENDBRANCH  16  17
ENDBRANCH  15  16
ENDBRANCH  14  15
ENDBRANCH  12  14
ENDBRANCH   3  12
BRANCH   5  21
HETATM   21  N2  UNK     1      19.308   0.460  31.432  1.00  0.00    -0.107 N 
HETATM   22  O3  UNK     1      18.366   0.838  30.726  1.00  0.00    -0.531 OA
HETATM   23  O4  UNK     1      20.503   0.471  31.117  1.00  0.00    -0.531 OA
ENDBRANCH   5  21
TORSDOF 6
ENDMDL
MODEL 8
REMARK VINA RESULT:      -6.9      2.307      4.107
REMARK  6 active torsions:
REMARK  status: ('A' for Active; 'I' for Inactive)
REMARK    1  A    between atoms: C1_8  and  S1_1 
REMARK    2  A    between atoms: C2_9  and  S1_1 
REMARK    3  A    between atoms: C3_10  and  N1_6 
REMARK    4  A    between atoms: C7_14  and  N1_6 
REMARK    5  A    between atoms: C9_16  and  N2_7 
REMARK    6  A    between atoms: C2_9  and  C3_10 
ROOT
HETATM    1  O1  UNK     1      19.910  -2.274  34.382  1.00  0.00    -0.273 OA
HETATM    2  O2  UNK     1      21.289  -3.193  32.814  1.00  0.00    -0.257 OA
HETATM    3  C7  UNK     1      18.973  -0.451  32.378  1.00  0.00     0.081 A 
HETATM    4  C8  UNK     1      18.453  -0.399  33.768  1.00  0.00     0.027 A 
HETATM    5  C9  UNK     1      19.901  -1.393  32.137  1.00  0.00     0.205 A 
HETATM    6  C10 UNK     1      18.938  -1.310  34.714  1.00  0.00     0.092 A 
HETATM    7  C11 UNK     1      17.488   0.520  34.216  1.00  0.00     0.017 A 
HETATM    8  C12 UNK     1      20.437  -2.362  33.104  1.00  0.00     0.324 A 
HETATM    9  C13 UNK     1      18.498  -1.327  36.041  1.00  0.00     0.038 A 
HETATM   10  C14 UNK     1      17.039   0.515  35.543  1.00  0.00     0.001 A 
HETATM   11  C15 UNK     1      17.543  -0.407  36.455  1.00  0.00     0.003 A 
ENDROOT
BRANCH   3  12
HETATM   12  N1  UNK     1      18.477   0.448  31.469  1.00  0.00    -0.386 N 
HETATM   13  H14 UNK     1      17.528   0.333  31.136  1.00  0.00     0.159 HD
BRANCH  12  14
HETATM   14  C3  UNK     1      19.148   1.671  31.126  1.00  0.00     0.130 C 
BRANCH  14  15
HETATM   15  C2  UNK     1      18.214   2.869  31.245  1.00  0.00     0.094 C 
BRANCH  15  16
HETATM   16  S1  UNK     1      18.964   4.396  30.601  1.00  0.00    -0.159 SA
BRANCH  16  17
HETATM   17  C1  UNK     1      18.688   5.448  32.045  1.00  0.00    -0.003 C 
HETATM   18  C4  UNK     1      18.183   4.576  33.197  1.00  0.00     0.026 C 
HETATM   19  C5  UNK     1      20.017   6.109  32.421  1.00  0.00     0.026 C 
HETATM   20  C6  UNK     1      17.648   6.513  31.685  1.00  0.00     0.026 C 
ENDBRANCH  16  17
ENDBRANCH  15  16
ENDBRANCH  14  15
ENDBRANCH  12  14
ENDBRANCH   3  12
BRANCH   5  21
HETATM   21  N2  UNK     1      20.426  -1.473  30.811  1.00  0.00    -0.107 N 
HETATM   22  O3  UNK     1      21.341  -0.693  30.522  1.00  0.00    -0.531 OA
HETATM   23  O4  UNK     1      19.924  -2.315  30.059  1.00  0.00    -0.531 OA
ENDBRANCH   5  21
TORSDOF 6
ENDMDL
MODEL 9
REMARK VINA RESULT:      -6.9     14.926     16.395
REMARK  6 active torsions:
REMARK  status: ('A' for Active; 'I' for Inactive)
REMARK    1  A    between atoms: C1_8  and  S1_1 
REMARK    2  A    between atoms: C2_9  and  S1_1 
REMARK    3  A    between atoms: C3_10  and  N1_6 
REMARK    4  A    between atoms: C7_14  and  N1_6 
REMARK    5  A    between atoms: C9_16  and  N2_7 
REMARK    6  A    between atoms: C2_9  and  C3_10 
ROOT
HETATM    1  O1  UNK     1      28.381  -5.835  39.648  1.00  0.00    -0.273 OA
HETATM    2  O2  UNK     1      29.574  -3.892  39.732  1.00  0.00    -0.257 OA
HETATM    3  C7  UNK     1      30.324  -6.858  37.805  1.00  0.00     0.081 A 
HETATM    4  C8  UNK     1      29.156  -7.674  38.223  1.00  0.00     0.027 A 
HETATM    5  C9  UNK     1      30.398  -5.628  38.341  1.00  0.00     0.205 A 
HETATM    6  C10 UNK     1      28.232  -7.135  39.126  1.00  0.00     0.092 A 
HETATM    7  C11 UNK     1      28.901  -8.979  37.766  1.00  0.00     0.017 A 
HETATM    8  C12 UNK     1      29.446  -5.026  39.287  1.00  0.00     0.324 A 
HETATM    9  C13 UNK     1      27.108  -7.840  39.568  1.00  0.00     0.038 A 
HETATM   10  C14 UNK     1      27.779  -9.696  38.200  1.00  0.00     0.001 A 
HETATM   11  C15 UNK     1      26.883  -9.128  39.100  1.00  0.00     0.003 A 
ENDROOT
BRANCH   3  12
HETATM   12  N1  UNK     1      31.218  -7.413  36.925  1.00  0.00    -0.386 N 
HETATM   13  H14 UNK     1      31.110  -7.225  35.937  1.00  0.00     0.159 HD
BRANCH  12  14
HETATM   14  C3  UNK     1      32.427  -8.067  37.341  1.00  0.00     0.130 C 
BRANCH  14  15
HETATM   15  C2  UNK     1      33.572  -7.782  36.377  1.00  0.00     0.094 C 
BRANCH  15  16
HETATM   16  S1  UNK     1      33.101  -6.606  35.072  1.00  0.00    -0.159 SA
BRANCH  16  17
HETATM   17  C1  UNK     1      34.607  -5.609  35.066  1.00  0.00    -0.003 C 
HETATM   18  C4  UNK     1      35.538  -6.132  33.969  1.00  0.00     0.026 C 
HETATM   19  C5  UNK     1      34.221  -4.153  34.786  1.00  0.00     0.026 C 
HETATM   20  C6  UNK     1      35.279  -5.725  36.437  1.00  0.00     0.026 C 
ENDBRANCH  16  17
ENDBRANCH  15  16
ENDBRANCH  14  15
ENDBRANCH  12  14
ENDBRANCH   3  12
BRANCH   5  21
HETATM   21  N2  UNK     1      31.507  -4.812  37.963  1.00  0.00    -0.107 N 
HETATM   22  O3  UNK     1      32.537  -4.918  38.638  1.00  0.00    -0.531 OA
HETATM   23  O4  UNK     1      31.349  -4.066  36.990  1.00  0.00    -0.531 OA
ENDBRANCH   5  21
TORSDOF 6
ENDMDL
MODEL 10
REMARK VINA RESULT:      -6.8      3.848      4.856
REMARK  6 active torsions:
REMARK  status: ('A' for Active; 'I' for Inactive)
REMARK    1  A    between atoms: C1_8  and  S1_1 
REMARK    2  A    between atoms: C2_9  and  S1_1 
REMARK    3  A    between atoms: C3_10  and  N1_6 
REMARK    4  A    between atoms: C7_14  and  N1_6 
REMARK    5  A    between atoms: C9_16  and  N2_7 
REMARK    6  A    between atoms: C2_9  and  C3_10 
ROOT
HETATM    1  O1  UNK     1      20.957  -2.852  30.626  1.00  0.00    -0.273 OA
HETATM    2  O2  UNK     1      21.624  -4.379  32.183  1.00  0.00    -0.257 OA
HETATM    3  C7  UNK     1      19.842  -1.285  32.753  1.00  0.00     0.081 A 
HETATM    4  C8  UNK     1      19.747  -0.841  31.339  1.00  0.00     0.027 A 
HETATM    5  C9  UNK     1      20.472  -2.455  32.956  1.00  0.00     0.205 A 
HETATM    6  C10 UNK     1      20.308  -1.636  30.332  1.00  0.00     0.092 A 
HETATM    7  C11 UNK     1      19.120   0.347  30.925  1.00  0.00     0.017 A 
HETATM    8  C12 UNK     1      21.067  -3.319  31.925  1.00  0.00     0.324 A 
HETATM    9  C13 UNK     1      20.261  -1.287  28.979  1.00  0.00     0.038 A 
HETATM   10  C14 UNK     1      19.065   0.709  29.573  1.00  0.00     0.001 A 
HETATM   11  C15 UNK     1      19.635  -0.106  28.601  1.00  0.00     0.003 A 
ENDROOT
BRANCH   3  12
HETATM   12  N1  UNK     1      19.291  -0.483  33.719  1.00  0.00    -0.386 N 
HETATM   13  H14 UNK     1      19.861   0.241  34.136  1.00  0.00     0.159 HD
BRANCH  12  14
HETATM   14  C3  UNK     1      17.887  -0.468  34.021  1.00  0.00     0.130 C 
BRANCH  14  15
HETATM   15  C2  UNK     1      17.454   0.882  34.579  1.00  0.00     0.094 C 
BRANCH  15  16
HETATM   16  S1  UNK     1      18.462   1.397  36.003  1.00  0.00    -0.159 SA
BRANCH  16  17
HETATM   17  C1  UNK     1      17.451   0.669  37.312  1.00  0.00    -0.003 C 
HETATM   18  C4  UNK     1      17.864  -0.793  37.496  1.00  0.00     0.026 C 
HETATM   19  C5  UNK     1      17.695   1.457  38.603  1.00  0.00     0.026 C 
HETATM   20  C6  UNK     1      15.978   0.762  36.903  1.00  0.00     0.026 C 
ENDBRANCH  16  17
ENDBRANCH  15  16
ENDBRANCH  14  15
ENDBRANCH  12  14
ENDBRANCH   3  12
BRANCH   5  21
HETATM   21  N2  UNK     1      20.582  -2.916  34.302  1.00  0.00    -0.107 N 
HETATM   22  O3  UNK     1      21.116  -2.152  35.114  1.00  0.00    -0.531 OA
HETATM   23  O4  UNK     1      20.135  -4.042  34.549  1.00  0.00    -0.531 OA
ENDBRANCH   5  21
TORSDOF 6
ENDMDL
