MODEL 1
REMARK VINA RESULT:      -9.2      0.000      0.000
REMARK  5 active torsions:
REMARK  status: ('A' for Active; 'I' for Inactive)
REMARK    1  A    between atoms: C21_26  and  O3_3 
REMARK    2  A    between atoms: C5_10  and  N1_4 
REMARK    3  A    between atoms: C6_11  and  N2_5 
REMARK    4  A    between atoms: C5_10  and  C7_12 
REMARK    5  A    between atoms: C6_11  and  C8_13 
ROOT
HETATM    1  N1  UNK     1      20.051  -3.910  36.783  1.00  0.00     0.096 N 
HETATM    2  N2  UNK     1      20.500  -6.748  37.108  1.00  0.00     0.096 N 
HETATM    3  C1  UNK     1      20.004  -4.827  35.636  1.00  0.00     0.303 C 
HETATM    4  C2  UNK     1      20.965  -4.426  37.810  1.00  0.00     0.303 C 
HETATM    5  C3  UNK     1      19.588  -6.234  36.078  1.00  0.00     0.303 C 
HETATM    6  C4  UNK     1      20.549  -5.832  38.255  1.00  0.00     0.303 C 
ENDROOT
BRANCH   1   7
HETATM    7  C5  UNK     1      20.449  -2.570  36.360  1.00  0.00     0.312 C 
BRANCH   7   8
HETATM    8  C7  UNK     1      19.450  -1.948  35.449  1.00  0.00    -0.011 A 
HETATM    9  C10 UNK     1      18.306  -1.431  35.922  1.00  0.00     0.092 A 
HETATM   10  C15 UNK     1      17.290  -0.805  35.060  1.00  0.00     0.288 A 
HETATM   11  O1  UNK     1      17.563  -0.768  33.701  1.00  0.00    -0.275 OA
HETATM   12  O2  UNK     1      16.255  -0.343  35.529  1.00  0.00    -0.260 OA
HETATM   13  C11 UNK     1      18.755  -1.304  33.173  1.00  0.00     0.090 A 
HETATM   14  C16 UNK     1      18.924  -1.211  31.791  1.00  0.00     0.045 A 
HETATM   15  C9  UNK     1      19.710  -1.893  34.004  1.00  0.00     0.006 A 
HETATM   16  C17 UNK     1      20.081  -1.722  31.214  1.00  0.00    -0.059 A 
HETATM   17  C18 UNK     1      21.052  -2.316  32.018  1.00  0.00     0.007 A 
HETATM   18  C22 UNK     1      20.283  -1.634  29.739  1.00  0.00     0.048 C 
HETATM   19  C14 UNK     1      20.868  -2.402  33.402  1.00  0.00     0.015 A 
ENDBRANCH   7   8
ENDBRANCH   1   7
BRANCH   2  20
HETATM   20  C6  UNK     1      20.100  -8.089  37.531  1.00  0.00     0.311 C 
BRANCH  20  21
HETATM   21  C8  UNK     1      21.025  -9.093  36.922  1.00  0.00    -0.030 A 
HETATM   22  C12 UNK     1      20.511 -10.244  36.325  1.00  0.00     0.011 A 
HETATM   23  C19 UNK     1      21.375 -11.181  35.758  1.00  0.00     0.037 A 
HETATM   24  C21 UNK     1      22.752 -10.968  35.789  1.00  0.00     0.068 A 
HETATM   25  C20 UNK     1      23.267  -9.817  36.386  1.00  0.00     0.037 A 
HETATM   26  C13 UNK     1      22.403  -8.880  36.954  1.00  0.00     0.011 A 
BRANCH  24  27
HETATM   27  O3  UNK     1      23.596 -11.881  35.234  1.00  0.00    -0.356 OA
HETATM   28  C23 UNK     1      24.732 -12.267  36.006  1.00  0.00     0.210 C 
ENDBRANCH  24  27
ENDBRANCH  20  21
ENDBRANCH   2  20
TORSDOF 5
ENDMDL
MODEL 2
REMARK VINA RESULT:      -9.0      8.065     11.650
REMARK  5 active torsions:
REMARK  status: ('A' for Active; 'I' for Inactive)
REMARK    1  A    between atoms: C21_26  and  O3_3 
REMARK    2  A    between atoms: C5_10  and  N1_4 
REMARK    3  A    between atoms: C6_11  and  N2_5 
REMARK    4  A    between atoms: C5_10  and  C7_12 
REMARK    5  A    between atoms: C6_11  and  C8_13 
ROOT
HETATM    1  N1  UNK     1      18.320   5.775  32.055  1.00  0.00     0.096 N 
HETATM    2  N2  UNK     1      18.920   3.390  30.534  1.00  0.00     0.096 N 
HETATM    3  C1  UNK     1      19.379   5.765  31.038  1.00  0.00     0.303 C 
HETATM    4  C2  UNK     1      18.161   4.438  32.639  1.00  0.00     0.303 C 
HETATM    5  C3  UNK     1      19.082   4.728  29.950  1.00  0.00     0.303 C 
HETATM    6  C4  UNK     1      17.862   3.399  31.552  1.00  0.00     0.303 C 
ENDROOT
BRANCH   1   7
HETATM    7  C5  UNK     1      18.605   6.764  33.092  1.00  0.00     0.312 C 
BRANCH   7   8
HETATM    8  C7  UNK     1      17.407   7.575  33.440  1.00  0.00    -0.011 A 
HETATM    9  C10 UNK     1      16.183   7.027  33.472  1.00  0.00     0.092 A 
HETATM   10  C15 UNK     1      14.970   7.790  33.812  1.00  0.00     0.288 A 
HETATM   11  O1  UNK     1      15.141   9.133  34.107  1.00  0.00    -0.275 OA
HETATM   12  O2  UNK     1      13.867   7.254  33.830  1.00  0.00    -0.260 OA
HETATM   13  C11 UNK     1      16.414   9.738  34.082  1.00  0.00     0.090 A 
HETATM   14  C16 UNK     1      16.467  11.097  34.396  1.00  0.00     0.045 A 
HETATM   15  C9  UNK     1      17.555   9.002  33.759  1.00  0.00     0.006 A 
HETATM   16  C17 UNK     1      17.695  11.747  34.389  1.00  0.00    -0.059 A 
HETATM   17  C18 UNK     1      18.852  11.038  34.069  1.00  0.00     0.007 A 
HETATM   18  C22 UNK     1      17.776  13.199  34.721  1.00  0.00     0.048 C 
HETATM   19  C14 UNK     1      18.783   9.676  33.756  1.00  0.00     0.015 A 
ENDBRANCH   7   8
ENDBRANCH   1   7
BRANCH   2  20
HETATM   20  C6  UNK     1      18.633   2.402  29.495  1.00  0.00     0.311 C 
BRANCH  20  21
HETATM   21  C8  UNK     1      19.192   1.079  29.908  1.00  0.00    -0.030 A 
HETATM   22  C12 UNK     1      19.091   0.661  31.235  1.00  0.00     0.011 A 
HETATM   23  C19 UNK     1      19.615  -0.573  31.620  1.00  0.00     0.037 A 
HETATM   24  C21 UNK     1      20.240  -1.390  30.678  1.00  0.00     0.068 A 
HETATM   25  C20 UNK     1      20.340  -0.973  29.351  1.00  0.00     0.037 A 
HETATM   26  C13 UNK     1      19.817   0.262  28.966  1.00  0.00     0.011 A 
BRANCH  24  27
HETATM   27  O3  UNK     1      20.748  -2.596  31.052  1.00  0.00    -0.356 OA
HETATM   28  C23 UNK     1      20.987  -2.795  32.444  1.00  0.00     0.210 C 
ENDBRANCH  24  27
ENDBRANCH  20  21
ENDBRANCH   2  20
TORSDOF 5
ENDMDL
MODEL 3
REMARK VINA RESULT:      -9.0      1.092      3.223
REMARK  5 active torsions:
REMARK  status: ('A' for Active; 'I' for Inactive)
REMARK    1  A    between atoms: C21_26  and  O3_3 
REMARK    2  A    between atoms: C5_10  and  N1_4 
REMARK    3  A    between atoms: C6_11  and  N2_5 
REMARK    4  A    between atoms: C5_10  and  C7_12 
REMARK    5  A    between atoms: C6_11  and  C8_13 
ROOT
HETATM    1  N1  UNK     1      20.187  -3.798  36.520  1.00  0.00     0.096 N 
HETATM    2  N2  UNK     1      20.588  -6.629  36.952  1.00  0.00     0.096 N 
HETATM    3  C1  UNK     1      20.194  -4.748  35.399  1.00  0.00     0.303 C 
HETATM    4  C2  UNK     1      21.037  -4.291  37.611  1.00  0.00     0.303 C 
HETATM    5  C3  UNK     1      19.740  -6.137  35.858  1.00  0.00     0.303 C 
HETATM    6  C4  UNK     1      20.582  -5.680  38.072  1.00  0.00     0.303 C 
ENDROOT
BRANCH   1   7
HETATM    7  C5  UNK     1      20.622  -2.474  36.081  1.00  0.00     0.312 C 
BRANCH   7   8
HETATM    8  C7  UNK     1      19.688  -1.876  35.088  1.00  0.00    -0.011 A 
HETATM    9  C10 UNK     1      19.902  -2.004  33.770  1.00  0.00     0.092 A 
HETATM   10  C15 UNK     1      19.006  -1.432  32.751  1.00  0.00     0.288 A 
HETATM   11  O1  UNK     1      17.901  -0.735  33.215  1.00  0.00    -0.275 OA
HETATM   12  O2  UNK     1      19.234  -1.569  31.554  1.00  0.00    -0.260 OA
HETATM   13  C11 UNK     1      17.649  -0.583  34.593  1.00  0.00     0.090 A 
HETATM   14  C16 UNK     1      16.507   0.138  34.945  1.00  0.00     0.045 A 
HETATM   15  C9  UNK     1      18.507  -1.132  35.547  1.00  0.00     0.006 A 
HETATM   16  C17 UNK     1      16.207   0.320  36.290  1.00  0.00    -0.059 A 
HETATM   17  C18 UNK     1      17.046  -0.216  37.265  1.00  0.00     0.007 A 
HETATM   18  C22 UNK     1      14.992   1.087  36.689  1.00  0.00     0.048 C 
HETATM   19  C14 UNK     1      18.188  -0.937  36.897  1.00  0.00     0.015 A 
ENDBRANCH   7   8
ENDBRANCH   1   7
BRANCH   2  20
HETATM   20  C6  UNK     1      20.150  -7.954  37.390  1.00  0.00     0.311 C 
BRANCH  20  21
HETATM   21  C8  UNK     1      21.070  -8.987  36.824  1.00  0.00    -0.030 A 
HETATM   22  C12 UNK     1      22.452  -8.821  36.922  1.00  0.00     0.011 A 
HETATM   23  C19 UNK     1      23.309  -9.786  36.391  1.00  0.00     0.037 A 
HETATM   24  C21 UNK     1      22.785 -10.915  35.763  1.00  0.00     0.068 A 
HETATM   25  C20 UNK     1      21.404 -11.081  35.666  1.00  0.00     0.037 A 
HETATM   26  C13 UNK     1      20.546 -10.117  36.195  1.00  0.00     0.011 A 
BRANCH  24  27
HETATM   27  O3  UNK     1      23.621 -11.857  35.247  1.00  0.00    -0.356 OA
HETATM   28  C23 UNK     1      24.796 -12.162  35.998  1.00  0.00     0.210 C 
ENDBRANCH  24  27
ENDBRANCH  20  21
ENDBRANCH   2  20
TORSDOF 5
ENDMDL
MODEL 4
REMARK VINA RESULT:      -8.4     10.360     13.508
REMARK  5 active torsions:
REMARK  status: ('A' for Active; 'I' for Inactive)
REMARK    1  A    between atoms: C21_26  and  O3_3 
REMARK    2  A    between atoms: C5_10  and  N1_4 
REMARK    3  A    between atoms: C6_11  and  N2_5 
REMARK    4  A    between atoms: C5_10  and  C7_12 
REMARK    5  A    between atoms: C6_11  and  C8_13 
ROOT
HETATM    1  N1  UNK     1      31.742  -6.122  35.713  1.00  0.00     0.096 N 
HETATM    2  N2  UNK     1      34.238  -6.700  34.373  1.00  0.00     0.096 N 
HETATM    3  C1  UNK     1      31.989  -7.430  35.093  1.00  0.00     0.303 C 
HETATM    4  C2  UNK     1      32.491  -5.073  35.009  1.00  0.00     0.303 C 
HETATM    5  C3  UNK     1      33.488  -7.750  35.075  1.00  0.00     0.303 C 
HETATM    6  C4  UNK     1      33.990  -5.392  34.992  1.00  0.00     0.303 C 
ENDROOT
BRANCH   1   7
HETATM    7  C5  UNK     1      30.313  -5.817  35.729  1.00  0.00     0.312 C 
BRANCH   7   8
HETATM    8  C7  UNK     1      29.767  -5.750  37.112  1.00  0.00    -0.011 A 
HETATM    9  C10 UNK     1      29.884  -4.636  37.851  1.00  0.00     0.092 A 
HETATM   10  C15 UNK     1      29.359  -4.524  39.223  1.00  0.00     0.288 A 
HETATM   11  O1  UNK     1      28.722  -5.641  39.739  1.00  0.00    -0.275 OA
HETATM   12  O2  UNK     1      29.485  -3.489  39.868  1.00  0.00    -0.260 OA
HETATM   13  C11 UNK     1      28.584  -6.826  38.988  1.00  0.00     0.090 A 
HETATM   14  C16 UNK     1      27.925  -7.887  39.609  1.00  0.00     0.045 A 
HETATM   15  C9  UNK     1      29.086  -6.917  37.688  1.00  0.00     0.006 A 
HETATM   16  C17 UNK     1      27.759  -9.081  38.916  1.00  0.00    -0.059 A 
HETATM   17  C18 UNK     1      28.250  -9.202  37.618  1.00  0.00     0.007 A 
HETATM   18  C22 UNK     1      27.058 -10.229  39.560  1.00  0.00     0.048 C 
HETATM   19  C14 UNK     1      28.909  -8.129  37.008  1.00  0.00     0.015 A 
ENDBRANCH   7   8
ENDBRANCH   1   7
BRANCH   2  20
HETATM   20  C6  UNK     1      35.667  -7.006  34.360  1.00  0.00     0.311 C 
BRANCH  20  21
HETATM   21  C8  UNK     1      35.966  -7.909  33.206  1.00  0.00    -0.030 A 
HETATM   22  C12 UNK     1      35.286  -7.746  31.999  1.00  0.00     0.011 A 
HETATM   23  C19 UNK     1      35.564  -8.589  30.923  1.00  0.00     0.037 A 
HETATM   24  C21 UNK     1      36.521  -9.595  31.054  1.00  0.00     0.068 A 
HETATM   25  C20 UNK     1      37.202  -9.756  32.260  1.00  0.00     0.037 A 
HETATM   26  C13 UNK     1      36.924  -8.914  33.337  1.00  0.00     0.011 A 
BRANCH  24  27
HETATM   27  O3  UNK     1      36.795 -10.416  30.004  1.00  0.00    -0.356 OA
HETATM   28  C23 UNK     1      38.167 -10.725  29.762  1.00  0.00     0.210 C 
ENDBRANCH  24  27
ENDBRANCH  20  21
ENDBRANCH   2  20
TORSDOF 5
ENDMDL
MODEL 5
REMARK VINA RESULT:      -8.3      6.505     10.531
REMARK  5 active torsions:
REMARK  status: ('A' for Active; 'I' for Inactive)
REMARK    1  A    between atoms: C21_26  and  O3_3 
REMARK    2  A    between atoms: C5_10  and  N1_4 
REMARK    3  A    between atoms: C6_11  and  N2_5 
REMARK    4  A    between atoms: C5_10  and  C7_12 
REMARK    5  A    between atoms: C6_11  and  C8_13 
ROOT
HETATM    1  N1  UNK     1      26.811  -9.263  37.591  1.00  0.00     0.096 N 
HETATM    2  N2  UNK     1      29.643  -8.986  38.101  1.00  0.00     0.096 N 
HETATM    3  C1  UNK     1      27.671  -8.469  36.705  1.00  0.00     0.303 C 
HETATM    4  C2  UNK     1      27.343  -9.257  38.960  1.00  0.00     0.303 C 
HETATM    5  C3  UNK     1      29.112  -8.990  36.732  1.00  0.00     0.303 C 
HETATM    6  C4  UNK     1      28.783  -9.780  38.987  1.00  0.00     0.303 C 
ENDROOT
BRANCH   1   7
HETATM    7  C5  UNK     1      25.438  -8.765  37.566  1.00  0.00     0.312 C 
BRANCH   7   8
HETATM    8  C7  UNK     1      24.507  -9.713  36.895  1.00  0.00    -0.011 A 
HETATM    9  C10 UNK     1      24.958 -10.840  36.324  1.00  0.00     0.092 A 
HETATM   10  C15 UNK     1      24.075 -11.808  35.650  1.00  0.00     0.288 A 
HETATM   11  O1  UNK     1      22.723 -11.505  35.625  1.00  0.00    -0.275 OA
HETATM   12  O2  UNK     1      24.524 -12.829  35.139  1.00  0.00    -0.260 OA
HETATM   13  C11 UNK     1      22.219 -10.328  36.215  1.00  0.00     0.090 A 
HETATM   14  C16 UNK     1      20.841 -10.125  36.128  1.00  0.00     0.045 A 
HETATM   15  C9  UNK     1      23.068  -9.421  36.851  1.00  0.00     0.006 A 
HETATM   16  C17 UNK     1      20.287  -8.983  36.693  1.00  0.00    -0.059 A 
HETATM   17  C18 UNK     1      21.109  -8.058  37.334  1.00  0.00     0.007 A 
HETATM   18  C22 UNK     1      18.817  -8.745  36.613  1.00  0.00     0.048 C 
HETATM   19  C14 UNK     1      22.490  -8.274  37.412  1.00  0.00     0.015 A 
ENDBRANCH   7   8
ENDBRANCH   1   7
BRANCH   2  20
HETATM   20  C6  UNK     1      31.017  -9.487  38.125  1.00  0.00     0.311 C 
BRANCH  20  21
HETATM   21  C8  UNK     1      31.946  -8.393  37.709  1.00  0.00    -0.030 A 
HETATM   22  C12 UNK     1      32.817  -8.587  36.636  1.00  0.00     0.011 A 
HETATM   23  C19 UNK     1      33.685  -7.565  36.248  1.00  0.00     0.037 A 
HETATM   24  C21 UNK     1      33.682  -6.351  36.934  1.00  0.00     0.068 A 
HETATM   25  C20 UNK     1      32.812  -6.157  38.006  1.00  0.00     0.037 A 
HETATM   26  C13 UNK     1      31.944  -7.178  38.394  1.00  0.00     0.011 A 
BRANCH  24  27
HETATM   27  O3  UNK     1      34.527  -5.353  36.555  1.00  0.00    -0.356 OA
HETATM   28  C23 UNK     1      34.207  -4.654  35.353  1.00  0.00     0.210 C 
ENDBRANCH  24  27
ENDBRANCH  20  21
ENDBRANCH   2  20
TORSDOF 5
ENDMDL
MODEL 6
REMARK VINA RESULT:      -8.3      8.166     14.192
REMARK  5 active torsions:
REMARK  status: ('A' for Active; 'I' for Inactive)
REMARK    1  A    between atoms: C21_26  and  O3_3 
REMARK    2  A    between atoms: C5_10  and  N1_4 
REMARK    3  A    between atoms: C6_11  and  N2_5 
REMARK    4  A    between atoms: C5_10  and  C7_12 
REMARK    5  A    between atoms: C6_11  and  C8_13 
ROOT
HETATM    1  N1  UNK     1      18.625   4.728  32.598  1.00  0.00     0.096 N 
HETATM    2  N2  UNK     1      18.892   7.513  33.328  1.00  0.00     0.096 N 
HETATM    3  C1  UNK     1      19.422   5.656  31.786  1.00  0.00     0.303 C 
HETATM    4  C2  UNK     1      17.539   5.446  33.277  1.00  0.00     0.303 C 
HETATM    5  C3  UNK     1      19.978   6.795  32.646  1.00  0.00     0.303 C 
HETATM    6  C4  UNK     1      18.095   6.585  34.139  1.00  0.00     0.303 C 
ENDROOT
BRANCH   1   7
HETATM    7  C5  UNK     1      18.094   3.643  31.776  1.00  0.00     0.312 C 
BRANCH   7   8
HETATM    8  C7  UNK     1      18.336   2.306  32.384  1.00  0.00    -0.011 A 
HETATM    9  C10 UNK     1      18.021   2.059  33.664  1.00  0.00     0.092 A 
HETATM   10  C15 UNK     1      18.241   0.753  34.308  1.00  0.00     0.288 A 
HETATM   11  O1  UNK     1      18.802  -0.242  33.523  1.00  0.00    -0.275 OA
HETATM   12  O2  UNK     1      17.940   0.565  35.482  1.00  0.00    -0.260 OA
HETATM   13  C11 UNK     1      19.144  -0.013  32.175  1.00  0.00     0.090 A 
HETATM   14  C16 UNK     1      19.703  -1.087  31.481  1.00  0.00     0.045 A 
HETATM   15  C9  UNK     1      18.929   1.230  31.578  1.00  0.00     0.006 A 
HETATM   16  C17 UNK     1      20.060  -0.921  30.148  1.00  0.00    -0.059 A 
HETATM   17  C18 UNK     1      19.857   0.309  29.525  1.00  0.00     0.007 A 
HETATM   18  C22 UNK     1      20.658  -2.055  29.386  1.00  0.00     0.048 C 
HETATM   19  C14 UNK     1      19.297   1.377  30.234  1.00  0.00     0.015 A 
ENDBRANCH   7   8
ENDBRANCH   1   7
BRANCH   2  20
HETATM   20  C6  UNK     1      19.425   8.597  34.151  1.00  0.00     0.311 C 
BRANCH  20  21
HETATM   21  C8  UNK     1      18.489   9.761  34.096  1.00  0.00    -0.030 A 
HETATM   22  C12 UNK     1      17.110   9.548  34.064  1.00  0.00     0.011 A 
HETATM   23  C19 UNK     1      16.237  10.634  34.011  1.00  0.00     0.037 A 
HETATM   24  C21 UNK     1      16.742  11.934  33.989  1.00  0.00     0.068 A 
HETATM   25  C20 UNK     1      18.120  12.148  34.023  1.00  0.00     0.037 A 
HETATM   26  C13 UNK     1      18.994  11.061  34.075  1.00  0.00     0.011 A 
BRANCH  24  27
HETATM   27  O3  UNK     1      15.891  12.995  33.940  1.00  0.00    -0.356 OA
HETATM   28  C23 UNK     1      16.445  14.254  33.560  1.00  0.00     0.210 C 
ENDBRANCH  24  27
ENDBRANCH  20  21
ENDBRANCH   2  20
TORSDOF 5
ENDMDL
MODEL 7
REMARK VINA RESULT:      -8.2      7.571     13.765
REMARK  5 active torsions:
REMARK  status: ('A' for Active; 'I' for Inactive)
REMARK    1  A    between atoms: C21_26  and  O3_3 
REMARK    2  A    between atoms: C5_10  and  N1_4 
REMARK    3  A    between atoms: C6_11  and  N2_5 
REMARK    4  A    between atoms: C5_10  and  C7_12 
REMARK    5  A    between atoms: C6_11  and  C8_13 
ROOT
HETATM    1  N1  UNK     1      18.853   3.885  31.422  1.00  0.00     0.096 N 
HETATM    2  N2  UNK     1      19.178   6.463  32.691  1.00  0.00     0.096 N 
HETATM    3  C1  UNK     1      19.380   5.039  30.682  1.00  0.00     0.303 C 
HETATM    4  C2  UNK     1      17.945   4.332  32.486  1.00  0.00     0.303 C 
HETATM    5  C3  UNK     1      20.086   6.017  31.626  1.00  0.00     0.303 C 
HETATM    6  C4  UNK     1      18.651   5.310  33.431  1.00  0.00     0.303 C 
ENDROOT
BRANCH   1   7
HETATM    7  C5  UNK     1      18.179   2.953  30.521  1.00  0.00     0.312 C 
BRANCH   7   8
HETATM    8  C7  UNK     1      18.813   1.606  30.528  1.00  0.00    -0.011 A 
HETATM    9  C10 UNK     1      19.398   1.110  29.427  1.00  0.00     0.092 A 
HETATM   10  C15 UNK     1      20.039  -0.216  29.387  1.00  0.00     0.288 A 
HETATM   11  O1  UNK     1      20.015  -0.955  30.560  1.00  0.00    -0.275 OA
HETATM   12  O2  UNK     1      20.563  -0.637  28.362  1.00  0.00    -0.260 OA
HETATM   13  C11 UNK     1      19.408  -0.460  31.732  1.00  0.00     0.090 A 
HETATM   14  C16 UNK     1      19.444  -1.291  32.853  1.00  0.00     0.045 A 
HETATM   15  C9  UNK     1      18.806   0.798  31.755  1.00  0.00     0.006 A 
HETATM   16  C17 UNK     1      18.862  -0.856  34.038  1.00  0.00    -0.059 A 
HETATM   17  C18 UNK     1      18.252   0.396  34.091  1.00  0.00     0.007 A 
HETATM   18  C22 UNK     1      18.889  -1.727  35.248  1.00  0.00     0.048 C 
HETATM   19  C14 UNK     1      18.223   1.217  32.958  1.00  0.00     0.015 A 
ENDBRANCH   7   8
ENDBRANCH   1   7
BRANCH   2  20
HETATM   20  C6  UNK     1      19.855   7.394  33.593  1.00  0.00     0.311 C 
BRANCH  20  21
HETATM   21  C8  UNK     1      19.004   8.610  33.773  1.00  0.00    -0.030 A 
HETATM   22  C12 UNK     1      19.591   9.826  34.123  1.00  0.00     0.011 A 
HETATM   23  C19 UNK     1      18.796  10.960  34.292  1.00  0.00     0.037 A 
HETATM   24  C21 UNK     1      17.416  10.878  34.112  1.00  0.00     0.068 A 
HETATM   25  C20 UNK     1      16.830   9.662  33.761  1.00  0.00     0.037 A 
HETATM   26  C13 UNK     1      17.624   8.527  33.592  1.00  0.00     0.011 A 
BRANCH  24  27
HETATM   27  O3  UNK     1      16.640  11.984  34.274  1.00  0.00    -0.356 OA
HETATM   28  C23 UNK     1      17.089  12.958  35.215  1.00  0.00     0.210 C 
ENDBRANCH  24  27
ENDBRANCH  20  21
ENDBRANCH   2  20
TORSDOF 5
ENDMDL
MODEL 8
REMARK VINA RESULT:      -8.1      9.436     11.638
REMARK  5 active torsions:
REMARK  status: ('A' for Active; 'I' for Inactive)
REMARK    1  A    between atoms: C21_26  and  O3_3 
REMARK    2  A    between atoms: C5_10  and  N1_4 
REMARK    3  A    between atoms: C6_11  and  N2_5 
REMARK    4  A    between atoms: C5_10  and  C7_12 
REMARK    5  A    between atoms: C6_11  and  C8_13 
ROOT
HETATM    1  N1  UNK     1      30.756  -5.760  35.226  1.00  0.00     0.096 N 
HETATM    2  N2  UNK     1      30.603  -5.787  32.339  1.00  0.00     0.096 N 
HETATM    3  C1  UNK     1      31.743  -5.049  34.403  1.00  0.00     0.303 C 
HETATM    4  C2  UNK     1      30.230  -6.923  34.501  1.00  0.00     0.303 C 
HETATM    5  C3  UNK     1      31.132  -4.624  33.063  1.00  0.00     0.303 C 
HETATM    6  C4  UNK     1      29.617  -6.499  33.161  1.00  0.00     0.303 C 
ENDROOT
BRANCH   1   7
HETATM    7  C5  UNK     1      31.340  -6.165  36.502  1.00  0.00     0.312 C 
BRANCH   7   8
HETATM    8  C7  UNK     1      30.414  -5.931  37.644  1.00  0.00    -0.011 A 
HETATM    9  C10 UNK     1      30.337  -4.732  38.241  1.00  0.00     0.092 A 
HETATM   10  C15 UNK     1      29.435  -4.453  39.371  1.00  0.00     0.288 A 
HETATM   11  O1  UNK     1      28.645  -5.504  39.811  1.00  0.00    -0.275 OA
HETATM   12  O2  UNK     1      29.393  -3.344  39.892  1.00  0.00    -0.260 OA
HETATM   13  C11 UNK     1      28.703  -6.775  39.205  1.00  0.00     0.090 A 
HETATM   14  C16 UNK     1      27.863  -7.757  39.731  1.00  0.00     0.045 A 
HETATM   15  C9  UNK     1      29.562  -7.024  38.134  1.00  0.00     0.006 A 
HETATM   16  C17 UNK     1      27.876  -9.031  39.174  1.00  0.00    -0.059 A 
HETATM   17  C18 UNK     1      28.724  -9.309  38.103  1.00  0.00     0.007 A 
HETATM   18  C22 UNK     1      26.987 -10.096  39.719  1.00  0.00     0.048 C 
HETATM   19  C14 UNK     1      29.562  -8.314  37.587  1.00  0.00     0.015 A 
ENDBRANCH   7   8
ENDBRANCH   1   7
BRANCH   2  20
HETATM   20  C6  UNK     1      30.018  -5.380  31.062  1.00  0.00     0.311 C 
BRANCH  20  21
HETATM   21  C8  UNK     1      29.408  -6.572  30.399  1.00  0.00    -0.030 A 
HETATM   22  C12 UNK     1      30.188  -7.393  29.584  1.00  0.00     0.011 A 
HETATM   23  C19 UNK     1      29.618  -8.505  28.964  1.00  0.00     0.037 A 
HETATM   24  C21 UNK     1      28.268  -8.796  29.158  1.00  0.00     0.068 A 
HETATM   25  C20 UNK     1      27.488  -7.976  29.973  1.00  0.00     0.037 A 
HETATM   26  C13 UNK     1      28.058  -6.863  30.593  1.00  0.00     0.011 A 
BRANCH  24  27
HETATM   27  O3  UNK     1      27.711  -9.882  28.556  1.00  0.00    -0.356 OA
HETATM   28  C23 UNK     1      28.591 -10.948  28.200  1.00  0.00     0.210 C 
ENDBRANCH  24  27
ENDBRANCH  20  21
ENDBRANCH   2  20
TORSDOF 5
ENDMDL
MODEL 9
REMARK VINA RESULT:      -8.0     28.388     30.846
REMARK  5 active torsions:
REMARK  status: ('A' for Active; 'I' for Inactive)
REMARK    1  A    between atoms: C21_26  and  O3_3 
REMARK    2  A    between atoms: C5_10  and  N1_4 
REMARK    3  A    between atoms: C6_11  and  N2_5 
REMARK    4  A    between atoms: C5_10  and  C7_12 
REMARK    5  A    between atoms: C6_11  and  C8_13 
ROOT
HETATM    1  N1  UNK     1      15.255   9.419   9.810  1.00  0.00     0.096 N 
HETATM    2  N2  UNK     1      17.220  11.512   9.464  1.00  0.00     0.096 N 
HETATM    3  C1  UNK     1      14.967  10.807  10.195  1.00  0.00     0.303 C 
HETATM    4  C2  UNK     1      16.692   9.144   9.930  1.00  0.00     0.303 C 
HETATM    5  C3  UNK     1      15.782  11.789   9.347  1.00  0.00     0.303 C 
HETATM    6  C4  UNK     1      17.508  10.124   9.080  1.00  0.00     0.303 C 
ENDROOT
BRANCH   1   7
HETATM    7  C5  UNK     1      14.479   8.484  10.621  1.00  0.00     0.312 C 
BRANCH   7   8
HETATM    8  C7  UNK     1      14.310   7.165   9.951  1.00  0.00    -0.011 A 
HETATM    9  C10 UNK     1      15.129   6.139  10.223  1.00  0.00     0.092 A 
HETATM   10  C15 UNK     1      14.999   4.817   9.587  1.00  0.00     0.288 A 
HETATM   11  O1  UNK     1      13.971   4.665   8.669  1.00  0.00    -0.275 OA
HETATM   12  O2  UNK     1      15.767   3.901   9.861  1.00  0.00    -0.260 OA
HETATM   13  C11 UNK     1      13.094   5.726   8.362  1.00  0.00     0.090 A 
HETATM   14  C16 UNK     1      12.096   5.459   7.423  1.00  0.00     0.045 A 
HETATM   15  C9  UNK     1      13.229   6.973   8.974  1.00  0.00     0.006 A 
HETATM   16  C17 UNK     1      11.202   6.467   7.080  1.00  0.00    -0.059 A 
HETATM   17  C18 UNK     1      11.312   7.722   7.675  1.00  0.00     0.007 A 
HETATM   18  C22 UNK     1      10.127   6.205   6.080  1.00  0.00     0.048 C 
HETATM   19  C14 UNK     1      12.318   7.975   8.614  1.00  0.00     0.015 A 
ENDBRANCH   7   8
ENDBRANCH   1   7
BRANCH   2  20
HETATM   20  C6  UNK     1      17.996  12.447   8.651  1.00  0.00     0.311 C 
BRANCH  20  21
HETATM   21  C8  UNK     1      19.436  12.363   9.044  1.00  0.00    -0.030 A 
HETATM   22  C12 UNK     1      19.800  12.473  10.387  1.00  0.00     0.011 A 
HETATM   23  C19 UNK     1      21.144  12.395  10.753  1.00  0.00     0.037 A 
HETATM   24  C21 UNK     1      22.123  12.209   9.777  1.00  0.00     0.068 A 
HETATM   25  C20 UNK     1      21.758  12.099   8.436  1.00  0.00     0.037 A 
HETATM   26  C13 UNK     1      20.415  12.177   8.069  1.00  0.00     0.011 A 
BRANCH  24  27
HETATM   27  O3  UNK     1      23.434  12.131  10.134  1.00  0.00    -0.356 OA
HETATM   28  C23 UNK     1      23.729  12.161  11.530  1.00  0.00     0.210 C 
ENDBRANCH  24  27
ENDBRANCH  20  21
ENDBRANCH   2  20
TORSDOF 5
ENDMDL
MODEL 10
REMARK VINA RESULT:      -7.9      3.206      9.879
REMARK  5 active torsions:
REMARK  status: ('A' for Active; 'I' for Inactive)
REMARK    1  A    between atoms: C21_26  and  O3_3 
REMARK    2  A    between atoms: C5_10  and  N1_4 
REMARK    3  A    between atoms: C6_11  and  N2_5 
REMARK    4  A    between atoms: C5_10  and  C7_12 
REMARK    5  A    between atoms: C6_11  and  C8_13 
ROOT
HETATM    1  N1  UNK     1      19.440  -3.635  36.732  1.00  0.00     0.096 N 
HETATM    2  N2  UNK     1      18.740  -0.895  36.133  1.00  0.00     0.096 N 
HETATM    3  C1  UNK     1      20.163  -2.869  35.708  1.00  0.00     0.303 C 
HETATM    4  C2  UNK     1      18.055  -3.160  36.842  1.00  0.00     0.303 C 
HETATM    5  C3  UNK     1      20.125  -1.369  36.020  1.00  0.00     0.303 C 
HETATM    6  C4  UNK     1      18.017  -1.660  37.156  1.00  0.00     0.303 C 
ENDROOT
BRANCH   1   7
HETATM    7  C5  UNK     1      19.476  -5.065  36.433  1.00  0.00     0.312 C 
BRANCH   7   8
HETATM    8  C7  UNK     1      20.419  -5.801  37.318  1.00  0.00    -0.011 A 
HETATM    9  C10 UNK     1      21.564  -5.239  37.733  1.00  0.00     0.092 A 
HETATM   10  C15 UNK     1      22.526  -5.928  38.611  1.00  0.00     0.288 A 
HETATM   11  O1  UNK     1      22.198  -7.216  39.003  1.00  0.00    -0.275 OA
HETATM   12  O2  UNK     1      23.563  -5.381  38.970  1.00  0.00    -0.260 OA
HETATM   13  C11 UNK     1      21.003  -7.834  38.583  1.00  0.00     0.090 A 
HETATM   14  C16 UNK     1      20.777  -9.134  39.040  1.00  0.00     0.045 A 
HETATM   15  C9  UNK     1      20.101  -7.168  37.752  1.00  0.00     0.006 A 
HETATM   16  C17 UNK     1      19.615  -9.794  38.659  1.00  0.00    -0.059 A 
HETATM   17  C18 UNK     1      18.696  -9.154  37.829  1.00  0.00     0.007 A 
HETATM   18  C22 UNK     1      19.352 -11.183  39.135  1.00  0.00     0.048 C 
HETATM   19  C14 UNK     1      18.936  -7.852  37.379  1.00  0.00     0.015 A 
ENDBRANCH   7   8
ENDBRANCH   1   7
BRANCH   2  20
HETATM   20  C6  UNK     1      18.706   0.536  36.435  1.00  0.00     0.311 C 
BRANCH  20  21
HETATM   21  C8  UNK     1      18.504   1.301  35.166  1.00  0.00    -0.030 A 
HETATM   22  C12 UNK     1      18.353   0.620  33.957  1.00  0.00     0.011 A 
HETATM   23  C19 UNK     1      18.167   1.334  32.773  1.00  0.00     0.037 A 
HETATM   24  C21 UNK     1      18.132   2.728  32.798  1.00  0.00     0.068 A 
HETATM   25  C20 UNK     1      18.282   3.408  34.006  1.00  0.00     0.037 A 
HETATM   26  C13 UNK     1      18.470   2.695  35.191  1.00  0.00     0.011 A 
BRANCH  24  27
HETATM   27  O3  UNK     1      17.948   3.425  31.644  1.00  0.00    -0.356 OA
HETATM   28  C23 UNK     1      18.545   2.893  30.462  1.00  0.00     0.210 C 
ENDBRANCH  24  27
ENDBRANCH  20  21
ENDBRANCH   2  20
TORSDOF 5
ENDMDL
