MODEL 1
REMARK VINA RESULT:      -8.7      0.000      0.000
REMARK  3 active torsions:
REMARK  status: ('A' for Active; 'I' for Inactive)
REMARK    1  A    between atoms: C7_11  and  O3_3 
REMARK    2  A    between atoms: C11_15  and  O4_4 
REMARK    3  A    between atoms: C1_5  and  C4_8 
ROOT
HETATM    1  O1  UNK     1      19.006   0.033  33.158  1.00  0.00    -0.340 OA
HETATM    2  O2  UNK     1      20.967  -3.542  32.703  1.00  0.00    -0.292 OA
HETATM    3  C1  UNK     1      18.792  -1.044  34.083  1.00  0.00     0.169 C 
HETATM    4  C2  UNK     1      20.039  -1.917  34.205  1.00  0.00     0.121 C 
HETATM    5  C3  UNK     1      20.047  -1.615  31.693  1.00  0.00     0.076 A 
HETATM    6  C5  UNK     1      20.385  -2.473  32.848  1.00  0.00     0.167 C 
HETATM    7  C6  UNK     1      19.396  -0.399  31.916  1.00  0.00     0.089 A 
HETATM    8  C7  UNK     1      20.412  -1.993  30.399  1.00  0.00     0.085 A 
HETATM    9  C8  UNK     1      19.138   0.456  30.844  1.00  0.00     0.074 A 
HETATM   10  C11 UNK     1      19.503   0.082  29.551  1.00  0.00     0.073 A 
HETATM   11  C12 UNK     1      20.134  -1.142  29.328  1.00  0.00     0.074 A 
ENDROOT
BRANCH   3  12
HETATM   12  C4  UNK     1      18.404  -0.454  35.423  1.00  0.00    -0.029 A 
HETATM   13  C10 UNK     1      18.162  -1.293  36.510  1.00  0.00     0.010 A 
HETATM   14  C14 UNK     1      17.806  -0.750  37.744  1.00  0.00     0.001 A 
HETATM   15  C15 UNK     1      17.691   0.632  37.891  1.00  0.00     0.000 A 
HETATM   16  C13 UNK     1      17.933   1.471  36.803  1.00  0.00     0.001 A 
HETATM   17  C9  UNK     1      18.290   0.927  35.569  1.00  0.00     0.010 A 
ENDBRANCH   3  12
BRANCH   8  18
HETATM   18  O3  UNK     1      21.045  -3.169  30.127  1.00  0.00    -0.360 OA
HETATM   19  H11 UNK     1      21.799  -3.282  30.730  1.00  0.00     0.217 HD
ENDBRANCH   8  18
BRANCH  10  20
HETATM   20  O4  UNK     1      19.241   0.911  28.503  1.00  0.00    -0.356 OA
HETATM   21  C16 UNK     1      18.044   1.682  28.569  1.00  0.00     0.210 C 
ENDBRANCH  10  20
TORSDOF 3
ENDMDL
MODEL 2
REMARK VINA RESULT:      -8.3      2.261      6.944
REMARK  3 active torsions:
REMARK  status: ('A' for Active; 'I' for Inactive)
REMARK    1  A    between atoms: C7_11  and  O3_3 
REMARK    2  A    between atoms: C11_15  and  O4_4 
REMARK    3  A    between atoms: C1_5  and  C4_8 
ROOT
HETATM    1  O1  UNK     1      19.922  -1.611  33.704  1.00  0.00    -0.340 OA
HETATM    2  O2  UNK     1      17.074   0.897  35.263  1.00  0.00    -0.292 OA
HETATM    3  C1  UNK     1      18.916  -1.029  32.861  1.00  0.00     0.169 C 
HETATM    4  C2  UNK     1      18.471   0.331  33.397  1.00  0.00     0.121 C 
HETATM    5  C3  UNK     1      18.539  -0.925  35.592  1.00  0.00     0.076 A 
HETATM    6  C5  UNK     1      17.928   0.156  34.791  1.00  0.00     0.167 C 
HETATM    7  C6  UNK     1      19.518  -1.734  35.009  1.00  0.00     0.089 A 
HETATM    8  C7  UNK     1      18.175  -1.110  36.928  1.00  0.00     0.085 A 
HETATM    9  C8  UNK     1      20.159  -2.709  35.774  1.00  0.00     0.074 A 
HETATM   10  C11 UNK     1      19.799  -2.894  37.109  1.00  0.00     0.073 A 
HETATM   11  C12 UNK     1      18.806  -2.100  37.683  1.00  0.00     0.074 A 
ENDROOT
BRANCH   3  12
HETATM   12  C4  UNK     1      19.478  -0.906  31.460  1.00  0.00    -0.029 A 
HETATM   13  C10 UNK     1      19.413   0.313  30.787  1.00  0.00     0.010 A 
HETATM   14  C14 UNK     1      19.930   0.426  29.497  1.00  0.00     0.001 A 
HETATM   15  C15 UNK     1      20.513  -0.681  28.879  1.00  0.00     0.000 A 
HETATM   16  C13 UNK     1      20.577  -1.900  29.553  1.00  0.00     0.001 A 
HETATM   17  C9  UNK     1      20.060  -2.013  30.844  1.00  0.00     0.010 A 
ENDBRANCH   3  12
BRANCH   8  18
HETATM   18  O3  UNK     1      17.224  -0.352  37.543  1.00  0.00    -0.360 OA
HETATM   19  H11 UNK     1      17.393  -0.327  38.500  1.00  0.00     0.217 HD
ENDBRANCH   8  18
BRANCH  10  20
HETATM   20  O4  UNK     1      20.416  -3.853  37.854  1.00  0.00    -0.356 OA
HETATM   21  C16 UNK     1      20.573  -5.137  37.256  1.00  0.00     0.210 C 
ENDBRANCH  10  20
TORSDOF 3
ENDMDL
MODEL 3
REMARK VINA RESULT:      -8.0      3.015      5.480
REMARK  3 active torsions:
REMARK  status: ('A' for Active; 'I' for Inactive)
REMARK    1  A    between atoms: C7_11  and  O3_3 
REMARK    2  A    between atoms: C11_15  and  O4_4 
REMARK    3  A    between atoms: C1_5  and  C4_8 
ROOT
HETATM    1  O1  UNK     1      19.076   1.933  31.434  1.00  0.00    -0.340 OA
HETATM    2  O2  UNK     1      17.917   1.616  27.511  1.00  0.00    -0.292 OA
HETATM    3  C1  UNK     1      18.948   3.102  30.610  1.00  0.00     0.169 C 
HETATM    4  C2  UNK     1      17.880   2.901  29.537  1.00  0.00     0.121 C 
HETATM    5  C3  UNK     1      18.998   0.638  29.369  1.00  0.00     0.076 A 
HETATM    6  C5  UNK     1      18.255   1.717  28.685  1.00  0.00     0.167 C 
HETATM    7  C6  UNK     1      19.347   0.799  30.713  1.00  0.00     0.089 A 
HETATM    8  C7  UNK     1      19.310  -0.545  28.696  1.00  0.00     0.085 A 
HETATM    9  C8  UNK     1      19.982  -0.241  31.394  1.00  0.00     0.074 A 
HETATM   10  C11 UNK     1      20.292  -1.424  30.724  1.00  0.00     0.073 A 
HETATM   11  C12 UNK     1      19.962  -1.574  29.377  1.00  0.00     0.074 A 
ENDROOT
BRANCH   3  12
HETATM   12  C4  UNK     1      18.614   4.281  31.500  1.00  0.00    -0.029 A 
HETATM   13  C10 UNK     1      18.697   5.579  30.998  1.00  0.00     0.010 A 
HETATM   14  C14 UNK     1      18.389   6.664  31.818  1.00  0.00     0.001 A 
HETATM   15  C15 UNK     1      17.998   6.452  33.140  1.00  0.00     0.000 A 
HETATM   16  C13 UNK     1      17.916   5.153  33.642  1.00  0.00     0.001 A 
HETATM   17  C9  UNK     1      18.224   4.067  32.822  1.00  0.00     0.010 A 
ENDBRANCH   3  12
BRANCH   8  18
HETATM   18  O3  UNK     1      18.996  -0.751  27.386  1.00  0.00    -0.360 OA
HETATM   19  H11 UNK     1      18.352  -1.476  27.313  1.00  0.00     0.217 HD
ENDBRANCH   8  18
BRANCH  10  20
HETATM   20  O4  UNK     1      20.921  -2.435  31.385  1.00  0.00    -0.356 OA
HETATM   21  C16 UNK     1      20.829  -2.437  32.808  1.00  0.00     0.210 C 
ENDBRANCH  10  20
TORSDOF 3
ENDMDL
MODEL 4
REMARK VINA RESULT:      -8.0     24.598     26.467
REMARK  3 active torsions:
REMARK  status: ('A' for Active; 'I' for Inactive)
REMARK    1  A    between atoms: C7_11  and  O3_3 
REMARK    2  A    between atoms: C11_15  and  O4_4 
REMARK    3  A    between atoms: C1_5  and  C4_8 
ROOT
HETATM    1  O1  UNK     1      13.145   7.849   8.707  1.00  0.00    -0.340 OA
HETATM    2  O2  UNK     1      15.778   4.773   9.369  1.00  0.00    -0.292 OA
HETATM    3  C1  UNK     1      13.080   6.646   7.924  1.00  0.00     0.169 C 
HETATM    4  C2  UNK     1      13.564   5.442   8.730  1.00  0.00     0.121 C 
HETATM    5  C3  UNK     1      15.347   7.093   9.432  1.00  0.00     0.076 A 
HETATM    6  C5  UNK     1      14.983   5.685   9.173  1.00  0.00     0.167 C 
HETATM    7  C6  UNK     1      14.399   8.094   9.204  1.00  0.00     0.089 A 
HETATM    8  C7  UNK     1      16.608   7.418   9.938  1.00  0.00     0.085 A 
HETATM    9  C8  UNK     1      14.701   9.420   9.516  1.00  0.00     0.074 A 
HETATM   10  C11 UNK     1      15.959   9.747  10.023  1.00  0.00     0.073 A 
HETATM   11  C12 UNK     1      16.912   8.749  10.229  1.00  0.00     0.074 A 
ENDROOT
BRANCH   3  12
HETATM   12  C4  UNK     1      11.652   6.454   7.459  1.00  0.00    -0.029 A 
HETATM   13  C10 UNK     1      11.375   6.307   6.101  1.00  0.00     0.010 A 
HETATM   14  C14 UNK     1      10.059   6.130   5.673  1.00  0.00     0.001 A 
HETATM   15  C15 UNK     1       9.021   6.100   6.604  1.00  0.00     0.000 A 
HETATM   16  C13 UNK     1       9.299   6.248   7.962  1.00  0.00     0.001 A 
HETATM   17  C9  UNK     1      10.614   6.425   8.390  1.00  0.00     0.010 A 
ENDBRANCH   3  12
BRANCH   8  18
HETATM   18  O3  UNK     1      17.570   6.482  10.174  1.00  0.00    -0.360 OA
HETATM   19  H11 UNK     1      18.189   6.452   9.424  1.00  0.00     0.217 HD
ENDBRANCH   8  18
BRANCH  10  20
HETATM   20  O4  UNK     1      16.259  11.042  10.317  1.00  0.00    -0.356 OA
HETATM   21  C16 UNK     1      17.635  11.412  10.294  1.00  0.00     0.210 C 
ENDBRANCH  10  20
TORSDOF 3
ENDMDL
MODEL 5
REMARK VINA RESULT:      -7.9      1.448      2.143
REMARK  3 active torsions:
REMARK  status: ('A' for Active; 'I' for Inactive)
REMARK    1  A    between atoms: C7_11  and  O3_3 
REMARK    2  A    between atoms: C11_15  and  O4_4 
REMARK    3  A    between atoms: C1_5  and  C4_8 
ROOT
HETATM    1  O1  UNK     1      18.769   0.433  33.066  1.00  0.00    -0.340 OA
HETATM    2  O2  UNK     1      20.403  -2.503  30.712  1.00  0.00    -0.292 OA
HETATM    3  C1  UNK     1      18.586  -0.954  33.390  1.00  0.00     0.169 C 
HETATM    4  C2  UNK     1      19.773  -1.789  32.914  1.00  0.00     0.121 C 
HETATM    5  C3  UNK     1      19.514  -0.322  30.870  1.00  0.00     0.076 A 
HETATM    6  C5  UNK     1      19.920  -1.630  31.423  1.00  0.00     0.167 C 
HETATM    7  C6  UNK     1      18.981   0.645  31.728  1.00  0.00     0.089 A 
HETATM    8  C7  UNK     1      19.699  -0.037  29.515  1.00  0.00     0.085 A 
HETATM    9  C8  UNK     1      18.663   1.911  31.234  1.00  0.00     0.074 A 
HETATM   10  C11 UNK     1      18.849   2.198  29.882  1.00  0.00     0.073 A 
HETATM   11  C12 UNK     1      19.361   1.225  29.024  1.00  0.00     0.074 A 
ENDROOT
BRANCH   3  12
HETATM   12  C4  UNK     1      18.398  -1.075  34.888  1.00  0.00    -0.029 A 
HETATM   13  C10 UNK     1      17.428  -0.309  35.533  1.00  0.00     0.010 A 
HETATM   14  C14 UNK     1      17.256  -0.420  36.912  1.00  0.00     0.001 A 
HETATM   15  C15 UNK     1      18.053  -1.298  37.647  1.00  0.00     0.000 A 
HETATM   16  C13 UNK     1      19.024  -2.063  37.001  1.00  0.00     0.001 A 
HETATM   17  C9  UNK     1      19.196  -1.951  35.621  1.00  0.00     0.010 A 
ENDBRANCH   3  12
BRANCH   8  18
HETATM   18  O3  UNK     1      20.211  -0.944  28.636  1.00  0.00    -0.360 OA
HETATM   19  H11 UNK     1      19.616  -1.031  27.872  1.00  0.00     0.217 HD
ENDBRANCH   8  18
BRANCH  10  20
HETATM   20  O4  UNK     1      18.529   3.430  29.398  1.00  0.00    -0.356 OA
HETATM   21  C16 UNK     1      19.033   4.558  30.110  1.00  0.00     0.210 C 
ENDBRANCH  10  20
TORSDOF 3
ENDMDL
MODEL 6
REMARK VINA RESULT:      -7.9     24.478     26.878
REMARK  3 active torsions:
REMARK  status: ('A' for Active; 'I' for Inactive)
REMARK    1  A    between atoms: C7_11  and  O3_3 
REMARK    2  A    between atoms: C11_15  and  O4_4 
REMARK    3  A    between atoms: C1_5  and  C4_8 
ROOT
HETATM    1  O1  UNK     1       9.616   5.747   9.705  1.00  0.00    -0.340 OA
HETATM    2  O2  UNK     1       9.362   6.599   5.700  1.00  0.00    -0.292 OA
HETATM    3  C1  UNK     1       8.611   6.644   9.208  1.00  0.00     0.169 C 
HETATM    4  C2  UNK     1       8.210   6.280   7.780  1.00  0.00     0.121 C 
HETATM    5  C3  UNK     1      10.712   5.998   7.541  1.00  0.00     0.076 A 
HETATM    6  C5  UNK     1       9.428   6.341   6.896  1.00  0.00     0.167 C 
HETATM    7  C6  UNK     1      10.730   5.698   8.906  1.00  0.00     0.089 A 
HETATM    8  C7  UNK     1      11.888   5.930   6.789  1.00  0.00     0.085 A 
HETATM    9  C8  UNK     1      11.920   5.298   9.514  1.00  0.00     0.074 A 
HETATM   10  C11 UNK     1      13.095   5.228   8.765  1.00  0.00     0.073 A 
HETATM   11  C12 UNK     1      13.079   5.549   7.407  1.00  0.00     0.074 A 
ENDROOT
BRANCH   3  12
HETATM   12  C4  UNK     1       7.419   6.592  10.141  1.00  0.00    -0.029 A 
HETATM   13  C10 UNK     1       7.247   5.501  10.992  1.00  0.00     0.010 A 
HETATM   14  C14 UNK     1       6.149   5.453  11.850  1.00  0.00     0.001 A 
HETATM   15  C15 UNK     1       5.223   6.496  11.858  1.00  0.00     0.000 A 
HETATM   16  C13 UNK     1       5.395   7.586  11.006  1.00  0.00     0.001 A 
HETATM   17  C9  UNK     1       6.493   7.634  10.147  1.00  0.00     0.010 A 
ENDBRANCH   3  12
BRANCH   8  18
HETATM   18  O3  UNK     1      11.926   6.216   5.457  1.00  0.00    -0.360 OA
HETATM   19  H11 UNK     1      12.718   6.743   5.258  1.00  0.00     0.217 HD
ENDBRANCH   8  18
BRANCH  10  20
HETATM   20  O4  UNK     1      14.260   4.849   9.359  1.00  0.00    -0.356 OA
HETATM   21  C16 UNK     1      14.995   5.857  10.050  1.00  0.00     0.210 C 
ENDBRANCH  10  20
TORSDOF 3
ENDMDL
MODEL 7
REMARK VINA RESULT:      -7.9      8.375     10.933
REMARK  3 active torsions:
REMARK  status: ('A' for Active; 'I' for Inactive)
REMARK    1  A    between atoms: C7_11  and  O3_3 
REMARK    2  A    between atoms: C11_15  and  O4_4 
REMARK    3  A    between atoms: C1_5  and  C4_8 
ROOT
HETATM    1  O1  UNK     1      17.983   8.525  33.073  1.00  0.00    -0.340 OA
HETATM    2  O2  UNK     1      14.529   7.322  31.213  1.00  0.00    -0.292 OA
HETATM    3  C1  UNK     1      17.862   7.198  32.538  1.00  0.00     0.169 C 
HETATM    4  C2  UNK     1      16.921   7.177  31.334  1.00  0.00     0.121 C 
HETATM    5  C3  UNK     1      15.561   8.693  32.836  1.00  0.00     0.076 A 
HETATM    6  C5  UNK     1      15.566   7.679  31.760  1.00  0.00     0.167 C 
HETATM    7  C6  UNK     1      16.774   9.074  33.416  1.00  0.00     0.089 A 
HETATM    8  C7  UNK     1      14.367   9.294  33.238  1.00  0.00     0.085 A 
HETATM    9  C8  UNK     1      16.795  10.084  34.379  1.00  0.00     0.074 A 
HETATM   10  C11 UNK     1      15.603  10.687  34.781  1.00  0.00     0.073 A 
HETATM   11  C12 UNK     1      14.391  10.289  34.216  1.00  0.00     0.074 A 
ENDROOT
BRANCH   3  12
HETATM   12  C4  UNK     1      19.243   6.706  32.160  1.00  0.00    -0.029 A 
HETATM   13  C10 UNK     1      20.292   6.803  33.074  1.00  0.00     0.010 A 
HETATM   14  C14 UNK     1      21.564   6.350  32.726  1.00  0.00     0.001 A 
HETATM   15  C15 UNK     1      21.787   5.799  31.464  1.00  0.00     0.000 A 
HETATM   16  C13 UNK     1      20.738   5.703  30.550  1.00  0.00     0.001 A 
HETATM   17  C9  UNK     1      19.466   6.156  30.898  1.00  0.00     0.010 A 
ENDBRANCH   3  12
BRANCH   8  18
HETATM   18  O3  UNK     1      13.158   8.956  32.707  1.00  0.00    -0.360 OA
HETATM   19  H11 UNK     1      13.286   8.333  31.971  1.00  0.00     0.217 HD
ENDBRANCH   8  18
BRANCH  10  20
HETATM   20  O4  UNK     1      15.622  11.665  35.729  1.00  0.00    -0.356 OA
HETATM   21  C16 UNK     1      16.498  12.767  35.507  1.00  0.00     0.210 C 
ENDBRANCH  10  20
TORSDOF 3
ENDMDL
MODEL 8
REMARK VINA RESULT:      -7.8     11.933     16.803
REMARK  3 active torsions:
REMARK  status: ('A' for Active; 'I' for Inactive)
REMARK    1  A    between atoms: C7_11  and  O3_3 
REMARK    2  A    between atoms: C11_15  and  O4_4 
REMARK    3  A    between atoms: C1_5  and  C4_8 
ROOT
HETATM    1  O1  UNK     1      19.306  -1.069  17.626  1.00  0.00    -0.340 OA
HETATM    2  O2  UNK     1      19.159   2.271  15.247  1.00  0.00    -0.292 OA
HETATM    3  C1  UNK     1      18.763  -1.137  16.298  1.00  0.00     0.169 C 
HETATM    4  C2  UNK     1      19.425  -0.110  15.382  1.00  0.00     0.121 C 
HETATM    5  C3  UNK     1      19.131   1.355  17.423  1.00  0.00     0.076 A 
HETATM    6  C5  UNK     1      19.208   1.268  15.951  1.00  0.00     0.167 C 
HETATM    7  C6  UNK     1      19.206   0.182  18.180  1.00  0.00     0.089 A 
HETATM    8  C7  UNK     1      19.027   2.596  18.056  1.00  0.00     0.085 A 
HETATM    9  C8  UNK     1      19.211   0.254  19.573  1.00  0.00     0.074 A 
HETATM   10  C11 UNK     1      19.109   1.492  20.207  1.00  0.00     0.073 A 
HETATM   11  C12 UNK     1      19.012   2.660  19.450  1.00  0.00     0.074 A 
ENDROOT
BRANCH   3  12
HETATM   12  C4  UNK     1      18.959  -2.544  15.773  1.00  0.00    -0.029 A 
HETATM   13  C10 UNK     1      17.884  -3.236  15.216  1.00  0.00     0.010 A 
HETATM   14  C14 UNK     1      18.064  -4.532  14.733  1.00  0.00     0.001 A 
HETATM   15  C15 UNK     1      19.320  -5.135  14.806  1.00  0.00     0.000 A 
HETATM   16  C13 UNK     1      20.394  -4.442  15.363  1.00  0.00     0.001 A 
HETATM   17  C9  UNK     1      20.214  -3.147  15.847  1.00  0.00     0.010 A 
ENDBRANCH   3  12
BRANCH   8  18
HETATM   18  O3  UNK     1      18.946   3.769  17.366  1.00  0.00    -0.360 OA
HETATM   19  H11 UNK     1      19.841   4.085  17.152  1.00  0.00     0.217 HD
ENDBRANCH   8  18
BRANCH  10  20
HETATM   20  O4  UNK     1      19.103   1.562  21.567  1.00  0.00    -0.356 OA
HETATM   21  C16 UNK     1      20.138   2.325  22.182  1.00  0.00     0.210 C 
ENDBRANCH  10  20
TORSDOF 3
ENDMDL
MODEL 9
REMARK VINA RESULT:      -7.8     24.071     26.901
REMARK  3 active torsions:
REMARK  status: ('A' for Active; 'I' for Inactive)
REMARK    1  A    between atoms: C7_11  and  O3_3 
REMARK    2  A    between atoms: C11_15  and  O4_4 
REMARK    3  A    between atoms: C1_5  and  C4_8 
ROOT
HETATM    1  O1  UNK     1      11.481   7.668   9.429  1.00  0.00    -0.340 OA
HETATM    2  O2  UNK     1      12.220   6.286   5.637  1.00  0.00    -0.292 OA
HETATM    3  C1  UNK     1      12.710   6.992   9.121  1.00  0.00     0.169 C 
HETATM    4  C2  UNK     1      13.107   7.216   7.663  1.00  0.00     0.121 C 
HETATM    5  C3  UNK     1      10.637   6.804   7.310  1.00  0.00     0.076 A 
HETATM    6  C5  UNK     1      12.008   6.705   6.769  1.00  0.00     0.167 C 
HETATM    7  C6  UNK     1      10.449   7.302   8.603  1.00  0.00     0.089 A 
HETATM    8  C7  UNK     1       9.537   6.448   6.525  1.00  0.00     0.085 A 
HETATM    9  C8  UNK     1       9.157   7.473   9.099  1.00  0.00     0.074 A 
HETATM   10  C11 UNK     1       8.057   7.120   8.317  1.00  0.00     0.073 A 
HETATM   11  C12 UNK     1       8.248   6.603   7.035  1.00  0.00     0.074 A 
ENDROOT
BRANCH   3  12
HETATM   12  C4  UNK     1      13.783   7.496  10.064  1.00  0.00    -0.029 A 
HETATM   13  C10 UNK     1      13.518   8.572  10.909  1.00  0.00     0.010 A 
HETATM   14  C14 UNK     1      14.506   9.036  11.777  1.00  0.00     0.001 A 
HETATM   15  C15 UNK     1      15.759   8.424  11.799  1.00  0.00     0.000 A 
HETATM   16  C13 UNK     1      16.023   7.348  10.952  1.00  0.00     0.001 A 
HETATM   17  C9  UNK     1      15.035   6.884  10.084  1.00  0.00     0.010 A 
ENDBRANCH   3  12
BRANCH   8  18
HETATM   18  O3  UNK     1       9.665   5.955   5.261  1.00  0.00    -0.360 OA
HETATM   19  H11 UNK     1      10.369   5.284   5.241  1.00  0.00     0.217 HD
ENDBRANCH   8  18
BRANCH  10  20
HETATM   20  O4  UNK     1       6.796   7.276   8.805  1.00  0.00    -0.356 OA
HETATM   21  C16 UNK     1       6.671   7.608  10.186  1.00  0.00     0.210 C 
ENDBRANCH  10  20
TORSDOF 3
ENDMDL
MODEL 10
REMARK VINA RESULT:      -7.7      3.413      4.881
REMARK  3 active torsions:
REMARK  status: ('A' for Active; 'I' for Inactive)
REMARK    1  A    between atoms: C7_11  and  O3_3 
REMARK    2  A    between atoms: C11_15  and  O4_4 
REMARK    3  A    between atoms: C1_5  and  C4_8 
ROOT
HETATM    1  O1  UNK     1      17.739   2.206  32.939  1.00  0.00    -0.340 OA
HETATM    2  O2  UNK     1      19.147   6.026  33.450  1.00  0.00    -0.292 OA
HETATM    3  C1  UNK     1      18.404   2.586  34.154  1.00  0.00     0.169 C 
HETATM    4  C2  UNK     1      18.190   4.069  34.454  1.00  0.00     0.121 C 
HETATM    5  C3  UNK     1      18.631   4.259  31.971  1.00  0.00     0.076 A 
HETATM    6  C5  UNK     1      18.721   4.886  33.306  1.00  0.00     0.167 C 
HETATM    7  C6  UNK     1      18.124   2.961  31.861  1.00  0.00     0.089 A 
HETATM    8  C7  UNK     1      19.006   4.969  30.828  1.00  0.00     0.085 A 
HETATM    9  C8  UNK     1      17.961   2.384  30.601  1.00  0.00     0.074 A 
HETATM   10  C11 UNK     1      18.334   3.091  29.458  1.00  0.00     0.073 A 
HETATM   11  C12 UNK     1      18.860   4.379  29.571  1.00  0.00     0.074 A 
ENDROOT
BRANCH   3  12
HETATM   12  C4  UNK     1      17.880   1.719  35.279  1.00  0.00    -0.029 A 
HETATM   13  C10 UNK     1      17.008   0.667  35.000  1.00  0.00     0.010 A 
HETATM   14  C14 UNK     1      16.526  -0.131  36.037  1.00  0.00     0.001 A 
HETATM   15  C15 UNK     1      16.915   0.121  37.352  1.00  0.00     0.000 A 
HETATM   16  C13 UNK     1      17.787   1.174  37.630  1.00  0.00     0.001 A 
HETATM   17  C9  UNK     1      18.270   1.973  36.593  1.00  0.00     0.010 A 
ENDBRANCH   3  12
BRANCH   8  18
HETATM   18  O3  UNK     1      19.509   6.234  30.880  1.00  0.00    -0.360 OA
HETATM   19  H11 UNK     1      19.060   6.792  30.222  1.00  0.00     0.217 HD
ENDBRANCH   8  18
BRANCH  10  20
HETATM   20  O4  UNK     1      18.186   2.524  28.229  1.00  0.00    -0.356 OA
HETATM   21  C16 UNK     1      18.039   1.107  28.181  1.00  0.00     0.210 C 
ENDBRANCH  10  20
TORSDOF 3
ENDMDL
