MODEL 1
REMARK VINA RESULT:      -8.6      0.000      0.000
REMARK  5 active torsions:
REMARK  status: ('A' for Active; 'I' for Inactive)
REMARK    1  A    between atoms: C5_10  and  N1_4 
REMARK       I    between atoms: C6_11  and  N2_5 
REMARK    2  A    between atoms: C5_10  and  C7_12 
REMARK    3  A    between atoms: C6_11  and  C8_13 
REMARK    4  A    between atoms: C15_20  and  C20_25 
REMARK    5  A    between atoms: C20_25  and  C23_28 
ROOT
HETATM    1  O1  UNK     1      15.529   6.371   9.661  1.00  0.00    -0.267 OA
HETATM    2  N1  UNK     1      16.888  11.121   8.985  1.00  0.00     0.095 N 
HETATM    3  N2  UNK     1      15.439   8.688   9.471  1.00  0.00    -0.344 N 
HETATM    4  C1  UNK     1      15.574  10.906   8.365  1.00  0.00     0.292 C 
HETATM    5  C2  UNK     1      17.601   9.844   9.115  1.00  0.00     0.292 C 
HETATM    6  C3  UNK     1      14.721   9.939   9.191  1.00  0.00     0.156 C 
HETATM    7  C4  UNK     1      16.801   8.870   9.976  1.00  0.00     0.156 C 
HETATM    8  C6  UNK     1      14.902   7.404   9.419  1.00  0.00     0.260 C 
ENDROOT
BRANCH   8   9
HETATM    9  C8  UNK     1      13.477   7.270   9.057  1.00  0.00     0.108 A 
HETATM   10  C13 UNK     1      12.391   7.585  10.013  1.00  0.00     0.304 A 
HETATM   11  O2  UNK     1      11.087   7.421   9.554  1.00  0.00    -0.273 OA
HETATM   12  O3  UNK     1      12.623   7.974  11.152  1.00  0.00    -0.259 OA
HETATM   13  C14 UNK     1      10.810   6.975   8.247  1.00  0.00     0.096 A 
HETATM   14  C12 UNK     1      11.845   6.684   7.365  1.00  0.00    -0.000 A 
HETATM   15  C15 UNK     1       9.473   6.840   7.878  1.00  0.00    -0.020 A 
HETATM   16  C9  UNK     1      13.219   6.847   7.814  1.00  0.00     0.037 A 
HETATM   17  C18 UNK     1      11.530   6.245   6.076  1.00  0.00     0.014 A 
HETATM   18  C22 UNK     1      10.194   6.104   5.693  1.00  0.00     0.002 A 
HETATM   19  C21 UNK     1       9.167   6.402   6.592  1.00  0.00     0.010 A 
BRANCH  15  20
HETATM   20  C20 UNK     1       8.369   7.155   8.832  1.00  0.00     0.067 C 
BRANCH  20  21
HETATM   21  C23 UNK     1       7.691   5.923   9.375  1.00  0.00    -0.032 C 
HETATM   22  C24 UNK     1       8.332   4.916   9.979  1.00  0.00     0.007 C 
ENDBRANCH  20  21
ENDBRANCH  15  20
ENDBRANCH   8   9
BRANCH   2  23
HETATM   23  C5  UNK     1      17.676  12.072   8.203  1.00  0.00     0.311 C 
BRANCH  23  24
HETATM   24  C7  UNK     1      19.084  12.190   8.713  1.00  0.00    -0.030 A 
HETATM   25  C10 UNK     1      19.310  12.633  10.010  1.00  0.00     0.009 A 
HETATM   26  C16 UNK     1      20.618  12.743  10.483  1.00  0.00     0.001 A 
HETATM   27  C19 UNK     1      21.689  12.408   9.656  1.00  0.00     0.000 A 
HETATM   28  C17 UNK     1      21.454  11.963   8.355  1.00  0.00     0.001 A 
HETATM   29  C11 UNK     1      20.146  11.854   7.882  1.00  0.00     0.009 A 
ENDBRANCH  23  24
ENDBRANCH   2  23
TORSDOF 5
ENDMDL
MODEL 2
REMARK VINA RESULT:      -8.5      1.676      2.480
REMARK  5 active torsions:
REMARK  status: ('A' for Active; 'I' for Inactive)
REMARK    1  A    between atoms: C5_10  and  N1_4 
REMARK       I    between atoms: C6_11  and  N2_5 
REMARK    2  A    between atoms: C5_10  and  C7_12 
REMARK    3  A    between atoms: C6_11  and  C8_13 
REMARK    4  A    between atoms: C15_20  and  C20_25 
REMARK    5  A    between atoms: C20_25  and  C23_28 
ROOT
HETATM    1  O1  UNK     1      15.660   6.856   9.802  1.00  0.00    -0.267 OA
HETATM    2  N1  UNK     1      16.797  11.526   8.474  1.00  0.00     0.095 N 
HETATM    3  N2  UNK     1      15.462   9.118   9.293  1.00  0.00    -0.344 N 
HETATM    4  C1  UNK     1      15.498  11.164   7.890  1.00  0.00     0.292 C 
HETATM    5  C2  UNK     1      17.569  10.315   8.780  1.00  0.00     0.292 C 
HETATM    6  C3  UNK     1      14.686  10.281   8.841  1.00  0.00     0.156 C 
HETATM    7  C4  UNK     1      16.810   9.432   9.768  1.00  0.00     0.156 C 
HETATM    8  C6  UNK     1      14.986   7.814   9.419  1.00  0.00     0.260 C 
ENDROOT
BRANCH   8   9
HETATM    9  C8  UNK     1      13.572   7.563   9.079  1.00  0.00     0.108 A 
HETATM   10  C13 UNK     1      12.478   7.794  10.049  1.00  0.00     0.304 A 
HETATM   11  O2  UNK     1      11.185   7.522   9.610  1.00  0.00    -0.273 OA
HETATM   12  O3  UNK     1      12.694   8.207  11.183  1.00  0.00    -0.259 OA
HETATM   13  C14 UNK     1      10.926   7.049   8.309  1.00  0.00     0.096 A 
HETATM   14  C12 UNK     1      11.969   6.837   7.413  1.00  0.00    -0.000 A 
HETATM   15  C15 UNK     1       9.599   6.804   7.961  1.00  0.00    -0.020 A 
HETATM   16  C9  UNK     1      13.332   7.114   7.841  1.00  0.00     0.037 A 
HETATM   17  C18 UNK     1      11.672   6.367   6.132  1.00  0.00     0.014 A 
HETATM   18  C22 UNK     1      10.346   6.116   5.768  1.00  0.00     0.002 A 
HETATM   19  C21 UNK     1       9.311   6.335   6.681  1.00  0.00     0.010 A 
BRANCH  15  20
HETATM   20  C20 UNK     1       8.487   7.033   8.929  1.00  0.00     0.067 C 
BRANCH  20  21
HETATM   21  C23 UNK     1       7.806   5.759   9.356  1.00  0.00    -0.032 C 
HETATM   22  C24 UNK     1       8.365   4.835  10.145  1.00  0.00     0.007 C 
ENDBRANCH  20  21
ENDBRANCH  15  20
ENDBRANCH   8   9
BRANCH   2  23
HETATM   23  C5  UNK     1      17.544  12.396   7.568  1.00  0.00     0.311 C 
BRANCH  23  24
HETATM   24  C7  UNK     1      16.954  13.776   7.499  1.00  0.00    -0.030 A 
HETATM   25  C10 UNK     1      16.680  14.466   8.674  1.00  0.00     0.009 A 
HETATM   26  C16 UNK     1      16.132  15.747   8.610  1.00  0.00     0.001 A 
HETATM   27  C19 UNK     1      15.863  16.329   7.372  1.00  0.00     0.000 A 
HETATM   28  C17 UNK     1      16.142  15.630   6.197  1.00  0.00     0.001 A 
HETATM   29  C11 UNK     1      16.689  14.349   6.261  1.00  0.00     0.009 A 
ENDBRANCH  23  24
ENDBRANCH   2  23
TORSDOF 5
ENDMDL
MODEL 3
REMARK VINA RESULT:      -8.3     33.865     35.107
REMARK  5 active torsions:
REMARK  status: ('A' for Active; 'I' for Inactive)
REMARK    1  A    between atoms: C5_10  and  N1_4 
REMARK       I    between atoms: C6_11  and  N2_5 
REMARK    2  A    between atoms: C5_10  and  C7_12 
REMARK    3  A    between atoms: C6_11  and  C8_13 
REMARK    4  A    between atoms: C15_20  and  C20_25 
REMARK    5  A    between atoms: C20_25  and  C23_28 
ROOT
HETATM    1  O1  UNK     1      27.659  -9.342  39.617  1.00  0.00    -0.267 OA
HETATM    2  N1  UNK     1      30.223  -6.859  36.136  1.00  0.00     0.095 N 
HETATM    3  N2  UNK     1      28.199  -7.847  37.919  1.00  0.00    -0.344 N 
HETATM    4  C1  UNK     1      28.859  -7.098  35.647  1.00  0.00     0.292 C 
HETATM    5  C2  UNK     1      30.564  -7.832  37.181  1.00  0.00     0.292 C 
HETATM    6  C3  UNK     1      27.835  -6.993  36.780  1.00  0.00     0.156 C 
HETATM    7  C4  UNK     1      29.591  -7.720  38.353  1.00  0.00     0.156 C 
HETATM    8  C6  UNK     1      27.325  -8.635  38.665  1.00  0.00     0.260 C 
ENDROOT
BRANCH   8   9
HETATM    9  C8  UNK     1      25.896  -8.616  38.295  1.00  0.00     0.108 A 
HETATM   10  C13 UNK     1      25.371  -9.391  37.149  1.00  0.00     0.304 A 
HETATM   11  O2  UNK     1      24.004  -9.293  36.901  1.00  0.00    -0.273 OA
HETATM   12  O3  UNK     1      26.098 -10.089  36.450  1.00  0.00    -0.259 OA
HETATM   13  C14 UNK     1      23.160  -8.495  37.697  1.00  0.00     0.096 A 
HETATM   14  C12 UNK     1      23.674  -7.773  38.770  1.00  0.00    -0.000 A 
HETATM   15  C15 UNK     1      21.806  -8.458  37.371  1.00  0.00    -0.020 A 
HETATM   16  C9  UNK     1      25.099  -7.856  39.056  1.00  0.00     0.037 A 
HETATM   17  C18 UNK     1      22.806  -6.993  39.536  1.00  0.00     0.014 A 
HETATM   18  C22 UNK     1      21.445  -6.946  39.221  1.00  0.00     0.002 A 
HETATM   19  C21 UNK     1      20.946  -7.678  38.140  1.00  0.00     0.010 A 
BRANCH  15  20
HETATM   20  C20 UNK     1      21.264  -9.235  36.219  1.00  0.00     0.067 C 
BRANCH  20  21
HETATM   21  C23 UNK     1      20.872 -10.643  36.589  1.00  0.00    -0.032 C 
HETATM   22  C24 UNK     1      19.841 -10.952  37.382  1.00  0.00     0.007 C 
ENDBRANCH  20  21
ENDBRANCH  15  20
ENDBRANCH   8   9
BRANCH   2  23
HETATM   23  C5  UNK     1      31.184  -6.930  35.036  1.00  0.00     0.311 C 
BRANCH  23  24
HETATM   24  C7  UNK     1      32.207  -5.833  35.111  1.00  0.00    -0.030 A 
HETATM   25  C10 UNK     1      31.938  -4.692  35.857  1.00  0.00     0.009 A 
HETATM   26  C16 UNK     1      32.888  -3.673  35.926  1.00  0.00     0.001 A 
HETATM   27  C19 UNK     1      34.101  -3.803  35.251  1.00  0.00     0.000 A 
HETATM   28  C17 UNK     1      34.364  -4.953  34.504  1.00  0.00     0.001 A 
HETATM   29  C11 UNK     1      33.413  -5.971  34.435  1.00  0.00     0.009 A 
ENDBRANCH  23  24
ENDBRANCH   2  23
TORSDOF 5
ENDMDL
MODEL 4
REMARK VINA RESULT:      -8.3     26.885     28.838
REMARK  5 active torsions:
REMARK  status: ('A' for Active; 'I' for Inactive)
REMARK    1  A    between atoms: C5_10  and  N1_4 
REMARK       I    between atoms: C6_11  and  N2_5 
REMARK    2  A    between atoms: C5_10  and  C7_12 
REMARK    3  A    between atoms: C6_11  and  C8_13 
REMARK    4  A    between atoms: C15_20  and  C20_25 
REMARK    5  A    between atoms: C20_25  and  C23_28 
ROOT
HETATM    1  O1  UNK     1      16.846  -1.003  35.555  1.00  0.00    -0.267 OA
HETATM    2  N1  UNK     1      20.678  -3.571  37.449  1.00  0.00     0.095 N 
HETATM    3  N2  UNK     1      19.010  -1.730  36.006  1.00  0.00    -0.344 N 
HETATM    4  C1  UNK     1      20.949  -3.278  36.036  1.00  0.00     0.292 C 
HETATM    5  C2  UNK     1      19.233  -3.516  37.709  1.00  0.00     0.292 C 
HETATM    6  C3  UNK     1      20.423  -1.895  35.643  1.00  0.00     0.156 C 
HETATM    7  C4  UNK     1      18.683  -2.131  37.375  1.00  0.00     0.156 C 
HETATM    8  C6  UNK     1      18.027  -1.128  35.224  1.00  0.00     0.260 C 
ENDROOT
BRANCH   8   9
HETATM    9  C8  UNK     1      18.429  -0.592  33.908  1.00  0.00     0.108 A 
HETATM   10  C13 UNK     1      18.198   0.821  33.533  1.00  0.00     0.304 A 
HETATM   11  O2  UNK     1      18.623   1.208  32.264  1.00  0.00    -0.273 OA
HETATM   12  O3  UNK     1      17.663   1.616  34.297  1.00  0.00    -0.259 OA
HETATM   13  C14 UNK     1      19.240   0.303  31.379  1.00  0.00     0.096 A 
HETATM   14  C12 UNK     1      19.446  -1.022  31.752  1.00  0.00    -0.000 A 
HETATM   15  C15 UNK     1      19.630   0.782  30.130  1.00  0.00    -0.020 A 
HETATM   16  C9  UNK     1      19.015  -1.457  33.071  1.00  0.00     0.037 A 
HETATM   17  C18 UNK     1      20.060  -1.889  30.846  1.00  0.00     0.014 A 
HETATM   18  C22 UNK     1      20.457  -1.422  29.589  1.00  0.00     0.002 A 
HETATM   19  C21 UNK     1      20.242  -0.089  29.232  1.00  0.00     0.010 A 
BRANCH  15  20
HETATM   20  C20 UNK     1      19.404   2.204  29.739  1.00  0.00     0.067 C 
BRANCH  20  21
HETATM   21  C23 UNK     1      18.105   2.414  29.004  1.00  0.00    -0.032 C 
HETATM   22  C24 UNK     1      17.572   1.532  28.152  1.00  0.00     0.007 C 
ENDBRANCH  20  21
ENDBRANCH  15  20
ENDBRANCH   8   9
BRANCH   2  23
HETATM   23  C5  UNK     1      21.216  -4.881  37.815  1.00  0.00     0.311 C 
BRANCH  23  24
HETATM   24  C7  UNK     1      20.326  -6.002  37.359  1.00  0.00    -0.030 A 
HETATM   25  C10 UNK     1      19.667  -6.783  38.300  1.00  0.00     0.009 A 
HETATM   26  C16 UNK     1      18.842  -7.824  37.875  1.00  0.00     0.001 A 
HETATM   27  C19 UNK     1      18.680  -8.076  36.513  1.00  0.00     0.000 A 
HETATM   28  C17 UNK     1      19.346  -7.287  35.574  1.00  0.00     0.001 A 
HETATM   29  C11 UNK     1      20.172  -6.246  35.999  1.00  0.00     0.009 A 
ENDBRANCH  23  24
ENDBRANCH   2  23
TORSDOF 5
ENDMDL
MODEL 5
REMARK VINA RESULT:      -8.2     33.790     34.814
REMARK  5 active torsions:
REMARK  status: ('A' for Active; 'I' for Inactive)
REMARK    1  A    between atoms: C5_10  and  N1_4 
REMARK       I    between atoms: C6_11  and  N2_5 
REMARK    2  A    between atoms: C5_10  and  C7_12 
REMARK    3  A    between atoms: C6_11  and  C8_13 
REMARK    4  A    between atoms: C15_20  and  C20_25 
REMARK    5  A    between atoms: C20_25  and  C23_28 
ROOT
HETATM    1  O1  UNK     1      27.657 -10.117  38.774  1.00  0.00    -0.267 OA
HETATM    2  N1  UNK     1      30.242  -7.271  35.599  1.00  0.00     0.095 N 
HETATM    3  N2  UNK     1      28.217  -8.425  37.278  1.00  0.00    -0.344 N 
HETATM    4  C1  UNK     1      28.862  -7.400  35.113  1.00  0.00     0.292 C 
HETATM    5  C2  UNK     1      30.568  -8.385  36.498  1.00  0.00     0.292 C 
HETATM    6  C3  UNK     1      27.862  -7.416  36.272  1.00  0.00     0.156 C 
HETATM    7  C4  UNK     1      29.620  -8.401  37.695  1.00  0.00     0.156 C 
HETATM    8  C6  UNK     1      27.331  -9.279  37.932  1.00  0.00     0.260 C 
ENDROOT
BRANCH   8   9
HETATM    9  C8  UNK     1      25.897  -9.166  37.599  1.00  0.00     0.108 A 
HETATM   10  C13 UNK     1      25.067  -8.037  38.076  1.00  0.00     0.304 A 
HETATM   11  O2  UNK     1      23.727  -8.041  37.695  1.00  0.00    -0.273 OA
HETATM   12  O3  UNK     1      25.531  -7.140  38.771  1.00  0.00    -0.259 OA
HETATM   13  C14 UNK     1      23.185  -9.066  36.896  1.00  0.00     0.096 A 
HETATM   14  C12 UNK     1      23.983 -10.119  36.459  1.00  0.00    -0.000 A 
HETATM   15  C15 UNK     1      21.834  -8.984  36.567  1.00  0.00    -0.020 A 
HETATM   16  C9  UNK     1      25.387 -10.143  36.840  1.00  0.00     0.037 A 
HETATM   17  C18 UNK     1      23.408 -11.117  35.669  1.00  0.00     0.014 A 
HETATM   18  C22 UNK     1      22.054 -11.049  35.330  1.00  0.00     0.002 A 
HETATM   19  C21 UNK     1      21.268  -9.984  35.778  1.00  0.00     0.010 A 
BRANCH  15  20
HETATM   20  C20 UNK     1      20.986  -7.852  37.041  1.00  0.00     0.067 C 
BRANCH  20  21
HETATM   21  C23 UNK     1      20.009  -8.257  38.114  1.00  0.00    -0.032 C 
HETATM   22  C24 UNK     1      20.234  -8.122  39.426  1.00  0.00     0.007 C 
ENDBRANCH  20  21
ENDBRANCH  15  20
ENDBRANCH   8   9
BRANCH   2  23
HETATM   23  C5  UNK     1      31.180  -7.223  34.479  1.00  0.00     0.311 C 
BRANCH  23  24
HETATM   24  C7  UNK     1      32.243  -6.181  34.679  1.00  0.00    -0.030 A 
HETATM   25  C10 UNK     1      31.953  -5.034  35.408  1.00  0.00     0.009 A 
HETATM   26  C16 UNK     1      32.940  -4.067  35.594  1.00  0.00     0.001 A 
HETATM   27  C19 UNK     1      34.211  -4.253  35.050  1.00  0.00     0.000 A 
HETATM   28  C17 UNK     1      34.495  -5.408  34.320  1.00  0.00     0.001 A 
HETATM   29  C11 UNK     1      33.507  -6.375  34.134  1.00  0.00     0.009 A 
ENDBRANCH  23  24
ENDBRANCH   2  23
TORSDOF 5
ENDMDL
MODEL 6
REMARK VINA RESULT:      -8.1     35.012     37.660
REMARK  5 active torsions:
REMARK  status: ('A' for Active; 'I' for Inactive)
REMARK    1  A    between atoms: C5_10  and  N1_4 
REMARK       I    between atoms: C6_11  and  N2_5 
REMARK    2  A    between atoms: C5_10  and  C7_12 
REMARK    3  A    between atoms: C6_11  and  C8_13 
REMARK    4  A    between atoms: C15_20  and  C20_25 
REMARK    5  A    between atoms: C20_25  and  C23_28 
ROOT
HETATM    1  O1  UNK     1      30.430 -10.674  39.386  1.00  0.00    -0.267 OA
HETATM    2  N1  UNK     1      26.179  -8.299  38.311  1.00  0.00     0.095 N 
HETATM    3  N2  UNK     1      28.805  -9.463  38.243  1.00  0.00    -0.344 N 
HETATM    4  C1  UNK     1      27.304  -7.554  37.730  1.00  0.00     0.292 C 
HETATM    5  C2  UNK     1      26.648  -9.141  39.419  1.00  0.00     0.292 C 
HETATM    6  C3  UNK     1      28.391  -8.501  37.213  1.00  0.00     0.156 C 
HETATM    7  C4  UNK     1      27.698 -10.134  38.927  1.00  0.00     0.156 C 
HETATM    8  C6  UNK     1      30.111  -9.863  38.515  1.00  0.00     0.260 C 
ENDROOT
BRANCH   8   9
HETATM    9  C8  UNK     1      31.192  -9.280  37.695  1.00  0.00     0.108 A 
HETATM   10  C13 UNK     1      31.552  -9.826  36.367  1.00  0.00     0.304 A 
HETATM   11  O2  UNK     1      32.588  -9.189  35.689  1.00  0.00    -0.273 OA
HETATM   12  O3  UNK     1      30.968 -10.789  35.882  1.00  0.00    -0.259 OA
HETATM   13  C14 UNK     1      33.264  -8.082  36.237  1.00  0.00     0.096 A 
HETATM   14  C12 UNK     1      32.911  -7.585  37.487  1.00  0.00    -0.000 A 
HETATM   15  C15 UNK     1      34.289  -7.512  35.484  1.00  0.00    -0.020 A 
HETATM   16  C9  UNK     1      31.831  -8.227  38.220  1.00  0.00     0.037 A 
HETATM   17  C18 UNK     1      33.605  -6.485  37.997  1.00  0.00     0.014 A 
HETATM   18  C22 UNK     1      34.635  -5.903  37.253  1.00  0.00     0.002 A 
HETATM   19  C21 UNK     1      34.976  -6.415  35.999  1.00  0.00     0.010 A 
BRANCH  15  20
HETATM   20  C20 UNK     1      34.661  -8.052  34.144  1.00  0.00     0.067 C 
BRANCH  20  21
HETATM   21  C23 UNK     1      34.769  -6.983  33.087  1.00  0.00    -0.032 C 
HETATM   22  C24 UNK     1      35.918  -6.602  32.518  1.00  0.00     0.007 C 
ENDBRANCH  20  21
ENDBRANCH  15  20
ENDBRANCH   8   9
BRANCH   2  23
HETATM   23  C5  UNK     1      25.137  -7.381  38.769  1.00  0.00     0.311 C 
BRANCH  23  24
HETATM   24  C7  UNK     1      23.766  -7.983  38.650  1.00  0.00    -0.030 A 
HETATM   25  C10 UNK     1      22.907  -7.958  39.741  1.00  0.00     0.009 A 
HETATM   26  C16 UNK     1      21.634  -8.518  39.630  1.00  0.00     0.001 A 
HETATM   27  C19 UNK     1      21.229  -9.097  38.428  1.00  0.00     0.000 A 
HETATM   28  C17 UNK     1      22.097  -9.117  37.336  1.00  0.00     0.001 A 
HETATM   29  C11 UNK     1      23.371  -8.558  37.448  1.00  0.00     0.009 A 
ENDBRANCH  23  24
ENDBRANCH   2  23
TORSDOF 5
ENDMDL
MODEL 7
REMARK VINA RESULT:      -8.1     33.879     36.598
REMARK  5 active torsions:
REMARK  status: ('A' for Active; 'I' for Inactive)
REMARK    1  A    between atoms: C5_10  and  N1_4 
REMARK       I    between atoms: C6_11  and  N2_5 
REMARK    2  A    between atoms: C5_10  and  C7_12 
REMARK    3  A    between atoms: C6_11  and  C8_13 
REMARK    4  A    between atoms: C15_20  and  C20_25 
REMARK    5  A    between atoms: C20_25  and  C23_28 
ROOT
HETATM    1  O1  UNK     1      32.346  -3.122  36.402  1.00  0.00    -0.267 OA
HETATM    2  N1  UNK     1      28.923  -6.051  38.539  1.00  0.00     0.095 N 
HETATM    3  N2  UNK     1      31.253  -5.004  37.225  1.00  0.00    -0.344 N 
HETATM    4  C1  UNK     1      29.497  -6.751  37.383  1.00  0.00     0.292 C 
HETATM    5  C2  UNK     1      29.107  -4.601  38.397  1.00  0.00     0.292 C 
HETATM    6  C3  UNK     1      30.991  -6.450  37.236  1.00  0.00     0.156 C 
HETATM    7  C4  UNK     1      30.592  -4.259  38.298  1.00  0.00     0.156 C 
HETATM    8  C6  UNK     1      32.145  -4.338  36.389  1.00  0.00     0.260 C 
ENDROOT
BRANCH   8   9
HETATM    9  C8  UNK     1      32.914  -5.147  35.422  1.00  0.00     0.108 A 
HETATM   10  C13 UNK     1      32.330  -5.602  34.140  1.00  0.00     0.304 A 
HETATM   11  O2  UNK     1      33.156  -6.357  33.310  1.00  0.00    -0.273 OA
HETATM   12  O3  UNK     1      31.179  -5.328  33.818  1.00  0.00    -0.259 OA
HETATM   13  C14 UNK     1      34.479  -6.676  33.670  1.00  0.00     0.096 A 
HETATM   14  C12 UNK     1      35.008  -6.240  34.880  1.00  0.00    -0.000 A 
HETATM   15  C15 UNK     1      35.228  -7.439  32.775  1.00  0.00    -0.020 A 
HETATM   16  C9  UNK     1      34.171  -5.447  35.769  1.00  0.00     0.037 A 
HETATM   17  C18 UNK     1      36.325  -6.577  35.202  1.00  0.00     0.014 A 
HETATM   18  C22 UNK     1      37.088  -7.341  34.315  1.00  0.00     0.002 A 
HETATM   19  C21 UNK     1      36.541  -7.770  33.103  1.00  0.00     0.010 A 
BRANCH  15  20
HETATM   20  C20 UNK     1      34.652  -7.903  31.480  1.00  0.00     0.067 C 
BRANCH  20  21
HETATM   21  C23 UNK     1      35.043  -7.032  30.315  1.00  0.00    -0.032 C 
HETATM   22  C24 UNK     1      34.734  -7.297  29.040  1.00  0.00     0.007 C 
ENDBRANCH  20  21
ENDBRANCH  15  20
ENDBRANCH   8   9
BRANCH   2  23
HETATM   23  C5  UNK     1      27.504  -6.377  38.685  1.00  0.00     0.311 C 
BRANCH  23  24
HETATM   24  C7  UNK     1      27.268  -7.859  38.714  1.00  0.00    -0.030 A 
HETATM   25  C10 UNK     1      27.642  -8.594  39.833  1.00  0.00     0.009 A 
HETATM   26  C16 UNK     1      27.422  -9.971  39.859  1.00  0.00     0.001 A 
HETATM   27  C19 UNK     1      26.829 -10.604  38.767  1.00  0.00     0.000 A 
HETATM   28  C17 UNK     1      26.456  -9.860  37.648  1.00  0.00     0.001 A 
HETATM   29  C11 UNK     1      26.676  -8.482  37.621  1.00  0.00     0.009 A 
ENDBRANCH  23  24
ENDBRANCH   2  23
TORSDOF 5
ENDMDL
MODEL 8
REMARK VINA RESULT:      -8.1     27.508     29.482
REMARK  5 active torsions:
REMARK  status: ('A' for Active; 'I' for Inactive)
REMARK    1  A    between atoms: C5_10  and  N1_4 
REMARK       I    between atoms: C6_11  and  N2_5 
REMARK    2  A    between atoms: C5_10  and  C7_12 
REMARK    3  A    between atoms: C6_11  and  C8_13 
REMARK    4  A    between atoms: C15_20  and  C20_25 
REMARK    5  A    between atoms: C20_25  and  C23_28 
ROOT
HETATM    1  O1  UNK     1      17.043   0.371  37.414  1.00  0.00    -0.267 OA
HETATM    2  N1  UNK     1      19.924  -3.584  36.453  1.00  0.00     0.095 N 
HETATM    3  N2  UNK     1      18.738  -0.969  36.551  1.00  0.00    -0.344 N 
HETATM    4  C1  UNK     1      19.764  -2.797  35.223  1.00  0.00     0.292 C 
HETATM    5  C2  UNK     1      18.822  -3.302  37.381  1.00  0.00     0.292 C 
HETATM    6  C3  UNK     1      19.734  -1.296  35.522  1.00  0.00     0.156 C 
HETATM    7  C4  UNK     1      18.793  -1.818  37.742  1.00  0.00     0.156 C 
HETATM    8  C6  UNK     1      17.870   0.120  36.535  1.00  0.00     0.260 C 
ENDROOT
BRANCH   8   9
HETATM    9  C8  UNK     1      17.952   1.047  35.389  1.00  0.00     0.108 A 
HETATM   10  C13 UNK     1      17.473   0.672  34.040  1.00  0.00     0.304 A 
HETATM   11  O2  UNK     1      17.602   1.634  33.040  1.00  0.00    -0.273 OA
HETATM   12  O3  UNK     1      16.983  -0.428  33.809  1.00  0.00    -0.259 OA
HETATM   13  C14 UNK     1      18.163   2.900  33.296  1.00  0.00     0.096 A 
HETATM   14  C12 UNK     1      18.609   3.232  34.571  1.00  0.00    -0.000 A 
HETATM   15  C15 UNK     1      18.252   3.795  32.231  1.00  0.00    -0.020 A 
HETATM   16  C9  UNK     1      18.485   2.250  35.637  1.00  0.00     0.037 A 
HETATM   17  C18 UNK     1      19.159   4.498  34.785  1.00  0.00     0.014 A 
HETATM   18  C22 UNK     1      19.255   5.406  33.727  1.00  0.00     0.002 A 
HETATM   19  C21 UNK     1      18.802   5.056  32.453  1.00  0.00     0.010 A 
BRANCH  15  20
HETATM   20  C20 UNK     1      17.772   3.430  30.867  1.00  0.00     0.067 C 
BRANCH  20  21
HETATM   21  C23 UNK     1      18.767   2.603  30.094  1.00  0.00    -0.032 C 
HETATM   22  C24 UNK     1      18.440   1.763  29.106  1.00  0.00     0.007 C 
ENDBRANCH  20  21
ENDBRANCH  15  20
ENDBRANCH   8   9
BRANCH   2  23
HETATM   23  C5  UNK     1      19.985  -5.012  36.146  1.00  0.00     0.311 C 
BRANCH  23  24
HETATM   24  C7  UNK     1      20.401  -5.826  37.338  1.00  0.00    -0.030 A 
HETATM   25  C10 UNK     1      21.643  -5.605  37.922  1.00  0.00     0.009 A 
HETATM   26  C16 UNK     1      22.029  -6.362  39.028  1.00  0.00     0.001 A 
HETATM   27  C19 UNK     1      21.171  -7.333  39.543  1.00  0.00     0.000 A 
HETATM   28  C17 UNK     1      19.926  -7.548  38.952  1.00  0.00     0.001 A 
HETATM   29  C11 UNK     1      19.540  -6.792  37.845  1.00  0.00     0.009 A 
ENDBRANCH  23  24
ENDBRANCH   2  23
TORSDOF 5
ENDMDL
MODEL 9
REMARK VINA RESULT:      -8.1      4.005      6.877
REMARK  5 active torsions:
REMARK  status: ('A' for Active; 'I' for Inactive)
REMARK    1  A    between atoms: C5_10  and  N1_4 
REMARK       I    between atoms: C6_11  and  N2_5 
REMARK    2  A    between atoms: C5_10  and  C7_12 
REMARK    3  A    between atoms: C6_11  and  C8_13 
REMARK    4  A    between atoms: C15_20  and  C20_25 
REMARK    5  A    between atoms: C20_25  and  C23_28 
ROOT
HETATM    1  O1  UNK     1       7.425   6.235   7.053  1.00  0.00    -0.267 OA
HETATM    2  N1  UNK     1      12.318   6.877   7.766  1.00  0.00     0.095 N 
HETATM    3  N2  UNK     1       9.569   6.059   7.937  1.00  0.00    -0.344 N 
HETATM    4  C1  UNK     1      11.650   6.796   9.072  1.00  0.00     0.292 C 
HETATM    5  C2  UNK     1      11.357   7.277   6.730  1.00  0.00     0.292 C 
HETATM    6  C3  UNK     1      10.496   5.790   9.045  1.00  0.00     0.156 C 
HETATM    7  C4  UNK     1      10.216   6.266   6.641  1.00  0.00     0.156 C 
HETATM    8  C6  UNK     1       8.179   6.005   8.000  1.00  0.00     0.260 C 
ENDROOT
BRANCH   8   9
HETATM    9  C8  UNK     1       7.563   5.637   9.290  1.00  0.00     0.108 A 
HETATM   10  C13 UNK     1       7.473   6.592  10.418  1.00  0.00     0.304 A 
HETATM   11  O2  UNK     1       6.868   6.127  11.583  1.00  0.00    -0.273 OA
HETATM   12  O3  UNK     1       7.905   7.736  10.334  1.00  0.00    -0.259 OA
HETATM   13  C14 UNK     1       6.368   4.815  11.689  1.00  0.00     0.096 A 
HETATM   14  C12 UNK     1       6.464   3.933  10.617  1.00  0.00    -0.000 A 
HETATM   15  C15 UNK     1       5.781   4.441  12.896  1.00  0.00    -0.020 A 
HETATM   16  C9  UNK     1       7.089   4.389   9.384  1.00  0.00     0.037 A 
HETATM   17  C18 UNK     1       5.956   2.640  10.760  1.00  0.00     0.014 A 
HETATM   18  C22 UNK     1       5.364   2.251  11.965  1.00  0.00     0.002 A 
HETATM   19  C21 UNK     1       5.277   3.150  13.031  1.00  0.00     0.010 A 
BRANCH  15  20
HETATM   20  C20 UNK     1       5.684   5.394  14.040  1.00  0.00     0.067 C 
BRANCH  20  21
HETATM   21  C23 UNK     1       5.611   4.703  15.377  1.00  0.00    -0.032 C 
HETATM   22  C24 UNK     1       5.222   5.298  16.511  1.00  0.00     0.007 C 
ENDBRANCH  20  21
ENDBRANCH  15  20
ENDBRANCH   8   9
BRANCH   2  23
HETATM   23  C5  UNK     1      13.437   7.816   7.818  1.00  0.00     0.311 C 
BRANCH  23  24
HETATM   24  C7  UNK     1      14.490   7.383   8.798  1.00  0.00    -0.030 A 
HETATM   25  C10 UNK     1      15.049   8.314   9.664  1.00  0.00     0.009 A 
HETATM   26  C16 UNK     1      16.027   7.911  10.574  1.00  0.00     0.001 A 
HETATM   27  C19 UNK     1      16.437   6.579  10.611  1.00  0.00     0.000 A 
HETATM   28  C17 UNK     1      15.871   5.649   9.739  1.00  0.00     0.001 A 
HETATM   29  C11 UNK     1      14.894   6.053   8.829  1.00  0.00     0.009 A 
ENDBRANCH  23  24
ENDBRANCH   2  23
TORSDOF 5
ENDMDL
MODEL 10
REMARK VINA RESULT:      -8.1     25.322     26.932
REMARK  5 active torsions:
REMARK  status: ('A' for Active; 'I' for Inactive)
REMARK    1  A    between atoms: C5_10  and  N1_4 
REMARK       I    between atoms: C6_11  and  N2_5 
REMARK    2  A    between atoms: C5_10  and  C7_12 
REMARK    3  A    between atoms: C6_11  and  C8_13 
REMARK    4  A    between atoms: C15_20  and  C20_25 
REMARK    5  A    between atoms: C20_25  and  C23_28 
ROOT
HETATM    1  O1  UNK     1      17.909   2.005  30.877  1.00  0.00    -0.267 OA
HETATM    2  N1  UNK     1      18.059   6.517  32.995  1.00  0.00     0.095 N 
HETATM    3  N2  UNK     1      18.372   3.731  32.367  1.00  0.00    -0.344 N 
HETATM    4  C1  UNK     1      17.905   5.500  34.044  1.00  0.00     0.292 C 
HETATM    5  C2  UNK     1      17.594   5.989  31.706  1.00  0.00     0.292 C 
HETATM    6  C3  UNK     1      18.695   4.232  33.710  1.00  0.00     0.156 C 
HETATM    7  C4  UNK     1      18.397   4.750  31.316  1.00  0.00     0.156 C 
HETATM    8  C6  UNK     1      18.179   2.398  32.014  1.00  0.00     0.260 C 
ENDROOT
BRANCH   8   9
HETATM    9  C8  UNK     1      18.318   1.380  33.074  1.00  0.00     0.108 A 
HETATM   10  C13 UNK     1      19.074   0.125  32.863  1.00  0.00     0.304 A 
HETATM   11  O2  UNK     1      19.135  -0.757  33.939  1.00  0.00    -0.273 OA
HETATM   12  O3  UNK     1      19.624  -0.130  31.797  1.00  0.00    -0.259 OA
HETATM   13  C14 UNK     1      18.508  -0.474  35.168  1.00  0.00     0.096 A 
HETATM   14  C12 UNK     1      17.801   0.711  35.345  1.00  0.00    -0.000 A 
HETATM   15  C15 UNK     1      18.623  -1.418  36.186  1.00  0.00    -0.020 A 
HETATM   16  C9  UNK     1      17.721   1.654  34.240  1.00  0.00     0.037 A 
HETATM   17  C18 UNK     1      17.193   0.956  36.578  1.00  0.00     0.014 A 
HETATM   18  C22 UNK     1      17.300   0.018  37.609  1.00  0.00     0.002 A 
HETATM   19  C21 UNK     1      18.014  -1.166  37.414  1.00  0.00     0.010 A 
BRANCH  15  20
HETATM   20  C20 UNK     1      19.383  -2.686  35.987  1.00  0.00     0.067 C 
BRANCH  20  21
HETATM   21  C23 UNK     1      20.271  -3.031  37.155  1.00  0.00    -0.032 C 
HETATM   22  C24 UNK     1      20.672  -4.272  37.454  1.00  0.00     0.007 C 
ENDBRANCH  20  21
ENDBRANCH  15  20
ENDBRANCH   8   9
BRANCH   2  23
HETATM   23  C5  UNK     1      17.326   7.733  33.346  1.00  0.00     0.311 C 
BRANCH  23  24
HETATM   24  C7  UNK     1      18.246   8.842  33.768  1.00  0.00    -0.030 A 
HETATM   25  C10 UNK     1      19.553   8.549  34.136  1.00  0.00     0.009 A 
HETATM   26  C16 UNK     1      20.407   9.579  34.529  1.00  0.00     0.001 A 
HETATM   27  C19 UNK     1      19.948  10.896  34.549  1.00  0.00     0.000 A 
HETATM   28  C17 UNK     1      18.634  11.183  34.177  1.00  0.00     0.001 A 
HETATM   29  C11 UNK     1      17.780  10.151  33.786  1.00  0.00     0.009 A 
ENDBRANCH  23  24
ENDBRANCH   2  23
TORSDOF 5
ENDMDL
