MODEL 1
REMARK VINA RESULT:      -8.0      0.000      0.000
REMARK  3 active torsions:
REMARK  status: ('A' for Active; 'I' for Inactive)
REMARK    1  A    between atoms: C7_11  and  O2_2 
REMARK    2  A    between atoms: C9_13  and  O4_4 
REMARK    3  A    between atoms: C1_5  and  C3_7 
ROOT
HETATM    1  O1  UNK     1      19.145   1.744  31.444  1.00  0.00    -0.340 OA
HETATM    2  O3  UNK     1      17.782   1.809  27.575  1.00  0.00    -0.292 OA
HETATM    3  C1  UNK     1      18.863   2.989  30.786  1.00  0.00     0.172 C 
HETATM    4  C2  UNK     1      17.754   2.823  29.749  1.00  0.00     0.121 C 
HETATM    5  C4  UNK     1      18.180   1.795  28.733  1.00  0.00     0.165 C 
HETATM    6  C5  UNK     1      19.056   0.715  29.235  1.00  0.00     0.043 A 
HETATM    7  C6  UNK     1      19.471   0.740  30.569  1.00  0.00     0.083 A 
HETATM    8  C10 UNK     1      19.430  -0.339  28.398  1.00  0.00     0.018 A 
HETATM    9  C11 UNK     1      20.235  -0.312  31.078  1.00  0.00     0.038 A 
HETATM   10  C14 UNK     1      20.211  -1.378  28.907  1.00  0.00     0.001 A 
HETATM   11  C15 UNK     1      20.608  -1.367  30.245  1.00  0.00     0.003 A 
ENDROOT
BRANCH   3  12
HETATM   12  C3  UNK     1      18.481   4.010  31.836  1.00  0.00     0.008 A 
HETATM   13  C7  UNK     1      18.386   5.365  31.515  1.00  0.00     0.110 A 
HETATM   14  C9  UNK     1      18.031   6.292  32.495  1.00  0.00     0.102 A 
HETATM   15  C13 UNK     1      17.772   5.865  33.798  1.00  0.00     0.039 A 
HETATM   16  C12 UNK     1      17.867   4.511  34.120  1.00  0.00     0.003 A 
HETATM   17  C8  UNK     1      18.220   3.584  33.139  1.00  0.00     0.013 A 
BRANCH  13  18
HETATM   18  O2  UNK     1      18.639   5.786  30.243  1.00  0.00    -0.352 OA
HETATM   19  C16 UNK     1      20.003   6.003  29.892  1.00  0.00     0.210 C 
ENDBRANCH  13  18
BRANCH  14  20
HETATM   20  O4  UNK     1      17.936   7.617  32.195  1.00  0.00    -0.353 OA
HETATM   21  C17 UNK     1      16.626   8.141  31.983  1.00  0.00     0.210 C 
ENDBRANCH  14  20
ENDBRANCH   3  12
TORSDOF 3
ENDMDL
MODEL 2
REMARK VINA RESULT:      -7.8      3.946      6.406
REMARK  3 active torsions:
REMARK  status: ('A' for Active; 'I' for Inactive)
REMARK    1  A    between atoms: C7_11  and  O2_2 
REMARK    2  A    between atoms: C9_13  and  O4_4 
REMARK    3  A    between atoms: C1_5  and  C3_7 
ROOT
HETATM    1  O1  UNK     1      19.137   0.228  32.798  1.00  0.00    -0.340 OA
HETATM    2  O3  UNK     1      20.402  -2.099  29.665  1.00  0.00    -0.292 OA
HETATM    3  C1  UNK     1      19.085  -1.205  32.880  1.00  0.00     0.172 C 
HETATM    4  C2  UNK     1      20.191  -1.843  32.041  1.00  0.00     0.121 C 
HETATM    5  C4  UNK     1      20.032  -1.408  30.607  1.00  0.00     0.165 C 
HETATM    6  C5  UNK     1      19.465  -0.060  30.399  1.00  0.00     0.043 A 
HETATM    7  C6  UNK     1      19.070   0.691  31.509  1.00  0.00     0.083 A 
HETATM    8  C10 UNK     1      19.365   0.475  29.112  1.00  0.00     0.018 A 
HETATM    9  C11 UNK     1      18.605   1.996  31.334  1.00  0.00     0.038 A 
HETATM   10  C14 UNK     1      18.881   1.772  28.942  1.00  0.00     0.001 A 
HETATM   11  C15 UNK     1      18.506   2.533  30.051  1.00  0.00     0.003 A 
ENDROOT
BRANCH   3  12
HETATM   12  C3  UNK     1      19.204  -1.605  34.335  1.00  0.00     0.008 A 
HETATM   13  C7  UNK     1      18.286  -1.146  35.281  1.00  0.00     0.110 A 
HETATM   14  C9  UNK     1      18.410  -1.526  36.617  1.00  0.00     0.102 A 
HETATM   15  C13 UNK     1      19.453  -2.366  37.009  1.00  0.00     0.039 A 
HETATM   16  C12 UNK     1      20.371  -2.825  36.065  1.00  0.00     0.003 A 
HETATM   17  C8  UNK     1      20.246  -2.446  34.729  1.00  0.00     0.013 A 
BRANCH  13  18
HETATM   18  O2  UNK     1      17.265  -0.325  34.901  1.00  0.00    -0.352 OA
HETATM   19  C16 UNK     1      15.975  -0.915  34.769  1.00  0.00     0.210 C 
ENDBRANCH  13  18
BRANCH  14  20
HETATM   20  O4  UNK     1      17.521  -1.084  37.550  1.00  0.00    -0.353 OA
HETATM   21  C17 UNK     1      17.732   0.224  38.078  1.00  0.00     0.210 C 
ENDBRANCH  14  20
ENDBRANCH   3  12
TORSDOF 3
ENDMDL
MODEL 3
REMARK VINA RESULT:      -7.8      2.694      5.048
REMARK  3 active torsions:
REMARK  status: ('A' for Active; 'I' for Inactive)
REMARK    1  A    between atoms: C7_11  and  O2_2 
REMARK    2  A    between atoms: C9_13  and  O4_4 
REMARK    3  A    between atoms: C1_5  and  C3_7 
ROOT
HETATM    1  O1  UNK     1      19.119   6.427  31.796  1.00  0.00    -0.340 OA
HETATM    2  O3  UNK     1      18.067   3.316  34.254  1.00  0.00    -0.292 OA
HETATM    3  C1  UNK     1      18.439   6.670  33.037  1.00  0.00     0.172 C 
HETATM    4  C2  UNK     1      18.782   5.599  34.070  1.00  0.00     0.121 C 
HETATM    5  C4  UNK     1      18.388   4.249  33.528  1.00  0.00     0.165 C 
HETATM    6  C5  UNK     1      18.478   4.089  32.062  1.00  0.00     0.043 A 
HETATM    7  C6  UNK     1      18.861   5.183  31.280  1.00  0.00     0.083 A 
HETATM    8  C10 UNK     1      18.226   2.850  31.468  1.00  0.00     0.018 A 
HETATM    9  C11 UNK     1      19.025   5.028  29.903  1.00  0.00     0.038 A 
HETATM   10  C14 UNK     1      18.373   2.706  30.088  1.00  0.00     0.001 A 
HETATM   11  C15 UNK     1      18.777   3.791  29.307  1.00  0.00     0.003 A 
ENDROOT
BRANCH   3  12
HETATM   12  C3  UNK     1      18.823   8.048  33.532  1.00  0.00     0.008 A 
HETATM   13  C7  UNK     1      17.942   9.124  33.409  1.00  0.00     0.110 A 
HETATM   14  C9  UNK     1      18.312  10.387  33.871  1.00  0.00     0.102 A 
HETATM   15  C13 UNK     1      19.564  10.575  34.456  1.00  0.00     0.039 A 
HETATM   16  C12 UNK     1      20.446   9.501  34.579  1.00  0.00     0.003 A 
HETATM   17  C8  UNK     1      20.075   8.238  34.118  1.00  0.00     0.013 A 
BRANCH  13  18
HETATM   18  O2  UNK     1      16.717   8.943  32.837  1.00  0.00    -0.352 OA
HETATM   19  C16 UNK     1      15.627   8.668  33.714  1.00  0.00     0.210 C 
ENDBRANCH  13  18
BRANCH  14  20
HETATM   20  O4  UNK     1      17.461  11.444  33.756  1.00  0.00    -0.353 OA
HETATM   21  C17 UNK     1      17.877  12.677  34.340  1.00  0.00     0.210 C 
ENDBRANCH  14  20
ENDBRANCH   3  12
TORSDOF 3
ENDMDL
MODEL 4
REMARK VINA RESULT:      -7.6     21.738     24.089
REMARK  3 active torsions:
REMARK  status: ('A' for Active; 'I' for Inactive)
REMARK    1  A    between atoms: C7_11  and  O2_2 
REMARK    2  A    between atoms: C9_13  and  O4_4 
REMARK    3  A    between atoms: C1_5  and  C3_7 
ROOT
HETATM    1  O1  UNK     1      13.130   8.423   8.213  1.00  0.00    -0.340 OA
HETATM    2  O3  UNK     1      15.033   5.793  10.721  1.00  0.00    -0.292 OA
HETATM    3  C1  UNK     1      12.879   7.012   8.125  1.00  0.00     0.172 C 
HETATM    4  C2  UNK     1      13.051   6.337   9.485  1.00  0.00     0.121 C 
HETATM    5  C4  UNK     1      14.456   6.575   9.977  1.00  0.00     0.165 C 
HETATM    6  C5  UNK     1      15.077   7.851   9.565  1.00  0.00     0.043 A 
HETATM    7  C6  UNK     1      14.369   8.713   8.724  1.00  0.00     0.083 A 
HETATM    8  C10 UNK     1      16.339   8.211  10.045  1.00  0.00     0.018 A 
HETATM    9  C11 UNK     1      14.910   9.955   8.389  1.00  0.00     0.038 A 
HETATM   10  C14 UNK     1      16.884   9.445   9.690  1.00  0.00     0.001 A 
HETATM   11  C15 UNK     1      16.169  10.318   8.868  1.00  0.00     0.003 A 
ENDROOT
BRANCH   3  12
HETATM   12  C3  UNK     1      11.478   6.807   7.588  1.00  0.00     0.008 A 
HETATM   13  C7  UNK     1      10.362   7.173   8.343  1.00  0.00     0.110 A 
HETATM   14  C9  UNK     1       9.079   6.979   7.832  1.00  0.00     0.102 A 
HETATM   15  C13 UNK     1       8.910   6.418   6.566  1.00  0.00     0.039 A 
HETATM   16  C12 UNK     1      10.025   6.051   5.811  1.00  0.00     0.003 A 
HETATM   17  C8  UNK     1      11.308   6.247   6.321  1.00  0.00     0.013 A 
BRANCH  13  18
HETATM   18  O2  UNK     1      10.524   7.722   9.581  1.00  0.00    -0.352 OA
HETATM   19  C16 UNK     1      10.292   9.123   9.703  1.00  0.00     0.210 C 
ENDBRANCH  13  18
BRANCH  14  20
HETATM   20  O4  UNK     1       7.982   7.331   8.559  1.00  0.00    -0.353 OA
HETATM   21  C17 UNK     1       7.442   6.344   9.436  1.00  0.00     0.210 C 
ENDBRANCH  14  20
ENDBRANCH   3  12
TORSDOF 3
ENDMDL
MODEL 5
REMARK VINA RESULT:      -7.6      1.994      7.360
REMARK  3 active torsions:
REMARK  status: ('A' for Active; 'I' for Inactive)
REMARK    1  A    between atoms: C7_11  and  O2_2 
REMARK    2  A    between atoms: C9_13  and  O4_4 
REMARK    3  A    between atoms: C1_5  and  C3_7 
ROOT
HETATM    1  O1  UNK     1      16.895   6.678  33.046  1.00  0.00    -0.340 OA
HETATM    2  O3  UNK     1      20.050   8.918  34.411  1.00  0.00    -0.292 OA
HETATM    3  C1  UNK     1      18.241   6.363  32.658  1.00  0.00     0.172 C 
HETATM    4  C2  UNK     1      19.234   6.761  33.749  1.00  0.00     0.121 C 
HETATM    5  C4  UNK     1      19.112   8.241  34.008  1.00  0.00     0.165 C 
HETATM    6  C5  UNK     1      17.767   8.821  33.818  1.00  0.00     0.043 A 
HETATM    7  C6  UNK     1      16.728   8.001  33.368  1.00  0.00     0.083 A 
HETATM    8  C10 UNK     1      17.525  10.163  34.123  1.00  0.00     0.018 A 
HETATM    9  C11 UNK     1      15.436   8.516  33.256  1.00  0.00     0.038 A 
HETATM   10  C14 UNK     1      16.234  10.677  33.990  1.00  0.00     0.001 A 
HETATM   11  C15 UNK     1      15.191   9.855  33.563  1.00  0.00     0.003 A 
ENDROOT
BRANCH   3  12
HETATM   12  C3  UNK     1      18.320   4.880  32.364  1.00  0.00     0.008 A 
HETATM   13  C7  UNK     1      18.574   4.420  31.071  1.00  0.00     0.110 A 
HETATM   14  C9  UNK     1      18.644   3.050  30.817  1.00  0.00     0.102 A 
HETATM   15  C13 UNK     1      18.459   2.139  31.858  1.00  0.00     0.039 A 
HETATM   16  C12 UNK     1      18.204   2.597  33.150  1.00  0.00     0.003 A 
HETATM   17  C8  UNK     1      18.136   3.967  33.403  1.00  0.00     0.013 A 
BRANCH  13  18
HETATM   18  O2  UNK     1      18.755   5.308  30.052  1.00  0.00    -0.352 OA
HETATM   19  C16 UNK     1      20.035   5.929  29.954  1.00  0.00     0.210 C 
ENDBRANCH  13  18
BRANCH  14  20
HETATM   20  O4  UNK     1      18.891   2.589  29.560  1.00  0.00    -0.353 OA
HETATM   21  C17 UNK     1      17.812   1.948  28.881  1.00  0.00     0.210 C 
ENDBRANCH  14  20
ENDBRANCH   3  12
TORSDOF 3
ENDMDL
MODEL 6
REMARK VINA RESULT:      -7.6     21.401     23.358
REMARK  3 active torsions:
REMARK  status: ('A' for Active; 'I' for Inactive)
REMARK    1  A    between atoms: C7_11  and  O2_2 
REMARK    2  A    between atoms: C9_13  and  O4_4 
REMARK    3  A    between atoms: C1_5  and  C3_7 
ROOT
HETATM    1  O1  UNK     1      12.824   6.646   7.731  1.00  0.00    -0.340 OA
HETATM    2  O3  UNK     1      10.250   4.690  10.257  1.00  0.00    -0.292 OA
HETATM    3  C1  UNK     1      13.011   6.698   9.154  1.00  0.00     0.172 C 
HETATM    4  C2  UNK     1      12.491   5.427   9.823  1.00  0.00     0.121 C 
HETATM    5  C4  UNK     1      11.026   5.268   9.506  1.00  0.00     0.165 C 
HETATM    6  C5  UNK     1      10.588   5.790   8.196  1.00  0.00     0.043 A 
HETATM    7  C6  UNK     1      11.518   6.431   7.372  1.00  0.00     0.083 A 
HETATM    8  C10 UNK     1       9.271   5.609   7.766  1.00  0.00     0.018 A 
HETATM    9  C11 UNK     1      11.138   6.861   6.100  1.00  0.00     0.038 A 
HETATM   10  C14 UNK     1       8.892   6.059   6.500  1.00  0.00     0.001 A 
HETATM   11  C15 UNK     1       9.824   6.679   5.667  1.00  0.00     0.003 A 
ENDROOT
BRANCH   3  12
HETATM   12  C3  UNK     1      14.484   6.900   9.437  1.00  0.00     0.008 A 
HETATM   13  C7  UNK     1      14.973   8.149   9.824  1.00  0.00     0.110 A 
HETATM   14  C9  UNK     1      16.334   8.317  10.081  1.00  0.00     0.102 A 
HETATM   15  C13 UNK     1      17.207   7.236   9.950  1.00  0.00     0.039 A 
HETATM   16  C12 UNK     1      16.719   5.988   9.563  1.00  0.00     0.003 A 
HETATM   17  C8  UNK     1      15.358   5.820   9.307  1.00  0.00     0.013 A 
BRANCH  13  18
HETATM   18  O2  UNK     1      14.123   9.207   9.953  1.00  0.00    -0.352 OA
HETATM   19  C16 UNK     1      13.570   9.439  11.246  1.00  0.00     0.210 C 
ENDBRANCH  13  18
BRANCH  14  20
HETATM   20  O4  UNK     1      16.824   9.530  10.460  1.00  0.00    -0.353 OA
HETATM   21  C17 UNK     1      17.457  10.316   9.452  1.00  0.00     0.210 C 
ENDBRANCH  14  20
ENDBRANCH   3  12
TORSDOF 3
ENDMDL
MODEL 7
REMARK VINA RESULT:      -7.6     12.160     16.257
REMARK  3 active torsions:
REMARK  status: ('A' for Active; 'I' for Inactive)
REMARK    1  A    between atoms: C7_11  and  O2_2 
REMARK    2  A    between atoms: C9_13  and  O4_4 
REMARK    3  A    between atoms: C1_5  and  C3_7 
ROOT
HETATM    1  O1  UNK     1      19.123  -0.001  16.246  1.00  0.00    -0.340 OA
HETATM    2  O3  UNK     1      18.505  -0.066  20.301  1.00  0.00    -0.292 OA
HETATM    3  C1  UNK     1      19.401  -1.183  17.012  1.00  0.00     0.172 C 
HETATM    4  C2  UNK     1      18.484  -1.276  18.230  1.00  0.00     0.121 C 
HETATM    5  C4  UNK     1      18.683  -0.054  19.089  1.00  0.00     0.165 C 
HETATM    6  C5  UNK     1      19.036   1.189  18.373  1.00  0.00     0.043 A 
HETATM    7  C6  UNK     1      19.215   1.149  16.987  1.00  0.00     0.083 A 
HETATM    8  C10 UNK     1      19.149   2.397  19.065  1.00  0.00     0.018 A 
HETATM    9  C11 UNK     1      19.474   2.328  16.287  1.00  0.00     0.038 A 
HETATM   10  C14 UNK     1      19.428   3.570  18.361  1.00  0.00     0.001 A 
HETATM   11  C15 UNK     1      19.585   3.537  16.975  1.00  0.00     0.003 A 
ENDROOT
BRANCH   3  12
HETATM   12  C3  UNK     1      19.235  -2.388  16.110  1.00  0.00     0.008 A 
HETATM   13  C7  UNK     1      20.332  -3.176  15.760  1.00  0.00     0.110 A 
HETATM   14  C9  UNK     1      20.161  -4.283  14.929  1.00  0.00     0.102 A 
HETATM   15  C13 UNK     1      18.891  -4.603  14.447  1.00  0.00     0.039 A 
HETATM   16  C12 UNK     1      17.794  -3.815  14.795  1.00  0.00     0.003 A 
HETATM   17  C8  UNK     1      17.965  -2.709  15.627  1.00  0.00     0.013 A 
BRANCH  13  18
HETATM   18  O2  UNK     1      21.574  -2.867  16.230  1.00  0.00    -0.352 OA
HETATM   19  C16 UNK     1      21.996  -3.519  17.425  1.00  0.00     0.210 C 
ENDBRANCH  13  18
BRANCH  14  20
HETATM   20  O4  UNK     1      21.223  -5.060  14.580  1.00  0.00    -0.353 OA
HETATM   21  C17 UNK     1      21.238  -6.399  15.072  1.00  0.00     0.210 C 
ENDBRANCH  14  20
ENDBRANCH   3  12
TORSDOF 3
ENDMDL
MODEL 8
REMARK VINA RESULT:      -7.5     12.887     16.849
REMARK  3 active torsions:
REMARK  status: ('A' for Active; 'I' for Inactive)
REMARK    1  A    between atoms: C7_11  and  O2_2 
REMARK    2  A    between atoms: C9_13  and  O4_4 
REMARK    3  A    between atoms: C1_5  and  C3_7 
ROOT
HETATM    1  O1  UNK     1      19.345  -0.964  16.935  1.00  0.00    -0.340 OA
HETATM    2  O3  UNK     1      19.253   2.920  15.617  1.00  0.00    -0.292 OA
HETATM    3  C1  UNK     1      18.914  -0.651  15.602  1.00  0.00     0.172 C 
HETATM    4  C2  UNK     1      19.605   0.608  15.082  1.00  0.00     0.121 C 
HETATM    5  C4  UNK     1      19.288   1.758  16.003  1.00  0.00     0.165 C 
HETATM    6  C5  UNK     1      19.090   1.412  17.426  1.00  0.00     0.043 A 
HETATM    7  C6  UNK     1      19.152   0.070  17.815  1.00  0.00     0.083 A 
HETATM    8  C10 UNK     1      18.886   2.415  18.377  1.00  0.00     0.018 A 
HETATM    9  C11 UNK     1      19.043  -0.266  19.165  1.00  0.00     0.038 A 
HETATM   10  C14 UNK     1      18.758   2.070  19.723  1.00  0.00     0.001 A 
HETATM   11  C15 UNK     1      18.842   0.734  20.117  1.00  0.00     0.003 A 
ENDROOT
BRANCH   3  12
HETATM   12  C3  UNK     1      19.207  -1.841  14.713  1.00  0.00     0.008 A 
HETATM   13  C7  UNK     1      18.312  -2.909  14.629  1.00  0.00     0.110 A 
HETATM   14  C9  UNK     1      18.597  -3.997  13.804  1.00  0.00     0.102 A 
HETATM   15  C13 UNK     1      19.779  -4.018  13.062  1.00  0.00     0.039 A 
HETATM   16  C12 UNK     1      20.674  -2.952  13.146  1.00  0.00     0.003 A 
HETATM   17  C8  UNK     1      20.388  -1.864  13.970  1.00  0.00     0.013 A 
BRANCH  13  18
HETATM   18  O2  UNK     1      17.156  -2.891  15.352  1.00  0.00    -0.352 OA
HETATM   19  C16 UNK     1      17.085  -3.761  16.479  1.00  0.00     0.210 C 
ENDBRANCH  13  18
BRANCH  14  20
HETATM   20  O4  UNK     1      17.732  -5.045  13.714  1.00  0.00    -0.353 OA
HETATM   21  C17 UNK     1      18.293  -6.356  13.780  1.00  0.00     0.210 C 
ENDBRANCH  14  20
ENDBRANCH   3  12
TORSDOF 3
ENDMDL
MODEL 9
REMARK VINA RESULT:      -7.5      2.214      6.872
REMARK  3 active torsions:
REMARK  status: ('A' for Active; 'I' for Inactive)
REMARK    1  A    between atoms: C7_11  and  O2_2 
REMARK    2  A    between atoms: C9_13  and  O4_4 
REMARK    3  A    between atoms: C1_5  and  C3_7 
ROOT
HETATM    1  O1  UNK     1      19.088   5.603  32.815  1.00  0.00    -0.340 OA
HETATM    2  O3  UNK     1      16.449   8.061  30.858  1.00  0.00    -0.292 OA
HETATM    3  C1  UNK     1      17.972   5.057  32.094  1.00  0.00     0.172 C 
HETATM    4  C2  UNK     1      17.590   5.951  30.916  1.00  0.00     0.121 C 
HETATM    5  C4  UNK     1      17.240   7.323  31.433  1.00  0.00     0.165 C 
HETATM    6  C5  UNK     1      17.963   7.761  32.644  1.00  0.00     0.043 A 
HETATM    7  C6  UNK     1      18.864   6.883  33.254  1.00  0.00     0.083 A 
HETATM    8  C10 UNK     1      17.782   9.051  33.149  1.00  0.00     0.018 A 
HETATM    9  C11 UNK     1      19.612   7.309  34.353  1.00  0.00     0.038 A 
HETATM   10  C14 UNK     1      18.518   9.464  34.260  1.00  0.00     0.001 A 
HETATM   11  C15 UNK     1      19.435   8.598  34.858  1.00  0.00     0.003 A 
ENDROOT
BRANCH   3  12
HETATM   12  C3  UNK     1      18.340   3.665  31.626  1.00  0.00     0.008 A 
HETATM   13  C7  UNK     1      18.259   2.575  32.493  1.00  0.00     0.110 A 
HETATM   14  C9  UNK     1      18.601   1.299  32.044  1.00  0.00     0.102 A 
HETATM   15  C13 UNK     1      19.025   1.113  30.728  1.00  0.00     0.039 A 
HETATM   16  C12 UNK     1      19.107   2.202  29.861  1.00  0.00     0.003 A 
HETATM   17  C8  UNK     1      18.764   3.478  30.309  1.00  0.00     0.013 A 
BRANCH  13  18
HETATM   18  O2  UNK     1      17.845   2.753  33.780  1.00  0.00    -0.352 OA
HETATM   19  C16 UNK     1      18.845   2.696  34.795  1.00  0.00     0.210 C 
ENDBRANCH  13  18
BRANCH  14  20
HETATM   20  O4  UNK     1      18.527   0.226  32.881  1.00  0.00    -0.353 OA
HETATM   21  C17 UNK     1      18.929  -1.037  32.353  1.00  0.00     0.210 C 
ENDBRANCH  14  20
ENDBRANCH   3  12
TORSDOF 3
ENDMDL
MODEL 10
REMARK VINA RESULT:      -7.5     21.135     23.373
REMARK  3 active torsions:
REMARK  status: ('A' for Active; 'I' for Inactive)
REMARK    1  A    between atoms: C7_11  and  O2_2 
REMARK    2  A    between atoms: C9_13  and  O4_4 
REMARK    3  A    between atoms: C1_5  and  C3_7 
ROOT
HETATM    1  O1  UNK     1      11.177   7.769   9.429  1.00  0.00    -0.340 OA
HETATM    2  O3  UNK     1      12.011   6.315   5.685  1.00  0.00    -0.292 OA
HETATM    3  C1  UNK     1      12.429   7.120   9.156  1.00  0.00     0.172 C 
HETATM    4  C2  UNK     1      12.843   7.319   7.699  1.00  0.00     0.121 C 
HETATM    5  C4  UNK     1      11.770   6.756   6.802  1.00  0.00     0.165 C 
HETATM    6  C5  UNK     1      10.389   6.831   7.321  1.00  0.00     0.043 A 
HETATM    7  C6  UNK     1      10.169   7.354   8.598  1.00  0.00     0.083 A 
HETATM    8  C10 UNK     1       9.312   6.424   6.529  1.00  0.00     0.018 A 
HETATM    9  C11 UNK     1       8.864   7.503   9.072  1.00  0.00     0.038 A 
HETATM   10  C14 UNK     1       8.011   6.557   7.016  1.00  0.00     0.001 A 
HETATM   11  C15 UNK     1       7.787   7.099   8.282  1.00  0.00     0.003 A 
ENDROOT
BRANCH   3  12
HETATM   12  C3  UNK     1      13.473   7.677  10.100  1.00  0.00     0.008 A 
HETATM   13  C7  UNK     1      14.758   7.133  10.147  1.00  0.00     0.110 A 
HETATM   14  C9  UNK     1      15.708   7.658  11.023  1.00  0.00     0.102 A 
HETATM   15  C13 UNK     1      15.373   8.729  11.853  1.00  0.00     0.039 A 
HETATM   16  C12 UNK     1      14.090   9.273  11.807  1.00  0.00     0.003 A 
HETATM   17  C8  UNK     1      13.140   8.748  10.931  1.00  0.00     0.013 A 
BRANCH  13  18
HETATM   18  O2  UNK     1      15.088   6.087   9.337  1.00  0.00    -0.352 OA
HETATM   19  C16 UNK     1      14.987   4.779   9.895  1.00  0.00     0.210 C 
ENDBRANCH  13  18
BRANCH  14  20
HETATM   20  O4  UNK     1      16.964   7.136  11.078  1.00  0.00    -0.353 OA
HETATM   21  C17 UNK     1      17.859   7.487  10.024  1.00  0.00     0.210 C 
ENDBRANCH  14  20
ENDBRANCH   3  12
TORSDOF 3
ENDMDL
