MODEL 1
REMARK VINA RESULT:      -7.3      0.000      0.000
REMARK  4 active torsions:
REMARK  status: ('A' for Active; 'I' for Inactive)
REMARK    1  A    between atoms: C12_18  and  O2_4 
REMARK    2  A    between atoms: C15_21  and  O3_5 
REMARK    3  A    between atoms: C18_24  and  O4_6 
REMARK    4  A    between atoms: C3_9  and  C8_14 
ROOT
HETATM    1 Cl1  UNK     1      15.860  -9.292  12.857  1.00  0.00    -0.081 Cl
HETATM    2  O1  UNK     1      18.890  -4.973  15.453  1.00  0.00    -0.335 OA
HETATM    3  C1  UNK     1      20.256  -6.482  13.289  1.00  0.00    -0.015 C 
HETATM    4  C2  UNK     1      20.965  -5.546  14.298  1.00  0.00     0.057 C 
HETATM    5  C3  UNK     1      20.076  -4.412  14.854  1.00  0.00     0.095 C 
HETATM    6  C4  UNK     1      18.840  -6.755  13.767  1.00  0.00    -0.015 A 
HETATM    7  C5  UNK     1      20.217  -5.874  11.873  1.00  0.00     0.020 C 
HETATM    8  C6  UNK     1      21.092  -7.783  13.220  1.00  0.00     0.020 C 
HETATM    9  C7  UNK     1      18.269  -6.007  14.804  1.00  0.00     0.080 A 
HETATM   10  C9  UNK     1      20.819  -3.760  16.042  1.00  0.00     0.052 C 
HETATM   11  C10 UNK     1      18.059  -7.765  13.174  1.00  0.00     0.037 A 
HETATM   12  C11 UNK     1      16.976  -6.291  15.261  1.00  0.00     0.075 A 
HETATM   13  C14 UNK     1      16.765  -8.038  13.622  1.00  0.00     0.067 A 
HETATM   14  C15 UNK     1      16.225  -7.304  14.672  1.00  0.00     0.090 A 
ENDROOT
BRANCH   5  15
HETATM   15  C8  UNK     1      19.748  -3.285  13.868  1.00  0.00     0.011 A 
HETATM   16  C12 UNK     1      18.626  -2.480  14.056  1.00  0.00     0.077 A 
HETATM   17  C16 UNK     1      18.343  -1.459  13.150  1.00  0.00     0.075 A 
HETATM   18  C18 UNK     1      19.182  -1.243  12.057  1.00  0.00     0.090 A 
HETATM   19  C17 UNK     1      20.305  -2.050  11.871  1.00  0.00     0.068 A 
HETATM   20  C13 UNK     1      20.589  -3.071  12.777  1.00  0.00     0.039 A 
HETATM   21 Cl2  UNK     1      21.360  -1.805  10.528  1.00  0.00    -0.081 Cl
BRANCH  16  22
HETATM   22  O2  UNK     1      17.796  -2.676  15.119  1.00  0.00    -0.360 OA
HETATM   23  H16 UNK     1      16.972  -2.177  14.999  1.00  0.00     0.217 HD
ENDBRANCH  16  22
BRANCH  18  24
HETATM   24  O4  UNK     1      18.881  -0.238  11.187  1.00  0.00    -0.359 OA
HETATM   25  H18 UNK     1      18.609  -0.624  10.337  1.00  0.00     0.217 HD
ENDBRANCH  18  24
ENDBRANCH   5  15
BRANCH  14  26
HETATM   26  O3  UNK     1      14.968  -7.548  15.137  1.00  0.00    -0.359 OA
HETATM   27  H17 UNK     1      14.754  -6.875  15.805  1.00  0.00     0.217 HD
ENDBRANCH  14  26
TORSDOF 4
ENDMDL
MODEL 2
REMARK VINA RESULT:      -7.3     19.124     21.602
REMARK  4 active torsions:
REMARK  status: ('A' for Active; 'I' for Inactive)
REMARK    1  A    between atoms: C12_18  and  O2_4 
REMARK    2  A    between atoms: C15_21  and  O3_5 
REMARK    3  A    between atoms: C18_24  and  O4_6 
REMARK    4  A    between atoms: C3_9  and  C8_14 
ROOT
HETATM    1 Cl1  UNK     1      36.159  -7.623  32.302  1.00  0.00    -0.081 Cl
HETATM    2  O1  UNK     1      31.897  -8.615  28.376  1.00  0.00    -0.335 OA
HETATM    3  C1  UNK     1      32.044 -10.443  30.713  1.00  0.00    -0.015 C 
HETATM    4  C2  UNK     1      31.224 -10.715  29.428  1.00  0.00     0.057 C 
HETATM    5  C3  UNK     1      30.757  -9.443  28.685  1.00  0.00     0.095 C 
HETATM    6  C4  UNK     1      32.993  -9.283  30.466  1.00  0.00    -0.015 A 
HETATM    7  C5  UNK     1      31.135 -10.123  31.916  1.00  0.00     0.020 C 
HETATM    8  C6  UNK     1      32.815 -11.746  31.037  1.00  0.00     0.020 C 
HETATM    9  C7  UNK     1      32.866  -8.471  29.331  1.00  0.00     0.080 A 
HETATM   10  C9  UNK     1      30.220  -9.869  27.300  1.00  0.00     0.052 C 
HETATM   11  C10 UNK     1      34.024  -8.985  31.378  1.00  0.00     0.037 A 
HETATM   12  C11 UNK     1      33.769  -7.427  29.096  1.00  0.00     0.075 A 
HETATM   13  C14 UNK     1      34.914  -7.934  31.148  1.00  0.00     0.067 A 
HETATM   14  C15 UNK     1      34.791  -7.158  30.001  1.00  0.00     0.090 A 
ENDROOT
BRANCH   5  15
HETATM   15  C8  UNK     1      29.635  -8.653  29.368  1.00  0.00     0.011 A 
HETATM   16  C12 UNK     1      28.362  -9.203  29.509  1.00  0.00     0.077 A 
HETATM   17  C16 UNK     1      27.353  -8.472  30.133  1.00  0.00     0.075 A 
HETATM   18  C18 UNK     1      27.618  -7.191  30.617  1.00  0.00     0.090 A 
HETATM   19  C17 UNK     1      28.892  -6.641  30.475  1.00  0.00     0.068 A 
HETATM   20  C13 UNK     1      29.902  -7.373  29.851  1.00  0.00     0.039 A 
HETATM   21 Cl2  UNK     1      29.247  -5.059  31.064  1.00  0.00    -0.081 Cl
BRANCH  16  22
HETATM   22  O2  UNK     1      28.087 -10.454  29.043  1.00  0.00    -0.360 OA
HETATM   23  H16 UNK     1      28.739 -11.090  29.378  1.00  0.00     0.217 HD
ENDBRANCH  16  22
BRANCH  18  24
HETATM   24  O4  UNK     1      26.613  -6.497  31.223  1.00  0.00    -0.359 OA
HETATM   25  H18 UNK     1      26.438  -6.887  32.097  1.00  0.00     0.217 HD
ENDBRANCH  18  24
ENDBRANCH   5  15
BRANCH  14  26
HETATM   26  O3  UNK     1      35.646  -6.129  29.744  1.00  0.00    -0.359 OA
HETATM   27  H17 UNK     1      36.198  -6.375  28.982  1.00  0.00     0.217 HD
ENDBRANCH  14  26
TORSDOF 4
ENDMDL
MODEL 3
REMARK VINA RESULT:      -7.3     19.072     21.500
REMARK  4 active torsions:
REMARK  status: ('A' for Active; 'I' for Inactive)
REMARK    1  A    between atoms: C12_18  and  O2_4 
REMARK    2  A    between atoms: C15_21  and  O3_5 
REMARK    3  A    between atoms: C18_24  and  O4_6 
REMARK    4  A    between atoms: C3_9  and  C8_14 
ROOT
HETATM    1 Cl1  UNK     1      28.282 -11.503  28.174  1.00  0.00    -0.081 Cl
HETATM    2  O1  UNK     1      30.478  -6.290  29.774  1.00  0.00    -0.335 OA
HETATM    3  C1  UNK     1      27.868  -7.083  30.949  1.00  0.00    -0.015 C 
HETATM    4  C2  UNK     1      28.453  -5.650  30.982  1.00  0.00     0.057 C 
HETATM    5  C3  UNK     1      29.996  -5.587  30.938  1.00  0.00     0.095 C 
HETATM    6  C4  UNK     1      28.662  -7.928  29.967  1.00  0.00    -0.015 A 
HETATM    7  C5  UNK     1      27.894  -7.745  32.341  1.00  0.00     0.020 C 
HETATM    8  C6  UNK     1      26.387  -6.953  30.516  1.00  0.00     0.020 C 
HETATM    9  C7  UNK     1      29.882  -7.478  29.446  1.00  0.00     0.080 A 
HETATM   10  C9  UNK     1      30.407  -4.120  30.684  1.00  0.00     0.052 C 
HETATM   11  C10 UNK     1      28.196  -9.192  29.558  1.00  0.00     0.037 A 
HETATM   12  C11 UNK     1      30.587  -8.248  28.513  1.00  0.00     0.075 A 
HETATM   13  C14 UNK     1      28.908  -9.965  28.638  1.00  0.00     0.067 A 
HETATM   14  C15 UNK     1      30.103  -9.489  28.110  1.00  0.00     0.090 A 
ENDROOT
BRANCH   5  15
HETATM   15  C8  UNK     1      30.712  -6.030  32.219  1.00  0.00     0.011 A 
HETATM   16  C12 UNK     1      31.933  -6.700  32.155  1.00  0.00     0.077 A 
HETATM   17  C16 UNK     1      32.572  -7.095  33.329  1.00  0.00     0.075 A 
HETATM   18  C18 UNK     1      31.990  -6.820  34.566  1.00  0.00     0.090 A 
HETATM   19  C17 UNK     1      30.768  -6.149  34.628  1.00  0.00     0.068 A 
HETATM   20  C13 UNK     1      30.129  -5.753  33.454  1.00  0.00     0.039 A 
HETATM   21 Cl2  UNK     1      30.026  -5.795  36.145  1.00  0.00    -0.081 Cl
BRANCH  16  22
HETATM   22  O2  UNK     1      32.516  -6.977  30.955  1.00  0.00    -0.360 OA
HETATM   23  H16 UNK     1      32.982  -6.195  30.618  1.00  0.00     0.217 HD
ENDBRANCH  16  22
BRANCH  18  24
HETATM   24  O4  UNK     1      32.636  -7.218  35.699  1.00  0.00    -0.359 OA
HETATM   25  H18 UNK     1      33.593  -7.095  35.579  1.00  0.00     0.217 HD
ENDBRANCH  18  24
ENDBRANCH   5  15
BRANCH  14  26
HETATM   26  O3  UNK     1      30.819 -10.214  27.207  1.00  0.00    -0.359 OA
HETATM   27  H17 UNK     1      30.958  -9.666  26.416  1.00  0.00     0.217 HD
ENDBRANCH  14  26
TORSDOF 4
ENDMDL
MODEL 4
REMARK VINA RESULT:      -7.3      1.655      2.224
REMARK  4 active torsions:
REMARK  status: ('A' for Active; 'I' for Inactive)
REMARK    1  A    between atoms: C12_18  and  O2_4 
REMARK    2  A    between atoms: C15_21  and  O3_5 
REMARK    3  A    between atoms: C18_24  and  O4_6 
REMARK    4  A    between atoms: C3_9  and  C8_14 
ROOT
HETATM    1 Cl1  UNK     1      13.291  -7.462  15.734  1.00  0.00    -0.081 Cl
HETATM    2  O1  UNK     1      18.874  -5.635  15.491  1.00  0.00    -0.335 OA
HETATM    3  C1  UNK     1      17.923  -7.394  13.295  1.00  0.00    -0.015 C 
HETATM    4  C2  UNK     1      19.409  -7.072  13.590  1.00  0.00     0.057 C 
HETATM    5  C3  UNK     1      19.645  -5.708  14.274  1.00  0.00     0.095 C 
HETATM    6  C4  UNK     1      17.069  -6.945  14.468  1.00  0.00    -0.015 A 
HETATM    7  C5  UNK     1      17.433  -6.708  12.005  1.00  0.00     0.020 C 
HETATM    8  C6  UNK     1      17.829  -8.925  13.080  1.00  0.00     0.020 C 
HETATM    9  C7  UNK     1      17.595  -6.123  15.474  1.00  0.00     0.080 A 
HETATM   10  C9  UNK     1      21.111  -5.664  14.759  1.00  0.00     0.052 C 
HETATM   11  C10 UNK     1      15.721  -7.335  14.574  1.00  0.00     0.037 A 
HETATM   12  C11 UNK     1      16.810  -5.744  16.570  1.00  0.00     0.075 A 
HETATM   13  C14 UNK     1      14.936  -6.945  15.661  1.00  0.00     0.067 A 
HETATM   14  C15 UNK     1      15.483  -6.154  16.664  1.00  0.00     0.090 A 
ENDROOT
BRANCH   5  15
HETATM   15  C8  UNK     1      19.439  -4.478  13.384  1.00  0.00     0.011 A 
HETATM   16  C12 UNK     1      19.095  -3.247  13.941  1.00  0.00     0.077 A 
HETATM   17  C16 UNK     1      18.911  -2.138  13.117  1.00  0.00     0.075 A 
HETATM   18  C18 UNK     1      19.073  -2.259  11.737  1.00  0.00     0.090 A 
HETATM   19  C17 UNK     1      19.418  -3.491  11.181  1.00  0.00     0.068 A 
HETATM   20  C13 UNK     1      19.601  -4.602  12.005  1.00  0.00     0.039 A 
HETATM   21 Cl2  UNK     1      19.624  -3.670   9.477  1.00  0.00    -0.081 Cl
BRANCH  16  22
HETATM   22  O2  UNK     1      18.933  -3.110  15.287  1.00  0.00    -0.360 OA
HETATM   23  H16 UNK     1      18.324  -3.785  15.624  1.00  0.00     0.217 HD
ENDBRANCH  16  22
BRANCH  18  24
HETATM   24  O4  UNK     1      18.888  -1.158  10.955  1.00  0.00    -0.359 OA
HETATM   25  H18 UNK     1      18.288  -1.384  10.223  1.00  0.00     0.217 HD
ENDBRANCH  18  24
ENDBRANCH   5  15
BRANCH  14  26
HETATM   26  O3  UNK     1      14.747  -5.760  17.740  1.00  0.00    -0.359 OA
HETATM   27  H17 UNK     1      13.808  -5.918  17.541  1.00  0.00     0.217 HD
ENDBRANCH  14  26
TORSDOF 4
ENDMDL
MODEL 5
REMARK VINA RESULT:      -7.2     20.679     23.167
REMARK  4 active torsions:
REMARK  status: ('A' for Active; 'I' for Inactive)
REMARK    1  A    between atoms: C12_18  and  O2_4 
REMARK    2  A    between atoms: C15_21  and  O3_5 
REMARK    3  A    between atoms: C18_24  and  O4_6 
REMARK    4  A    between atoms: C3_9  and  C8_14 
ROOT
HETATM    1 Cl1  UNK     1      27.858  -9.636  28.645  1.00  0.00    -0.081 Cl
HETATM    2  O1  UNK     1      30.776  -8.378  33.591  1.00  0.00    -0.335 OA
HETATM    3  C1  UNK     1      29.217  -6.182  32.336  1.00  0.00    -0.015 C 
HETATM    4  C2  UNK     1      30.292  -5.988  33.434  1.00  0.00     0.057 C 
HETATM    5  C3  UNK     1      30.477  -7.202  34.371  1.00  0.00     0.095 C 
HETATM    6  C4  UNK     1      29.312  -7.594  31.785  1.00  0.00    -0.015 A 
HETATM    7  C5  UNK     1      27.795  -5.931  32.875  1.00  0.00     0.020 C 
HETATM    8  C6  UNK     1      29.500  -5.126  31.240  1.00  0.00     0.020 C 
HETATM    9  C7  UNK     1      30.080  -8.574  32.429  1.00  0.00     0.080 A 
HETATM   10  C9  UNK     1      31.758  -6.972  35.205  1.00  0.00     0.052 C 
HETATM   11  C10 UNK     1      28.624  -7.961  30.613  1.00  0.00     0.037 A 
HETATM   12  C11 UNK     1      30.190  -9.862  31.892  1.00  0.00     0.075 A 
HETATM   13  C14 UNK     1      28.723  -9.251  30.087  1.00  0.00     0.067 A 
HETATM   14  C15 UNK     1      29.513 -10.201  30.723  1.00  0.00     0.090 A 
ENDROOT
BRANCH   5  15
HETATM   15  C8  UNK     1      29.339  -7.445  35.370  1.00  0.00     0.011 A 
HETATM   16  C12 UNK     1      28.992  -6.469  36.303  1.00  0.00     0.077 A 
HETATM   17  C16 UNK     1      27.956  -6.706  37.204  1.00  0.00     0.075 A 
HETATM   18  C18 UNK     1      27.265  -7.917  37.171  1.00  0.00     0.090 A 
HETATM   19  C17 UNK     1      27.614  -8.893  36.237  1.00  0.00     0.068 A 
HETATM   20  C13 UNK     1      28.651  -8.657  35.335  1.00  0.00     0.039 A 
HETATM   21 Cl2  UNK     1      26.777 -10.401  36.174  1.00  0.00    -0.081 Cl
BRANCH  16  22
HETATM   22  O2  UNK     1      29.655  -5.279  36.348  1.00  0.00    -0.360 OA
HETATM   23  H16 UNK     1      30.613  -5.425  36.295  1.00  0.00     0.217 HD
ENDBRANCH  16  22
BRANCH  18  24
HETATM   24  O4  UNK     1      26.256  -8.122  38.064  1.00  0.00    -0.359 OA
HETATM   25  H18 UNK     1      26.083  -9.076  38.136  1.00  0.00     0.217 HD
ENDBRANCH  18  24
ENDBRANCH   5  15
BRANCH  14  26
HETATM   26  O3  UNK     1      29.637 -11.466  30.234  1.00  0.00    -0.359 OA
HETATM   27  H17 UNK     1      30.547 -11.768  30.394  1.00  0.00     0.217 HD
ENDBRANCH  14  26
TORSDOF 4
ENDMDL
MODEL 6
REMARK VINA RESULT:      -7.2     23.627     25.909
REMARK  4 active torsions:
REMARK  status: ('A' for Active; 'I' for Inactive)
REMARK    1  A    between atoms: C12_18  and  O2_4 
REMARK    2  A    between atoms: C15_21  and  O3_5 
REMARK    3  A    between atoms: C18_24  and  O4_6 
REMARK    4  A    between atoms: C3_9  and  C8_14 
ROOT
HETATM    1 Cl1  UNK     1      25.754  -7.540  38.715  1.00  0.00    -0.081 Cl
HETATM    2  O1  UNK     1      31.303  -5.974  37.568  1.00  0.00    -0.335 OA
HETATM    3  C1  UNK     1      30.699  -8.882  37.642  1.00  0.00    -0.015 C 
HETATM    4  C2  UNK     1      32.123  -8.274  37.678  1.00  0.00     0.057 C 
HETATM    5  C3  UNK     1      32.248  -6.897  36.988  1.00  0.00     0.095 C 
HETATM    6  C4  UNK     1      29.677  -7.784  37.884  1.00  0.00    -0.015 A 
HETATM    7  C5  UNK     1      30.406  -9.575  36.296  1.00  0.00     0.020 C 
HETATM    8  C6  UNK     1      30.644  -9.962  38.750  1.00  0.00     0.020 C 
HETATM    9  C7  UNK     1      30.043  -6.432  37.844  1.00  0.00     0.080 A 
HETATM   10  C9  UNK     1      33.625  -6.301  37.358  1.00  0.00     0.052 C 
HETATM   11  C10 UNK     1      28.330  -8.095  38.148  1.00  0.00     0.037 A 
HETATM   12  C11 UNK     1      29.101  -5.430  38.105  1.00  0.00     0.075 A 
HETATM   13  C14 UNK     1      27.389  -7.093  38.394  1.00  0.00     0.067 A 
HETATM   14  C15 UNK     1      27.777  -5.758  38.379  1.00  0.00     0.090 A 
ENDROOT
BRANCH   5  15
HETATM   15  C8  UNK     1      32.174  -6.916  35.457  1.00  0.00     0.011 A 
HETATM   16  C12 UNK     1      33.061  -7.692  34.712  1.00  0.00     0.077 A 
HETATM   17  C16 UNK     1      32.980  -7.699  33.321  1.00  0.00     0.075 A 
HETATM   18  C18 UNK     1      32.012  -6.930  32.675  1.00  0.00     0.090 A 
HETATM   19  C17 UNK     1      31.125  -6.154  33.422  1.00  0.00     0.068 A 
HETATM   20  C13 UNK     1      31.206  -6.147  34.814  1.00  0.00     0.039 A 
HETATM   21 Cl2  UNK     1      29.918  -5.193  32.649  1.00  0.00    -0.081 Cl
BRANCH  16  22
HETATM   22  O2  UNK     1      34.012  -8.450  35.327  1.00  0.00    -0.360 OA
HETATM   23  H16 UNK     1      34.176  -9.261  34.820  1.00  0.00     0.217 HD
ENDBRANCH  16  22
BRANCH  18  24
HETATM   24  O4  UNK     1      31.955  -6.955  31.313  1.00  0.00    -0.359 OA
HETATM   25  H18 UNK     1      31.123  -6.544  31.021  1.00  0.00     0.217 HD
ENDBRANCH  18  24
ENDBRANCH   5  15
BRANCH  14  26
HETATM   26  O3  UNK     1      26.886  -4.756  38.621  1.00  0.00    -0.359 OA
HETATM   27  H17 UNK     1      26.242  -4.739  37.892  1.00  0.00     0.217 HD
ENDBRANCH  14  26
TORSDOF 4
ENDMDL
MODEL 7
REMARK VINA RESULT:      -7.2     24.010     25.831
REMARK  4 active torsions:
REMARK  status: ('A' for Active; 'I' for Inactive)
REMARK    1  A    between atoms: C12_18  and  O2_4 
REMARK    2  A    between atoms: C15_21  and  O3_5 
REMARK    3  A    between atoms: C18_24  and  O4_6 
REMARK    4  A    between atoms: C3_9  and  C8_14 
ROOT
HETATM    1 Cl1  UNK     1      24.979 -10.001  36.824  1.00  0.00    -0.081 Cl
HETATM    2  O1  UNK     1      30.640  -8.731  37.777  1.00  0.00    -0.335 OA
HETATM    3  C1  UNK     1      29.715  -8.786  34.954  1.00  0.00    -0.015 C 
HETATM    4  C2  UNK     1      31.199  -8.792  35.399  1.00  0.00     0.057 C 
HETATM    5  C3  UNK     1      31.461  -8.116  36.763  1.00  0.00     0.095 C 
HETATM    6  C4  UNK     1      28.829  -9.067  36.155  1.00  0.00    -0.015 A 
HETATM    7  C5  UNK     1      29.314  -7.440  34.318  1.00  0.00     0.020 C 
HETATM    8  C6  UNK     1      29.566  -9.882  33.871  1.00  0.00     0.020 C 
HETATM    9  C7  UNK     1      29.343  -9.034  37.458  1.00  0.00     0.080 A 
HETATM   10  C9  UNK     1      32.905  -8.458  37.195  1.00  0.00     0.052 C 
HETATM   11  C10 UNK     1      27.462  -9.361  35.993  1.00  0.00     0.037 A 
HETATM   12  C11 UNK     1      28.526  -9.331  38.556  1.00  0.00     0.075 A 
HETATM   13  C14 UNK     1      26.646  -9.643  37.090  1.00  0.00     0.067 A 
HETATM   14  C15 UNK     1      27.180  -9.635  38.373  1.00  0.00     0.090 A 
ENDROOT
BRANCH   5  15
HETATM   15  C8  UNK     1      31.348  -6.587  36.774  1.00  0.00     0.011 A 
HETATM   16  C12 UNK     1      31.995  -5.819  35.807  1.00  0.00     0.077 A 
HETATM   17  C16 UNK     1      31.882  -4.430  35.832  1.00  0.00     0.075 A 
HETATM   18  C18 UNK     1      31.122  -3.810  36.822  1.00  0.00     0.090 A 
HETATM   19  C17 UNK     1      30.475  -4.580  37.790  1.00  0.00     0.068 A 
HETATM   20  C13 UNK     1      30.587  -5.969  37.765  1.00  0.00     0.039 A 
HETATM   21 Cl2  UNK     1      29.527  -3.838  39.026  1.00  0.00    -0.081 Cl
BRANCH  16  22
HETATM   22  O2  UNK     1      32.742  -6.409  34.832  1.00  0.00    -0.360 OA
HETATM   23  H16 UNK     1      33.685  -6.366  35.056  1.00  0.00     0.217 HD
ENDBRANCH  16  22
BRANCH  18  24
HETATM   24  O4  UNK     1      31.028  -2.450  36.823  1.00  0.00    -0.359 OA
HETATM   25  H18 UNK     1      31.885  -2.071  36.561  1.00  0.00     0.217 HD
ENDBRANCH  18  24
ENDBRANCH   5  15
BRANCH  14  26
HETATM   26  O3  UNK     1      26.413  -9.910  39.465  1.00  0.00    -0.359 OA
HETATM   27  H17 UNK     1      25.708  -9.242  39.519  1.00  0.00     0.217 HD
ENDBRANCH  14  26
TORSDOF 4
ENDMDL
MODEL 8
REMARK VINA RESULT:      -7.1     21.967     24.440
REMARK  4 active torsions:
REMARK  status: ('A' for Active; 'I' for Inactive)
REMARK    1  A    between atoms: C12_18  and  O2_4 
REMARK    2  A    between atoms: C15_21  and  O3_5 
REMARK    3  A    between atoms: C18_24  and  O4_6 
REMARK    4  A    between atoms: C3_9  and  C8_14 
ROOT
HETATM    1 Cl1  UNK     1      31.580  -6.412  29.298  1.00  0.00    -0.081 Cl
HETATM    2  O1  UNK     1      28.596  -6.466  34.363  1.00  0.00    -0.335 OA
HETATM    3  C1  UNK     1      30.286  -8.832  33.756  1.00  0.00    -0.015 C 
HETATM    4  C2  UNK     1      29.193  -8.784  34.852  1.00  0.00     0.057 C 
HETATM    5  C3  UNK     1      28.929  -7.376  35.431  1.00  0.00     0.095 C 
HETATM    6  C4  UNK     1      30.140  -7.623  32.848  1.00  0.00    -0.015 A 
HETATM    7  C5  UNK     1      31.704  -8.859  34.360  1.00  0.00     0.020 C 
HETATM    8  C6  UNK     1      30.080 -10.154  32.975  1.00  0.00     0.020 C 
HETATM    9  C7  UNK     1      29.312  -6.549  33.199  1.00  0.00     0.080 A 
HETATM   10  C9  UNK     1      27.639  -7.443  36.279  1.00  0.00     0.052 C 
HETATM   11  C10 UNK     1      30.841  -7.544  31.630  1.00  0.00     0.037 A 
HETATM   12  C11 UNK     1      29.157  -5.455  32.338  1.00  0.00     0.075 A 
HETATM   13  C14 UNK     1      30.696  -6.446  30.779  1.00  0.00     0.067 A 
HETATM   14  C15 UNK     1      29.847  -5.403  31.131  1.00  0.00     0.090 A 
ENDROOT
BRANCH   5  15
HETATM   15  C8  UNK     1      30.028  -6.821  36.344  1.00  0.00     0.011 A 
HETATM   16  C12 UNK     1      30.499  -7.566  37.423  1.00  0.00     0.077 A 
HETATM   17  C16 UNK     1      31.499  -7.046  38.244  1.00  0.00     0.075 A 
HETATM   18  C18 UNK     1      32.028  -5.782  37.984  1.00  0.00     0.090 A 
HETATM   19  C17 UNK     1      31.555  -5.037  36.903  1.00  0.00     0.068 A 
HETATM   20  C13 UNK     1      30.554  -5.557  36.082  1.00  0.00     0.039 A 
HETATM   21 Cl2  UNK     1      32.190  -3.470  36.559  1.00  0.00    -0.081 Cl
BRANCH  16  22
HETATM   22  O2  UNK     1      29.995  -8.803  37.691  1.00  0.00    -0.360 OA
HETATM   23  H16 UNK     1      29.762  -9.258  36.867  1.00  0.00     0.217 HD
ENDBRANCH  16  22
BRANCH  18  24
HETATM   24  O4  UNK     1      33.005  -5.298  38.802  1.00  0.00    -0.359 OA
HETATM   25  H18 UNK     1      33.853  -5.311  38.328  1.00  0.00     0.217 HD
ENDBRANCH  18  24
ENDBRANCH   5  15
BRANCH  14  26
HETATM   26  O3  UNK     1      29.679  -4.320  30.322  1.00  0.00    -0.359 OA
HETATM   27  H17 UNK     1      28.840  -4.426  29.841  1.00  0.00     0.217 HD
ENDBRANCH  14  26
TORSDOF 4
ENDMDL
MODEL 9
REMARK VINA RESULT:      -7.1     21.674     24.010
REMARK  4 active torsions:
REMARK  status: ('A' for Active; 'I' for Inactive)
REMARK    1  A    between atoms: C12_18  and  O2_4 
REMARK    2  A    between atoms: C15_21  and  O3_5 
REMARK    3  A    between atoms: C18_24  and  O4_6 
REMARK    4  A    between atoms: C3_9  and  C8_14 
ROOT
HETATM    1 Cl1  UNK     1      28.223  -6.330  39.396  1.00  0.00    -0.081 Cl
HETATM    2  O1  UNK     1      31.819  -6.081  34.751  1.00  0.00    -0.335 OA
HETATM    3  C1  UNK     1      30.445  -8.663  35.270  1.00  0.00    -0.015 C 
HETATM    4  C2  UNK     1      31.651  -8.480  34.317  1.00  0.00     0.057 C 
HETATM    5  C3  UNK     1      31.771  -7.068  33.700  1.00  0.00     0.095 C 
HETATM    6  C4  UNK     1      30.284  -7.416  36.122  1.00  0.00    -0.015 A 
HETATM    7  C5  UNK     1      29.139  -8.935  34.496  1.00  0.00     0.020 C 
HETATM    8  C6  UNK     1      30.745  -9.909  36.140  1.00  0.00     0.020 C 
HETATM    9  C7  UNK     1      30.977  -6.237  35.819  1.00  0.00     0.080 A 
HETATM   10  C9  UNK     1      33.156  -6.958  33.024  1.00  0.00     0.052 C 
HETATM   11  C10 UNK     1      29.425  -7.408  37.238  1.00  0.00     0.037 A 
HETATM   12  C11 UNK     1      30.849  -5.105  36.633  1.00  0.00     0.075 A 
HETATM   13  C14 UNK     1      29.288  -6.273  38.040  1.00  0.00     0.067 A 
HETATM   14  C15 UNK     1      30.007  -5.122  37.741  1.00  0.00     0.090 A 
ENDROOT
BRANCH   5  15
HETATM   15  C8  UNK     1      30.730  -6.724  32.630  1.00  0.00     0.011 A 
HETATM   16  C12 UNK     1      30.332  -5.405  32.423  1.00  0.00     0.077 A 
HETATM   17  C16 UNK     1      29.384  -5.109  31.445  1.00  0.00     0.075 A 
HETATM   18  C18 UNK     1      28.835  -6.132  30.673  1.00  0.00     0.090 A 
HETATM   19  C17 UNK     1      29.234  -7.453  30.881  1.00  0.00     0.068 A 
HETATM   20  C13 UNK     1      30.183  -7.749  31.860  1.00  0.00     0.039 A 
HETATM   21 Cl2  UNK     1      28.572  -8.739  29.941  1.00  0.00    -0.081 Cl
BRANCH  16  22
HETATM   22  O2  UNK     1      30.858  -4.392  33.167  1.00  0.00    -0.360 OA
HETATM   23  H16 UNK     1      31.693  -4.086  32.778  1.00  0.00     0.217 HD
ENDBRANCH  16  22
BRANCH  18  24
HETATM   24  O4  UNK     1      27.910  -5.815  29.724  1.00  0.00    -0.359 OA
HETATM   25  H18 UNK     1      27.070  -6.256  29.937  1.00  0.00     0.217 HD
ENDBRANCH  18  24
ENDBRANCH   5  15
BRANCH  14  26
HETATM   26  O3  UNK     1      29.900  -3.999  38.505  1.00  0.00    -0.359 OA
HETATM   27  H17 UNK     1      30.589  -4.031  39.191  1.00  0.00     0.217 HD
ENDBRANCH  14  26
TORSDOF 4
ENDMDL
MODEL 10
REMARK VINA RESULT:      -7.1     23.008     25.350
REMARK  4 active torsions:
REMARK  status: ('A' for Active; 'I' for Inactive)
REMARK    1  A    between atoms: C12_18  and  O2_4 
REMARK    2  A    between atoms: C15_21  and  O3_5 
REMARK    3  A    between atoms: C18_24  and  O4_6 
REMARK    4  A    between atoms: C3_9  and  C8_14 
ROOT
HETATM    1 Cl1  UNK     1      30.328  -7.642  30.495  1.00  0.00    -0.081 Cl
HETATM    2  O1  UNK     1      30.026  -9.390  36.101  1.00  0.00    -0.335 OA
HETATM    3  C1  UNK     1      31.905  -7.178  35.466  1.00  0.00    -0.015 C 
HETATM    4  C2  UNK     1      31.907  -7.989  36.785  1.00  0.00     0.057 C 
HETATM    5  C3  UNK     1      30.534  -8.576  37.178  1.00  0.00     0.095 C 
HETATM    6  C4  UNK     1      31.029  -7.884  34.444  1.00  0.00    -0.015 A 
HETATM    7  C5  UNK     1      31.396  -5.739  35.679  1.00  0.00     0.020 C 
HETATM    8  C6  UNK     1      33.375  -7.093  34.989  1.00  0.00     0.020 C 
HETATM    9  C7  UNK     1      30.176  -8.929  34.821  1.00  0.00     0.080 A 
HETATM   10  C9  UNK     1      30.756  -9.582  38.331  1.00  0.00     0.052 C 
HETATM   11  C10 UNK     1      31.045  -7.500  33.090  1.00  0.00     0.037 A 
HETATM   12  C11 UNK     1      29.400  -9.596  33.865  1.00  0.00     0.075 A 
HETATM   13  C14 UNK     1      30.260  -8.157  32.140  1.00  0.00     0.067 A 
HETATM   14  C15 UNK     1      29.441  -9.212  32.527  1.00  0.00     0.090 A 
ENDROOT
BRANCH   5  15
HETATM   15  C8  UNK     1      29.498  -7.561  37.674  1.00  0.00     0.011 A 
HETATM   16  C12 UNK     1      28.134  -7.816  37.546  1.00  0.00     0.077 A 
HETATM   17  C16 UNK     1      27.205  -6.882  38.002  1.00  0.00     0.075 A 
HETATM   18  C18 UNK     1      27.641  -5.693  38.587  1.00  0.00     0.090 A 
HETATM   19  C17 UNK     1      29.007  -5.439  38.714  1.00  0.00     0.068 A 
HETATM   20  C13 UNK     1      29.937  -6.373  38.258  1.00  0.00     0.039 A 
HETATM   21 Cl2  UNK     1      29.574  -3.977  39.434  1.00  0.00    -0.081 Cl
BRANCH  16  22
HETATM   22  O2  UNK     1      27.690  -8.973  36.977  1.00  0.00    -0.360 OA
HETATM   23  H16 UNK     1      28.108  -9.739  37.402  1.00  0.00     0.217 HD
ENDBRANCH  16  22
BRANCH  18  24
HETATM   24  O4  UNK     1      26.711  -4.797  39.024  1.00  0.00    -0.359 OA
HETATM   25  H18 UNK     1      27.147  -4.137  39.589  1.00  0.00     0.217 HD
ENDBRANCH  18  24
ENDBRANCH   5  15
BRANCH  14  26
HETATM   26  O3  UNK     1      28.667  -9.879  31.626  1.00  0.00    -0.359 OA
HETATM   27  H17 UNK     1      28.682 -10.825  31.851  1.00  0.00     0.217 HD
ENDBRANCH  14  26
TORSDOF 4
ENDMDL
