MODEL 1
REMARK VINA RESULT:      -7.3      0.000      0.000
REMARK  4 active torsions:
REMARK  status: ('A' for Active; 'I' for Inactive)
REMARK    1  A    between atoms: C10_15  and  O2_2 
REMARK    2  A    between atoms: C3_8  and  O2_2 
REMARK    3  A    between atoms: C11_16  and  O4_4 
REMARK    4  A    between atoms: C10_15  and  C11_16 
ROOT
HETATM    1  O1  UNK     1      16.765   6.298  33.643  1.00  0.00    -0.322 OA
HETATM    2  O3  UNK     1      20.101   8.496  34.479  1.00  0.00    -0.287 OA
HETATM    3  C1  UNK     1      19.080   6.841  33.129  1.00  0.00     0.048 A 
HETATM    4  C2  UNK     1      17.905   6.122  32.897  1.00  0.00     0.091 A 
HETATM    5  C3  UNK     1      18.983   4.959  31.077  1.00  0.00     0.072 A 
HETATM    6  C4  UNK     1      17.856   5.180  31.870  1.00  0.00     0.075 A 
HETATM    7  C5  UNK     1      20.210   6.622  32.338  1.00  0.00     0.021 A 
HETATM    8  C6  UNK     1      20.156   5.679  31.311  1.00  0.00     0.038 A 
HETATM    9  C7  UNK     1      19.106   7.832  34.221  1.00  0.00     0.186 A 
HETATM   10  C8  UNK     1      17.857   7.983  34.991  1.00  0.00     0.080 A 
HETATM   11  C9  UNK     1      16.809   7.227  34.656  1.00  0.00     0.146 A 
ENDROOT
BRANCH   5  12
HETATM   12  O2  UNK     1      18.939   4.040  30.074  1.00  0.00    -0.341 OA
BRANCH  12  13
HETATM   13  C10 UNK     1      18.432   2.746  30.400  1.00  0.00     0.285 C 
BRANCH  13  14
HETATM   14  C11 UNK     1      18.072   2.009  29.140  1.00  0.00     0.164 C 
HETATM   15  O5  UNK     1      17.904   2.514  28.040  1.00  0.00    -0.648 OA
BRANCH  14  16
HETATM   16  O4  UNK     1      17.955   0.681  29.392  1.00  0.00    -0.775 OA
HETATM   17  H8  UNK     1      18.474   0.141  28.758  1.00  0.00     0.167 HD
ENDBRANCH  14  16
ENDBRANCH  13  14
ENDBRANCH  12  13
ENDBRANCH   5  12
TORSDOF 4
ENDMDL
MODEL 2
REMARK VINA RESULT:      -7.2      2.841      6.928
REMARK  4 active torsions:
REMARK  status: ('A' for Active; 'I' for Inactive)
REMARK    1  A    between atoms: C10_15  and  O2_2 
REMARK    2  A    between atoms: C3_8  and  O2_2 
REMARK    3  A    between atoms: C11_16  and  O4_4 
REMARK    4  A    between atoms: C10_15  and  C11_16 
ROOT
HETATM    1  O1  UNK     1      20.270  -0.098  31.480  1.00  0.00    -0.322 OA
HETATM    2  O3  UNK     1      19.437  -0.879  27.563  1.00  0.00    -0.287 OA
HETATM    3  C1  UNK     1      19.165   0.566  29.418  1.00  0.00     0.048 A 
HETATM    4  C2  UNK     1      19.488   0.773  30.761  1.00  0.00     0.091 A 
HETATM    5  C3  UNK     1      18.214   2.823  30.746  1.00  0.00     0.072 A 
HETATM    6  C4  UNK     1      19.013   1.903  31.426  1.00  0.00     0.075 A 
HETATM    7  C5  UNK     1      18.366   1.486  28.734  1.00  0.00     0.021 A 
HETATM    8  C6  UNK     1      17.893   2.614  29.403  1.00  0.00     0.038 A 
HETATM    9  C7  UNK     1      19.681  -0.636  28.737  1.00  0.00     0.186 A 
HETATM   10  C8  UNK     1      20.516  -1.537  29.554  1.00  0.00     0.080 A 
HETATM   11  C9  UNK     1      20.742  -1.212  30.829  1.00  0.00     0.146 A 
ENDROOT
BRANCH   5  12
HETATM   12  O2  UNK     1      17.748   3.927  31.392  1.00  0.00    -0.341 OA
BRANCH  12  13
HETATM   13  C10 UNK     1      18.717   4.866  31.855  1.00  0.00     0.285 C 
BRANCH  13  14
HETATM   14  C11 UNK     1      19.323   5.592  30.684  1.00  0.00     0.164 C 
HETATM   15  O5  UNK     1      18.710   6.256  29.862  1.00  0.00    -0.648 OA
BRANCH  14  16
HETATM   16  O4  UNK     1      20.666   5.407  30.663  1.00  0.00    -0.775 OA
HETATM   17  H8  UNK     1      20.999   5.043  31.512  1.00  0.00     0.167 HD
ENDBRANCH  14  16
ENDBRANCH  13  14
ENDBRANCH  12  13
ENDBRANCH   5  12
TORSDOF 4
ENDMDL
MODEL 3
REMARK VINA RESULT:      -6.9      2.637      6.994
REMARK  4 active torsions:
REMARK  status: ('A' for Active; 'I' for Inactive)
REMARK    1  A    between atoms: C10_15  and  O2_2 
REMARK    2  A    between atoms: C3_8  and  O2_2 
REMARK    3  A    between atoms: C11_16  and  O4_4 
REMARK    4  A    between atoms: C10_15  and  C11_16 
ROOT
HETATM    1  O1  UNK     1      19.655  -0.565  32.172  1.00  0.00    -0.322 OA
HETATM    2  O3  UNK     1      20.132  -0.622  28.120  1.00  0.00    -0.287 OA
HETATM    3  C1  UNK     1      19.382   0.555  30.031  1.00  0.00     0.048 A 
HETATM    4  C2  UNK     1      19.247   0.510  31.421  1.00  0.00     0.091 A 
HETATM    5  C3  UNK     1      18.249   2.707  31.391  1.00  0.00     0.072 A 
HETATM    6  C4  UNK     1      18.681   1.587  32.102  1.00  0.00     0.075 A 
HETATM    7  C5  UNK     1      18.951   1.676  29.317  1.00  0.00     0.021 A 
HETATM    8  C6  UNK     1      18.385   2.751  30.002  1.00  0.00     0.038 A 
HETATM    9  C7  UNK     1      19.984  -0.596  29.334  1.00  0.00     0.186 A 
HETATM   10  C8  UNK     1      20.406  -1.723  30.187  1.00  0.00     0.080 A 
HETATM   11  C9  UNK     1      20.215  -1.628  31.505  1.00  0.00     0.146 A 
ENDROOT
BRANCH   5  12
HETATM   12  O2  UNK     1      17.696   3.761  32.052  1.00  0.00    -0.341 OA
BRANCH  12  13
HETATM   13  C10 UNK     1      18.350   5.022  31.927  1.00  0.00     0.285 C 
BRANCH  13  14
HETATM   14  C11 UNK     1      18.944   5.421  33.250  1.00  0.00     0.164 C 
HETATM   15  O5  UNK     1      19.888   6.180  33.409  1.00  0.00    -0.648 OA
BRANCH  14  16
HETATM   16  O4  UNK     1      18.279   4.814  34.263  1.00  0.00    -0.775 OA
HETATM   17  H8  UNK     1      18.763   4.885  35.114  1.00  0.00     0.167 HD
ENDBRANCH  14  16
ENDBRANCH  13  14
ENDBRANCH  12  13
ENDBRANCH   5  12
TORSDOF 4
ENDMDL
MODEL 4
REMARK VINA RESULT:      -6.8     22.332     24.733
REMARK  4 active torsions:
REMARK  status: ('A' for Active; 'I' for Inactive)
REMARK    1  A    between atoms: C10_15  and  O2_2 
REMARK    2  A    between atoms: C3_8  and  O2_2 
REMARK    3  A    between atoms: C11_16  and  O4_4 
REMARK    4  A    between atoms: C10_15  and  C11_16 
ROOT
HETATM    1  O1  UNK     1      12.074   6.568   6.003  1.00  0.00    -0.322 OA
HETATM    2  O3  UNK     1       9.274   5.418   8.739  1.00  0.00    -0.287 OA
HETATM    3  C1  UNK     1      11.564   5.715   8.223  1.00  0.00     0.048 A 
HETATM    4  C2  UNK     1      12.470   6.123   7.240  1.00  0.00     0.091 A 
HETATM    5  C3  UNK     1      14.301   5.647   8.739  1.00  0.00     0.072 A 
HETATM    6  C4  UNK     1      13.840   6.089   7.499  1.00  0.00     0.075 A 
HETATM    7  C5  UNK     1      12.023   5.272   9.466  1.00  0.00     0.021 A 
HETATM    8  C6  UNK     1      13.394   5.240   9.720  1.00  0.00     0.038 A 
HETATM    9  C7  UNK     1      10.121   5.760   7.926  1.00  0.00     0.186 A 
HETATM   10  C8  UNK     1       9.749   6.247   6.583  1.00  0.00     0.080 A 
HETATM   11  C9  UNK     1      10.724   6.604   5.745  1.00  0.00     0.146 A 
ENDROOT
BRANCH   5  12
HETATM   12  O2  UNK     1      15.638   5.612   8.995  1.00  0.00    -0.341 OA
BRANCH  12  13
HETATM   13  C10 UNK     1      16.100   6.341  10.131  1.00  0.00     0.285 C 
BRANCH  13  14
HETATM   14  C11 UNK     1      17.367   7.073   9.785  1.00  0.00     0.164 C 
HETATM   15  O5  UNK     1      17.583   8.260   9.983  1.00  0.00    -0.648 OA
BRANCH  14  16
HETATM   16  O4  UNK     1      18.257   6.224   9.213  1.00  0.00    -0.775 OA
HETATM   17  H8  UNK     1      19.161   6.605   9.186  1.00  0.00     0.167 HD
ENDBRANCH  14  16
ENDBRANCH  13  14
ENDBRANCH  12  13
ENDBRANCH   5  12
TORSDOF 4
ENDMDL
MODEL 5
REMARK VINA RESULT:      -6.7     18.435     19.670
REMARK  4 active torsions:
REMARK  status: ('A' for Active; 'I' for Inactive)
REMARK    1  A    between atoms: C10_15  and  O2_2 
REMARK    2  A    between atoms: C3_8  and  O2_2 
REMARK    3  A    between atoms: C11_16  and  O4_4 
REMARK    4  A    between atoms: C10_15  and  C11_16 
ROOT
HETATM    1  O1  UNK     1      17.863  -2.708  13.835  1.00  0.00    -0.322 OA
HETATM    2  O3  UNK     1      21.887  -2.861  14.495  1.00  0.00    -0.287 OA
HETATM    3  C1  UNK     1      19.774  -3.894  14.761  1.00  0.00     0.048 A 
HETATM    4  C2  UNK     1      18.406  -3.779  14.503  1.00  0.00     0.091 A 
HETATM    5  C3  UNK     1      18.025  -5.890  15.608  1.00  0.00     0.072 A 
HETATM    6  C4  UNK     1      17.530  -4.778  14.926  1.00  0.00     0.075 A 
HETATM    7  C5  UNK     1      20.272  -5.006  15.444  1.00  0.00     0.021 A 
HETATM    8  C6  UNK     1      19.393  -6.003  15.866  1.00  0.00     0.038 A 
HETATM    9  C7  UNK     1      20.680  -2.825  14.303  1.00  0.00     0.186 A 
HETATM   10  C8  UNK     1      20.046  -1.698  13.591  1.00  0.00     0.080 A 
HETATM   11  C9  UNK     1      18.723  -1.722  13.415  1.00  0.00     0.146 A 
ENDROOT
BRANCH   5  12
HETATM   12  O2  UNK     1      17.173  -6.868  16.024  1.00  0.00    -0.341 OA
BRANCH  12  13
HETATM   13  C10 UNK     1      15.867  -6.461  16.429  1.00  0.00     0.285 C 
BRANCH  13  14
HETATM   14  C11 UNK     1      15.838  -6.253  17.919  1.00  0.00     0.164 C 
HETATM   15  O5  UNK     1      16.123  -7.090  18.762  1.00  0.00    -0.648 OA
BRANCH  14  16
HETATM   16  O4  UNK     1      15.445  -4.988  18.207  1.00  0.00    -0.775 OA
HETATM   17  H8  UNK     1      15.291  -4.862  19.168  1.00  0.00     0.167 HD
ENDBRANCH  14  16
ENDBRANCH  13  14
ENDBRANCH  12  13
ENDBRANCH   5  12
TORSDOF 4
ENDMDL
MODEL 6
REMARK VINA RESULT:      -6.7      5.906      8.809
REMARK  4 active torsions:
REMARK  status: ('A' for Active; 'I' for Inactive)
REMARK    1  A    between atoms: C10_15  and  O2_2 
REMARK    2  A    between atoms: C3_8  and  O2_2 
REMARK    3  A    between atoms: C11_16  and  O4_4 
REMARK    4  A    between atoms: C10_15  and  C11_16 
ROOT
HETATM    1  O1  UNK     1      20.927  -1.590  29.872  1.00  0.00    -0.322 OA
HETATM    2  O3  UNK     1      18.285   1.437  30.584  1.00  0.00    -0.287 OA
HETATM    3  C1  UNK     1      19.442  -0.449  31.424  1.00  0.00     0.048 A 
HETATM    4  C2  UNK     1      20.354  -1.462  31.113  1.00  0.00     0.091 A 
HETATM    5  C3  UNK     1      20.166  -2.314  33.363  1.00  0.00     0.072 A 
HETATM    6  C4  UNK     1      20.716  -2.395  32.083  1.00  0.00     0.075 A 
HETATM    7  C5  UNK     1      18.890  -0.365  32.704  1.00  0.00     0.021 A 
HETATM    8  C6  UNK     1      19.255  -1.301  33.672  1.00  0.00     0.038 A 
HETATM    9  C7  UNK     1      19.076   0.526  30.380  1.00  0.00     0.186 A 
HETATM   10  C8  UNK     1      19.721   0.344  29.066  1.00  0.00     0.080 A 
HETATM   11  C9  UNK     1      20.574  -0.671  28.912  1.00  0.00     0.146 A 
ENDROOT
BRANCH   5  12
HETATM   12  O2  UNK     1      20.517  -3.223  34.314  1.00  0.00    -0.341 OA
BRANCH  12  13
HETATM   13  C10 UNK     1      20.070  -2.975  35.646  1.00  0.00     0.285 C 
BRANCH  13  14
HETATM   14  C11 UNK     1      19.884  -4.279  36.371  1.00  0.00     0.164 C 
HETATM   15  O5  UNK     1      20.771  -5.069  36.659  1.00  0.00    -0.648 OA
BRANCH  14  16
HETATM   16  O4  UNK     1      18.574  -4.465  36.669  1.00  0.00    -0.775 OA
HETATM   17  H8  UNK     1      18.339  -4.082  37.542  1.00  0.00     0.167 HD
ENDBRANCH  14  16
ENDBRANCH  13  14
ENDBRANCH  12  13
ENDBRANCH   5  12
TORSDOF 4
ENDMDL
MODEL 7
REMARK VINA RESULT:      -6.7     23.167     25.347
REMARK  4 active torsions:
REMARK  status: ('A' for Active; 'I' for Inactive)
REMARK    1  A    between atoms: C10_15  and  O2_2 
REMARK    2  A    between atoms: C3_8  and  O2_2 
REMARK    3  A    between atoms: C11_16  and  O4_4 
REMARK    4  A    between atoms: C10_15  and  C11_16 
ROOT
HETATM    1  O1  UNK     1      11.980   6.161   9.909  1.00  0.00    -0.322 OA
HETATM    2  O3  UNK     1      13.543   6.831   6.200  1.00  0.00    -0.287 OA
HETATM    3  C1  UNK     1      11.630   6.359   7.510  1.00  0.00     0.048 A 
HETATM    4  C2  UNK     1      11.160   6.138   8.807  1.00  0.00     0.091 A 
HETATM    5  C3  UNK     1       8.925   5.846   7.942  1.00  0.00     0.072 A 
HETATM    6  C4  UNK     1       9.806   5.881   9.024  1.00  0.00     0.075 A 
HETATM    7  C5  UNK     1      10.750   6.325   6.425  1.00  0.00     0.021 A 
HETATM    8  C6  UNK     1       9.397   6.068   6.646  1.00  0.00     0.038 A 
HETATM    9  C7  UNK     1      13.065   6.629   7.307  1.00  0.00     0.186 A 
HETATM   10  C8  UNK     1      13.901   6.643   8.523  1.00  0.00     0.080 A 
HETATM   11  C9  UNK     1      13.314   6.415   9.700  1.00  0.00     0.146 A 
ENDROOT
BRANCH   5  12
HETATM   12  O2  UNK     1       7.603   5.596   8.149  1.00  0.00    -0.341 OA
BRANCH  12  13
HETATM   13  C10 UNK     1       7.223   5.147   9.449  1.00  0.00     0.285 C 
BRANCH  13  14
HETATM   14  C11 UNK     1       6.948   3.669   9.416  1.00  0.00     0.164 C 
HETATM   15  O5  UNK     1       6.661   3.018   8.423  1.00  0.00    -0.648 OA
BRANCH  14  16
HETATM   16  O4  UNK     1       7.064   3.144  10.661  1.00  0.00    -0.775 OA
HETATM   17  H8  UNK     1       7.702   3.647  11.213  1.00  0.00     0.167 HD
ENDBRANCH  14  16
ENDBRANCH  13  14
ENDBRANCH  12  13
ENDBRANCH   5  12
TORSDOF 4
ENDMDL
MODEL 8
REMARK VINA RESULT:      -6.7      5.868      7.304
REMARK  4 active torsions:
REMARK  status: ('A' for Active; 'I' for Inactive)
REMARK    1  A    between atoms: C10_15  and  O2_2 
REMARK    2  A    between atoms: C3_8  and  O2_2 
REMARK    3  A    between atoms: C11_16  and  O4_4 
REMARK    4  A    between atoms: C10_15  and  C11_16 
ROOT
HETATM    1  O1  UNK     1      18.078  -0.544  34.506  1.00  0.00    -0.322 OA
HETATM    2  O3  UNK     1      20.706  -3.476  35.576  1.00  0.00    -0.287 OA
HETATM    3  C1  UNK     1      19.892  -2.039  33.881  1.00  0.00     0.048 A 
HETATM    4  C2  UNK     1      18.966  -1.036  33.581  1.00  0.00     0.091 A 
HETATM    5  C3  UNK     1      19.798  -0.953  31.317  1.00  0.00     0.072 A 
HETATM    6  C4  UNK     1      18.919  -0.492  32.297  1.00  0.00     0.075 A 
HETATM    7  C5  UNK     1      20.773  -2.502  32.901  1.00  0.00     0.021 A 
HETATM    8  C6  UNK     1      20.723  -1.955  31.619  1.00  0.00     0.038 A 
HETATM    9  C7  UNK     1      19.922  -2.597  35.245  1.00  0.00     0.186 A 
HETATM   10  C8  UNK     1      18.948  -2.033  36.199  1.00  0.00     0.080 A 
HETATM   11  C9  UNK     1      18.122  -1.076  35.772  1.00  0.00     0.146 A 
ENDROOT
BRANCH   5  12
HETATM   12  O2  UNK     1      19.756  -0.424  30.063  1.00  0.00    -0.341 OA
BRANCH  12  13
HETATM   13  C10 UNK     1      19.277   0.914  29.938  1.00  0.00     0.285 C 
BRANCH  13  14
HETATM   14  C11 UNK     1      18.548   1.074  28.632  1.00  0.00     0.164 C 
HETATM   15  O5  UNK     1      18.037   2.105  28.222  1.00  0.00    -0.648 OA
BRANCH  14  16
HETATM   16  O4  UNK     1      18.533  -0.103  27.958  1.00  0.00    -0.775 OA
HETATM   17  H8  UNK     1      17.625  -0.354  27.681  1.00  0.00     0.167 HD
ENDBRANCH  14  16
ENDBRANCH  13  14
ENDBRANCH  12  13
ENDBRANCH   5  12
TORSDOF 4
ENDMDL
MODEL 9
REMARK VINA RESULT:      -6.7      5.331      6.268
REMARK  4 active torsions:
REMARK  status: ('A' for Active; 'I' for Inactive)
REMARK    1  A    between atoms: C10_15  and  O2_2 
REMARK    2  A    between atoms: C3_8  and  O2_2 
REMARK    3  A    between atoms: C11_16  and  O4_4 
REMARK    4  A    between atoms: C10_15  and  C11_16 
ROOT
HETATM    1  O1  UNK     1      18.030  -1.614  35.555  1.00  0.00    -0.322 OA
HETATM    2  O3  UNK     1      17.904   1.100  38.600  1.00  0.00    -0.287 OA
HETATM    3  C1  UNK     1      18.048   0.711  36.270  1.00  0.00     0.048 A 
HETATM    4  C2  UNK     1      18.087  -0.270  35.276  1.00  0.00     0.091 A 
HETATM    5  C3  UNK     1      18.246   1.451  33.591  1.00  0.00     0.072 A 
HETATM    6  C4  UNK     1      18.186   0.100  33.935  1.00  0.00     0.075 A 
HETATM    7  C5  UNK     1      18.108   2.064  35.929  1.00  0.00     0.021 A 
HETATM    8  C6  UNK     1      18.207   2.430  34.586  1.00  0.00     0.038 A 
HETATM    9  C7  UNK     1      17.943   0.294  37.680  1.00  0.00     0.186 A 
HETATM   10  C8  UNK     1      17.884  -1.160  37.925  1.00  0.00     0.080 A 
HETATM   11  C9  UNK     1      17.931  -1.983  36.875  1.00  0.00     0.146 A 
ENDROOT
BRANCH   5  12
HETATM   12  O2  UNK     1      18.343   1.816  32.283  1.00  0.00    -0.341 OA
BRANCH  12  13
HETATM   13  C10 UNK     1      19.067   0.944  31.417  1.00  0.00     0.285 C 
BRANCH  13  14
HETATM   14  C11 UNK     1      18.745   1.266  29.984  1.00  0.00     0.164 C 
HETATM   15  O5  UNK     1      17.668   1.666  29.567  1.00  0.00    -0.648 OA
BRANCH  14  16
HETATM   16  O4  UNK     1      19.829   1.048  29.200  1.00  0.00    -0.775 OA
HETATM   17  H8  UNK     1      20.662   1.315  29.645  1.00  0.00     0.167 HD
ENDBRANCH  14  16
ENDBRANCH  13  14
ENDBRANCH  12  13
ENDBRANCH   5  12
TORSDOF 4
ENDMDL
MODEL 10
REMARK VINA RESULT:      -6.6     22.368     24.740
REMARK  4 active torsions:
REMARK  status: ('A' for Active; 'I' for Inactive)
REMARK    1  A    between atoms: C10_15  and  O2_2 
REMARK    2  A    between atoms: C3_8  and  O2_2 
REMARK    3  A    between atoms: C11_16  and  O4_4 
REMARK    4  A    between atoms: C10_15  and  C11_16 
ROOT
HETATM    1  O1  UNK     1       9.528   5.554   9.443  1.00  0.00    -0.322 OA
HETATM    2  O3  UNK     1       9.732   6.696   5.531  1.00  0.00    -0.287 OA
HETATM    3  C1  UNK     1      10.891   6.056   7.492  1.00  0.00     0.048 A 
HETATM    4  C2  UNK     1      10.751   5.671   8.828  1.00  0.00     0.091 A 
HETATM    5  C3  UNK     1      13.149   5.484   9.021  1.00  0.00     0.072 A 
HETATM    6  C4  UNK     1      11.881   5.384   9.593  1.00  0.00     0.075 A 
HETATM    7  C5  UNK     1      12.160   6.157   6.917  1.00  0.00     0.021 A 
HETATM    8  C6  UNK     1      13.288   5.869   7.686  1.00  0.00     0.038 A 
HETATM    9  C7  UNK     1       9.682   6.354   6.704  1.00  0.00     0.186 A 
HETATM   10  C8  UNK     1       8.395   6.213   7.412  1.00  0.00     0.080 A 
HETATM   11  C9  UNK     1       8.412   5.835   8.692  1.00  0.00     0.146 A 
ENDROOT
BRANCH   5  12
HETATM   12  O2  UNK     1      14.255   5.205   9.765  1.00  0.00    -0.341 OA
BRANCH  12  13
HETATM   13  C10 UNK     1      15.035   6.314  10.210  1.00  0.00     0.285 C 
BRANCH  13  14
HETATM   14  C11 UNK     1      16.469   6.126   9.796  1.00  0.00     0.164 C 
HETATM   15  O5  UNK     1      17.334   6.988   9.808  1.00  0.00    -0.648 OA
BRANCH  14  16
HETATM   16  O4  UNK     1      16.677   4.846   9.400  1.00  0.00    -0.775 OA
HETATM   17  H8  UNK     1      17.428   4.774   8.772  1.00  0.00     0.167 HD
ENDBRANCH  14  16
ENDBRANCH  13  14
ENDBRANCH  12  13
ENDBRANCH   5  12
TORSDOF 4
ENDMDL
