MODEL 1
REMARK VINA RESULT:      -7.7      0.000      0.000
REMARK  5 active torsions:
REMARK  status: ('A' for Active; 'I' for Inactive)
REMARK    1  A    between atoms: C9_15  and  O2_2 
REMARK    2  A    between atoms: C10_16  and  O4_4 
REMARK    3  A    between atoms: C12_18  and  O5_5 
REMARK    4  A    between atoms: C3_9  and  C5_11 
REMARK    5  A    between atoms: C12_18  and  C5_11 
ROOT
HETATM    1  O1  UNK     1      14.029   4.948   8.867  1.00  0.00    -0.271 OA
HETATM    2  O3  UNK     1      12.132   3.923   8.157  1.00  0.00    -0.259 OA
HETATM    3  C1  UNK     1      12.609   7.397   8.939  1.00  0.00    -0.036 A 
HETATM    4  C2  UNK     1      14.038   7.341   9.311  1.00  0.00     0.007 A 
HETATM    5  C3  UNK     1      11.986   6.272   8.529  1.00  0.00     0.034 A 
HETATM    6  C4  UNK     1      14.698   6.117   9.262  1.00  0.00     0.126 A 
HETATM    7  C6  UNK     1      14.791   8.458   9.705  1.00  0.00     0.018 A 
HETATM    8  C7  UNK     1      12.695   4.961   8.494  1.00  0.00     0.295 A 
HETATM    9  C8  UNK     1      11.925   8.736   9.061  1.00  0.00     0.050 C 
HETATM   10  C9  UNK     1      16.048   5.976   9.595  1.00  0.00     0.134 A 
HETATM   11  C10 UNK     1      16.772   7.095   9.988  1.00  0.00     0.101 A 
HETATM   12  C11 UNK     1      16.144   8.336  10.042  1.00  0.00     0.040 A 
ENDROOT
BRANCH   5  13
HETATM   13  C5  UNK     1      10.553   6.202   8.062  1.00  0.00     0.155 C 
BRANCH  13  14
HETATM   14  C12 UNK     1      10.502   6.284   6.564  1.00  0.00     0.143 C 
HETATM   15  O6  UNK     1      11.208   6.962   5.832  1.00  0.00    -0.650 OA
BRANCH  14  16
HETATM   16  O5  UNK     1       9.514   5.469   6.109  1.00  0.00    -0.776 OA
HETATM   17  H10 UNK     1       8.631   5.890   6.179  1.00  0.00     0.167 HD
ENDBRANCH  14  16
ENDBRANCH  13  14
ENDBRANCH   5  13
BRANCH  10  18
HETATM   18  O2  UNK     1      16.651   4.756   9.536  1.00  0.00    -0.356 OA
HETATM   19  H8  UNK     1      16.929   4.507  10.435  1.00  0.00     0.218 HD
ENDBRANCH  10  18
BRANCH  11  20
HETATM   20  O4  UNK     1      18.089   6.992  10.319  1.00  0.00    -0.358 OA
HETATM   21  H9  UNK     1      18.166   6.888  11.283  1.00  0.00     0.217 HD
ENDBRANCH  11  20
TORSDOF 5
ENDMDL
MODEL 2
REMARK VINA RESULT:      -7.6     22.647     24.383
REMARK  5 active torsions:
REMARK  status: ('A' for Active; 'I' for Inactive)
REMARK    1  A    between atoms: C9_15  and  O2_2 
REMARK    2  A    between atoms: C10_16  and  O4_4 
REMARK    3  A    between atoms: C12_18  and  O5_5 
REMARK    4  A    between atoms: C3_9  and  C5_11 
REMARK    5  A    between atoms: C12_18  and  C5_11 
ROOT
HETATM    1  O1  UNK     1      18.845   0.616  32.787  1.00  0.00    -0.271 OA
HETATM    2  O3  UNK     1      17.974   2.220  34.138  1.00  0.00    -0.259 OA
HETATM    3  C1  UNK     1      18.727   2.449  30.633  1.00  0.00    -0.036 A 
HETATM    4  C2  UNK     1      19.237   1.077  30.430  1.00  0.00     0.007 A 
HETATM    5  C3  UNK     1      18.281   2.818  31.852  1.00  0.00     0.034 A 
HETATM    6  C4  UNK     1      19.278   0.208  31.516  1.00  0.00     0.126 A 
HETATM    7  C6  UNK     1      19.680   0.578  29.195  1.00  0.00     0.018 A 
HETATM    8  C7  UNK     1      18.342   1.887  33.015  1.00  0.00     0.295 A 
HETATM    9  C8  UNK     1      18.754   3.369  29.438  1.00  0.00     0.050 C 
HETATM   10  C9  UNK     1      19.745  -1.105  31.412  1.00  0.00     0.134 A 
HETATM   11  C10 UNK     1      20.183  -1.576  30.181  1.00  0.00     0.101 A 
HETATM   12  C11 UNK     1      20.149  -0.735  29.072  1.00  0.00     0.040 A 
ENDROOT
BRANCH   5  13
HETATM   13  C5  UNK     1      17.679   4.161  32.179  1.00  0.00     0.155 C 
BRANCH  13  14
HETATM   14  C12 UNK     1      18.740   5.079  32.715  1.00  0.00     0.143 C 
HETATM   15  O6  UNK     1      19.600   5.672  32.079  1.00  0.00    -0.650 OA
BRANCH  14  16
HETATM   16  O5  UNK     1      18.617   5.160  34.065  1.00  0.00    -0.776 OA
HETATM   17  H10 UNK     1      18.943   6.017  34.411  1.00  0.00     0.167 HD
ENDBRANCH  14  16
ENDBRANCH  13  14
ENDBRANCH   5  13
BRANCH  10  18
HETATM   18  O2  UNK     1      19.770  -1.918  32.505  1.00  0.00    -0.356 OA
HETATM   19  H8  UNK     1      20.565  -2.477  32.454  1.00  0.00     0.218 HD
ENDBRANCH  10  18
BRANCH  11  20
HETATM   20  O4  UNK     1      20.643  -2.850  30.044  1.00  0.00    -0.358 OA
HETATM   21  H9  UNK     1      21.498  -2.830  29.580  1.00  0.00     0.217 HD
ENDBRANCH  11  20
TORSDOF 5
ENDMDL
MODEL 3
REMARK VINA RESULT:      -7.3     22.593     24.274
REMARK  5 active torsions:
REMARK  status: ('A' for Active; 'I' for Inactive)
REMARK    1  A    between atoms: C9_15  and  O2_2 
REMARK    2  A    between atoms: C10_16  and  O4_4 
REMARK    3  A    between atoms: C12_18  and  O5_5 
REMARK    4  A    between atoms: C3_9  and  C5_11 
REMARK    5  A    between atoms: C12_18  and  C5_11 
ROOT
HETATM    1  O1  UNK     1      16.605   6.758  31.098  1.00  0.00    -0.271 OA
HETATM    2  O3  UNK     1      14.397   7.260  31.249  1.00  0.00    -0.259 OA
HETATM    3  C1  UNK     1      16.878   7.387  33.845  1.00  0.00    -0.036 A 
HETATM    4  C2  UNK     1      18.045   6.952  33.050  1.00  0.00     0.007 A 
HETATM    5  C3  UNK     1      15.677   7.518  33.243  1.00  0.00     0.034 A 
HETATM    6  C4  UNK     1      17.867   6.651  31.703  1.00  0.00     0.126 A 
HETATM    7  C6  UNK     1      19.344   6.828  33.566  1.00  0.00     0.018 A 
HETATM    8  C7  UNK     1      15.490   7.180  31.802  1.00  0.00     0.295 A 
HETATM    9  C8  UNK     1      17.111   7.647  35.312  1.00  0.00     0.050 C 
HETATM   10  C9  UNK     1      18.916   6.234  30.880  1.00  0.00     0.134 A 
HETATM   11  C10 UNK     1      20.193   6.113  31.414  1.00  0.00     0.101 A 
HETATM   12  C11 UNK     1      20.408   6.412  32.757  1.00  0.00     0.040 A 
ENDROOT
BRANCH   5  13
HETATM   13  C5  UNK     1      14.423   8.013  33.919  1.00  0.00     0.155 C 
BRANCH  13  14
HETATM   14  C12 UNK     1      14.282   9.493  33.709  1.00  0.00     0.143 C 
HETATM   15  O6  UNK     1      14.931  10.384  34.238  1.00  0.00    -0.650 OA
BRANCH  14  16
HETATM   16  O5  UNK     1      13.285   9.722  32.815  1.00  0.00    -0.776 OA
HETATM   17  H10 UNK     1      12.635   8.988  32.796  1.00  0.00     0.167 HD
ENDBRANCH  14  16
ENDBRANCH  13  14
ENDBRANCH   5  13
BRANCH  10  18
HETATM   18  O2  UNK     1      18.694   5.947  29.567  1.00  0.00    -0.356 OA
HETATM   19  H8  UNK     1      18.822   6.761  29.049  1.00  0.00     0.218 HD
ENDBRANCH  10  18
BRANCH  11  20
HETATM   20  O4  UNK     1      21.238   5.709  30.640  1.00  0.00    -0.358 OA
HETATM   21  H9  UNK     1      21.685   4.963  31.075  1.00  0.00     0.217 HD
ENDBRANCH  11  20
TORSDOF 5
ENDMDL
MODEL 4
REMARK VINA RESULT:      -7.2     22.182     24.043
REMARK  5 active torsions:
REMARK  status: ('A' for Active; 'I' for Inactive)
REMARK    1  A    between atoms: C9_15  and  O2_2 
REMARK    2  A    between atoms: C10_16  and  O4_4 
REMARK    3  A    between atoms: C12_18  and  O5_5 
REMARK    4  A    between atoms: C3_9  and  C5_11 
REMARK    5  A    between atoms: C12_18  and  C5_11 
ROOT
HETATM    1  O1  UNK     1      17.936   3.946  33.396  1.00  0.00    -0.271 OA
HETATM    2  O3  UNK     1      17.539   5.916  34.452  1.00  0.00    -0.259 OA
HETATM    3  C1  UNK     1      18.568   5.398  31.049  1.00  0.00    -0.036 A 
HETATM    4  C2  UNK     1      18.620   3.922  31.060  1.00  0.00     0.007 A 
HETATM    5  C3  UNK     1      18.182   6.058  32.162  1.00  0.00     0.034 A 
HETATM    6  C4  UNK     1      18.302   3.247  32.235  1.00  0.00     0.126 A 
HETATM    7  C6  UNK     1      18.962   3.139  29.946  1.00  0.00     0.018 A 
HETATM    8  C7  UNK     1      17.858   5.329  33.422  1.00  0.00     0.295 A 
HETATM    9  C8  UNK     1      18.975   6.085  29.769  1.00  0.00     0.050 C 
HETATM   10  C9  UNK     1      18.325   1.853  32.332  1.00  0.00     0.134 A 
HETATM   11  C10 UNK     1      18.672   1.099  31.218  1.00  0.00     0.101 A 
HETATM   12  C11 UNK     1      18.990   1.742  30.025  1.00  0.00     0.040 A 
ENDROOT
BRANCH   5  13
HETATM   13  C5  UNK     1      18.025   7.554  32.267  1.00  0.00     0.155 C 
BRANCH  13  14
HETATM   14  C12 UNK     1      16.645   7.953  31.829  1.00  0.00     0.143 C 
HETATM   15  O6  UNK     1      16.289   8.289  30.708  1.00  0.00    -0.650 OA
BRANCH  14  16
HETATM   16  O5  UNK     1      15.806   7.893  32.896  1.00  0.00    -0.776 OA
HETATM   17  H10 UNK     1      15.544   8.786  33.205  1.00  0.00     0.167 HD
ENDBRANCH  14  16
ENDBRANCH  13  14
ENDBRANCH   5  13
BRANCH  10  18
HETATM   18  O2  UNK     1      18.009   1.236  33.505  1.00  0.00    -0.356 OA
HETATM   19  H8  UNK     1      18.749   1.360  34.126  1.00  0.00     0.218 HD
ENDBRANCH  10  18
BRANCH  11  20
HETATM   20  O4  UNK     1      18.704  -0.261  31.278  1.00  0.00    -0.358 OA
HETATM   21  H9  UNK     1      19.605  -0.547  31.504  1.00  0.00     0.217 HD
ENDBRANCH  11  20
TORSDOF 5
ENDMDL
MODEL 5
REMARK VINA RESULT:      -7.2     23.925     25.924
REMARK  5 active torsions:
REMARK  status: ('A' for Active; 'I' for Inactive)
REMARK    1  A    between atoms: C9_15  and  O2_2 
REMARK    2  A    between atoms: C10_16  and  O4_4 
REMARK    3  A    between atoms: C12_18  and  O5_5 
REMARK    4  A    between atoms: C3_9  and  C5_11 
REMARK    5  A    between atoms: C12_18  and  C5_11 
ROOT
HETATM    1  O1  UNK     1      18.656   1.851  31.834  1.00  0.00    -0.271 OA
HETATM    2  O3  UNK     1      17.710   3.269  33.332  1.00  0.00    -0.259 OA
HETATM    3  C1  UNK     1      18.556  -0.192  33.793  1.00  0.00    -0.036 A 
HETATM    4  C2  UNK     1      19.118  -0.457  32.453  1.00  0.00     0.007 A 
HETATM    5  C3  UNK     1      18.117   1.049  34.094  1.00  0.00     0.034 A 
HETATM    6  C4  UNK     1      19.149   0.575  31.519  1.00  0.00     0.126 A 
HETATM    7  C6  UNK     1      19.644  -1.696  32.053  1.00  0.00     0.018 A 
HETATM    8  C7  UNK     1      18.138   2.146  33.084  1.00  0.00     0.295 A 
HETATM    9  C8  UNK     1      18.495  -1.356  34.749  1.00  0.00     0.050 C 
HETATM   10  C9  UNK     1      19.664   0.410  30.231  1.00  0.00     0.134 A 
HETATM   11  C10 UNK     1      20.174  -0.827  29.855  1.00  0.00     0.101 A 
HETATM   12  C11 UNK     1      20.165  -1.880  30.767  1.00  0.00     0.040 A 
ENDROOT
BRANCH   5  13
HETATM   13  C5  UNK     1      17.581   1.470  35.439  1.00  0.00     0.155 C 
BRANCH  13  14
HETATM   14  C12 UNK     1      18.720   1.788  36.364  1.00  0.00     0.143 C 
HETATM   15  O6  UNK     1      19.864   2.092  36.057  1.00  0.00    -0.650 OA
BRANCH  14  16
HETATM   16  O5  UNK     1      18.292   1.682  37.649  1.00  0.00    -0.776 OA
HETATM   17  H10 UNK     1      17.313   1.664  37.708  1.00  0.00     0.167 HD
ENDBRANCH  14  16
ENDBRANCH  13  14
ENDBRANCH   5  13
BRANCH  10  18
HETATM   18  O2  UNK     1      19.669   1.448  29.350  1.00  0.00    -0.356 OA
HETATM   19  H8  UNK     1      20.338   1.269  28.666  1.00  0.00     0.218 HD
ENDBRANCH  10  18
BRANCH  11  20
HETATM   20  O4  UNK     1      20.684  -1.022  28.608  1.00  0.00    -0.358 OA
HETATM   21  H9  UNK     1      21.628  -1.243  28.683  1.00  0.00     0.217 HD
ENDBRANCH  11  20
TORSDOF 5
ENDMDL
MODEL 6
REMARK VINA RESULT:      -7.2     25.994     27.776
REMARK  5 active torsions:
REMARK  status: ('A' for Active; 'I' for Inactive)
REMARK    1  A    between atoms: C9_15  and  O2_2 
REMARK    2  A    between atoms: C10_16  and  O4_4 
REMARK    3  A    between atoms: C12_18  and  O5_5 
REMARK    4  A    between atoms: C3_9  and  C5_11 
REMARK    5  A    between atoms: C12_18  and  C5_11 
ROOT
HETATM    1  O1  UNK     1      17.578  -0.097  33.472  1.00  0.00    -0.271 OA
HETATM    2  O3  UNK     1      15.995   0.999  34.675  1.00  0.00    -0.259 OA
HETATM    3  C1  UNK     1      18.505  -1.276  35.874  1.00  0.00    -0.036 A 
HETATM    4  C2  UNK     1      19.157  -1.579  34.583  1.00  0.00     0.007 A 
HETATM    5  C3  UNK     1      17.478  -0.400  35.909  1.00  0.00     0.034 A 
HETATM    6  C4  UNK     1      18.669  -0.978  33.426  1.00  0.00     0.126 A 
HETATM    7  C6  UNK     1      20.259  -2.437  34.442  1.00  0.00     0.018 A 
HETATM    8  C7  UNK     1      16.951   0.229  34.664  1.00  0.00     0.295 A 
HETATM    9  C8  UNK     1      19.035  -1.993  37.090  1.00  0.00     0.050 C 
HETATM   10  C9  UNK     1      19.227  -1.209  32.166  1.00  0.00     0.134 A 
HETATM   11  C10 UNK     1      20.314  -2.067  32.050  1.00  0.00     0.101 A 
HETATM   12  C11 UNK     1      20.831  -2.679  33.188  1.00  0.00     0.040 A 
ENDROOT
BRANCH   5  13
HETATM   13  C5  UNK     1      16.768   0.046  37.163  1.00  0.00     0.155 C 
BRANCH  13  14
HETATM   14  C12 UNK     1      17.538   1.157  37.816  1.00  0.00     0.143 C 
HETATM   15  O6  UNK     1      17.940   1.204  38.970  1.00  0.00    -0.650 OA
BRANCH  14  16
HETATM   16  O5  UNK     1      17.733   2.153  36.914  1.00  0.00    -0.776 OA
HETATM   17  H10 UNK     1      16.933   2.316  36.371  1.00  0.00     0.167 HD
ENDBRANCH  14  16
ENDBRANCH  13  14
ENDBRANCH   5  13
BRANCH  10  18
HETATM   18  O2  UNK     1      18.713  -0.601  31.060  1.00  0.00    -0.356 OA
HETATM   19  H8  UNK     1      18.988  -1.107  30.275  1.00  0.00     0.218 HD
ENDBRANCH  10  18
BRANCH  11  20
HETATM   20  O4  UNK     1      20.882  -2.313  30.837  1.00  0.00    -0.358 OA
HETATM   21  H9  UNK     1      21.252  -3.213  30.837  1.00  0.00     0.217 HD
ENDBRANCH  11  20
TORSDOF 5
ENDMDL
MODEL 7
REMARK VINA RESULT:      -7.1     22.957     24.861
REMARK  5 active torsions:
REMARK  status: ('A' for Active; 'I' for Inactive)
REMARK    1  A    between atoms: C9_15  and  O2_2 
REMARK    2  A    between atoms: C10_16  and  O4_4 
REMARK    3  A    between atoms: C12_18  and  O5_5 
REMARK    4  A    between atoms: C3_9  and  C5_11 
REMARK    5  A    between atoms: C12_18  and  C5_11 
ROOT
HETATM    1  O1  UNK     1      18.438   1.672  31.215  1.00  0.00    -0.271 OA
HETATM    2  O3  UNK     1      18.495   3.085  29.439  1.00  0.00    -0.259 OA
HETATM    3  C1  UNK     1      18.310   3.923  32.928  1.00  0.00    -0.036 A 
HETATM    4  C2  UNK     1      18.319   2.552  33.481  1.00  0.00     0.007 A 
HETATM    5  C3  UNK     1      18.398   4.100  31.593  1.00  0.00     0.034 A 
HETATM    6  C4  UNK     1      18.382   1.474  32.603  1.00  0.00     0.126 A 
HETATM    7  C6  UNK     1      18.279   2.258  34.853  1.00  0.00     0.018 A 
HETATM    8  C7  UNK     1      18.450   2.940  30.657  1.00  0.00     0.295 A 
HETATM    9  C8  UNK     1      18.184   5.055  33.916  1.00  0.00     0.050 C 
HETATM   10  C9  UNK     1      18.397   0.147  33.041  1.00  0.00     0.134 A 
HETATM   11  C10 UNK     1      18.351  -0.120  34.404  1.00  0.00     0.101 A 
HETATM   12  C11 UNK     1      18.293   0.936  35.310  1.00  0.00     0.040 A 
ENDROOT
BRANCH   5  13
HETATM   13  C5  UNK     1      18.463   5.440  30.904  1.00  0.00     0.155 C 
BRANCH  13  14
HETATM   14  C12 UNK     1      19.896   5.824  30.672  1.00  0.00     0.143 C 
HETATM   15  O6  UNK     1      20.805   5.830  31.490  1.00  0.00    -0.650 OA
BRANCH  14  16
HETATM   16  O5  UNK     1      20.054   6.187  29.373  1.00  0.00    -0.776 OA
HETATM   17  H10 UNK     1      19.965   7.156  29.250  1.00  0.00     0.167 HD
ENDBRANCH  14  16
ENDBRANCH  13  14
ENDBRANCH   5  13
BRANCH  10  18
HETATM   18  O2  UNK     1      18.456  -0.877  32.145  1.00  0.00    -0.356 OA
HETATM   19  H8  UNK     1      17.876  -1.593  32.457  1.00  0.00     0.218 HD
ENDBRANCH  10  18
BRANCH  11  20
HETATM   20  O4  UNK     1      18.363  -1.401  34.865  1.00  0.00    -0.358 OA
HETATM   21  H9  UNK     1      17.448  -1.690  35.022  1.00  0.00     0.217 HD
ENDBRANCH  11  20
TORSDOF 5
ENDMDL
MODEL 8
REMARK VINA RESULT:      -7.0     23.580     25.253
REMARK  5 active torsions:
REMARK  status: ('A' for Active; 'I' for Inactive)
REMARK    1  A    between atoms: C9_15  and  O2_2 
REMARK    2  A    between atoms: C10_16  and  O4_4 
REMARK    3  A    between atoms: C12_18  and  O5_5 
REMARK    4  A    between atoms: C3_9  and  C5_11 
REMARK    5  A    between atoms: C12_18  and  C5_11 
ROOT
HETATM    1  O1  UNK     1      19.289  -1.122  32.650  1.00  0.00    -0.271 OA
HETATM    2  O3  UNK     1      20.045  -1.476  30.539  1.00  0.00    -0.259 OA
HETATM    3  C1  UNK     1      18.702   1.552  31.930  1.00  0.00    -0.036 A 
HETATM    4  C2  UNK     1      18.437   1.063  33.299  1.00  0.00     0.007 A 
HETATM    5  C3  UNK     1      19.262   0.721  31.025  1.00  0.00     0.034 A 
HETATM    6  C4  UNK     1      18.740  -0.259  33.611  1.00  0.00     0.126 A 
HETATM    7  C6  UNK     1      17.903   1.856  34.327  1.00  0.00     0.018 A 
HETATM    8  C7  UNK     1      19.570  -0.699  31.362  1.00  0.00     0.295 A 
HETATM    9  C8  UNK     1      18.305   2.975  31.626  1.00  0.00     0.050 C 
HETATM   10  C9  UNK     1      18.523  -0.802  34.881  1.00  0.00     0.134 A 
HETATM   11  C10 UNK     1      17.988   0.001  35.881  1.00  0.00     0.101 A 
HETATM   12  C11 UNK     1      17.679   1.330  35.604  1.00  0.00     0.040 A 
ENDROOT
BRANCH   5  13
HETATM   13  C5  UNK     1      19.641   1.109  29.619  1.00  0.00     0.155 C 
BRANCH  13  14
HETATM   14  C12 UNK     1      18.473   0.897  28.699  1.00  0.00     0.143 C 
HETATM   15  O6  UNK     1      17.481   1.603  28.584  1.00  0.00    -0.650 OA
BRANCH  14  16
HETATM   16  O5  UNK     1      18.672  -0.240  27.983  1.00  0.00    -0.776 OA
HETATM   17  H10 UNK     1      18.078  -0.963  28.273  1.00  0.00     0.167 HD
ENDBRANCH  14  16
ENDBRANCH  13  14
ENDBRANCH   5  13
BRANCH  10  18
HETATM   18  O2  UNK     1      18.832  -2.103  35.138  1.00  0.00    -0.356 OA
HETATM   19  H8  UNK     1      19.757  -2.147  35.436  1.00  0.00     0.218 HD
ENDBRANCH  10  18
BRANCH  11  20
HETATM   20  O4  UNK     1      17.763  -0.496  37.129  1.00  0.00    -0.358 OA
HETATM   21  H9  UNK     1      17.484  -1.425  37.054  1.00  0.00     0.217 HD
ENDBRANCH  11  20
TORSDOF 5
ENDMDL
MODEL 9
REMARK VINA RESULT:      -7.0     32.896     36.299
REMARK  5 active torsions:
REMARK  status: ('A' for Active; 'I' for Inactive)
REMARK    1  A    between atoms: C9_15  and  O2_2 
REMARK    2  A    between atoms: C10_16  and  O4_4 
REMARK    3  A    between atoms: C12_18  and  O5_5 
REMARK    4  A    between atoms: C3_9  and  C5_11 
REMARK    5  A    between atoms: C12_18  and  C5_11 
ROOT
HETATM    1  O1  UNK     1      48.759   3.578  18.929  1.00  0.00    -0.271 OA
HETATM    2  O3  UNK     1      50.767   4.436  19.547  1.00  0.00    -0.259 OA
HETATM    3  C1  UNK     1      48.585   5.576  16.931  1.00  0.00    -0.036 A 
HETATM    4  C2  UNK     1      47.502   4.585  17.105  1.00  0.00     0.007 A 
HETATM    5  C3  UNK     1      49.651   5.545  17.758  1.00  0.00     0.034 A 
HETATM    6  C4  UNK     1      47.628   3.620  18.099  1.00  0.00     0.126 A 
HETATM    7  C6  UNK     1      46.331   4.558  16.332  1.00  0.00     0.018 A 
HETATM    8  C7  UNK     1      49.787   4.498  18.811  1.00  0.00     0.295 A 
HETATM    9  C8  UNK     1      48.427   6.567  15.805  1.00  0.00     0.050 C 
HETATM   10  C9  UNK     1      46.651   2.648  18.332  1.00  0.00     0.134 A 
HETATM   11  C10 UNK     1      45.502   2.636  17.550  1.00  0.00     0.101 A 
HETATM   12  C11 UNK     1      45.342   3.592  16.551  1.00  0.00     0.040 A 
ENDROOT
BRANCH   5  13
HETATM   13  C5  UNK     1      50.791   6.532  17.731  1.00  0.00     0.155 C 
BRANCH  13  14
HETATM   14  C12 UNK     1      50.438   7.740  18.550  1.00  0.00     0.143 C 
HETATM   15  O6  UNK     1      49.972   8.798  18.152  1.00  0.00    -0.650 OA
BRANCH  14  16
HETATM   16  O5  UNK     1      50.725   7.491  19.855  1.00  0.00    -0.776 OA
HETATM   17  H10 UNK     1      51.687   7.554  20.036  1.00  0.00     0.167 HD
ENDBRANCH  14  16
ENDBRANCH  13  14
ENDBRANCH   5  13
BRANCH  10  18
HETATM   18  O2  UNK     1      46.820   1.720  19.315  1.00  0.00    -0.356 OA
HETATM   19  H8  UNK     1      47.398   2.099  20.000  1.00  0.00     0.218 HD
ENDBRANCH  10  18
BRANCH  11  20
HETATM   20  O4  UNK     1      44.531   1.703  17.751  1.00  0.00    -0.358 OA
HETATM   21  H9  UNK     1      43.740   1.956  17.244  1.00  0.00     0.217 HD
ENDBRANCH  11  20
TORSDOF 5
ENDMDL
MODEL 10
REMARK VINA RESULT:      -7.0     21.863     23.843
REMARK  5 active torsions:
REMARK  status: ('A' for Active; 'I' for Inactive)
REMARK    1  A    between atoms: C9_15  and  O2_2 
REMARK    2  A    between atoms: C10_16  and  O4_4 
REMARK    3  A    between atoms: C12_18  and  O5_5 
REMARK    4  A    between atoms: C3_9  and  C5_11 
REMARK    5  A    between atoms: C12_18  and  C5_11 
ROOT
HETATM    1  O1  UNK     1      19.190   1.673  29.291  1.00  0.00    -0.271 OA
HETATM    2  O3  UNK     1      18.526   3.816  28.946  1.00  0.00    -0.259 OA
HETATM    3  C1  UNK     1      18.514   1.964  32.025  1.00  0.00    -0.036 A 
HETATM    4  C2  UNK     1      19.067   0.692  31.515  1.00  0.00     0.007 A 
HETATM    5  C3  UNK     1      18.363   3.007  31.181  1.00  0.00     0.034 A 
HETATM    6  C4  UNK     1      19.386   0.591  30.164  1.00  0.00     0.126 A 
HETATM    7  C6  UNK     1      19.309  -0.436  32.314  1.00  0.00     0.018 A 
HETATM    8  C7  UNK     1      18.692   2.887  29.732  1.00  0.00     0.295 A 
HETATM    9  C8  UNK     1      18.133   2.005  33.484  1.00  0.00     0.050 C 
HETATM   10  C9  UNK     1      19.915  -0.573  29.600  1.00  0.00     0.134 A 
HETATM   11  C10 UNK     1      20.140  -1.680  30.410  1.00  0.00     0.101 A 
HETATM   12  C11 UNK     1      19.838  -1.611  31.767  1.00  0.00     0.040 A 
ENDROOT
BRANCH   5  13
HETATM   13  C5  UNK     1      17.871   4.375  31.583  1.00  0.00     0.155 C 
BRANCH  13  14
HETATM   14  C12 UNK     1      19.017   5.197  32.098  1.00  0.00     0.143 C 
HETATM   15  O6  UNK     1      19.310   5.415  33.265  1.00  0.00    -0.650 OA
BRANCH  14  16
HETATM   16  O5  UNK     1      19.716   5.695  31.045  1.00  0.00    -0.776 OA
HETATM   17  H10 UNK     1      19.971   6.631  31.185  1.00  0.00     0.167 HD
ENDBRANCH  14  16
ENDBRANCH  13  14
ENDBRANCH   5  13
BRANCH  10  18
HETATM   18  O2  UNK     1      20.207  -0.626  28.271  1.00  0.00    -0.356 OA
HETATM   19  H8  UNK     1      20.480  -1.535  28.052  1.00  0.00     0.218 HD
ENDBRANCH  10  18
BRANCH  11  20
HETATM   20  O4  UNK     1      20.654  -2.830  29.893  1.00  0.00    -0.358 OA
HETATM   21  H9  UNK     1      20.002  -3.544  29.999  1.00  0.00     0.217 HD
ENDBRANCH  11  20
TORSDOF 5
ENDMDL
