MODEL 1
REMARK VINA RESULT:      -7.9      0.000      0.000
REMARK  3 active torsions:
REMARK  status: ('A' for Active; 'I' for Inactive)
REMARK    1  A    between atoms: C16_20  and  O2_2 
REMARK    2  A    between atoms: C6_10  and  N1_4 
REMARK    3  A    between atoms: C6_10  and  C8_12 
ROOT
HETATM    1  O1  UNK     1      18.841   0.189  33.437  1.00  0.00    -0.275 OA
HETATM    2  O3  UNK     1      18.234   0.817  35.550  1.00  0.00    -0.260 OA
HETATM    3  C8  UNK     1      18.211   2.812  32.583  1.00  0.00    -0.011 A 
HETATM    4  C9  UNK     1      18.704   1.817  31.621  1.00  0.00     0.006 A 
HETATM    5  C10 UNK     1      18.067   2.456  33.867  1.00  0.00     0.092 A 
HETATM    6  C11 UNK     1      19.003   0.533  32.080  1.00  0.00     0.093 A 
HETATM    7  C12 UNK     1      18.892   2.079  30.257  1.00  0.00     0.017 A 
HETATM    8  C13 UNK     1      18.379   1.107  34.367  1.00  0.00     0.288 A 
HETATM    9  C14 UNK     1      19.476  -0.471  31.232  1.00  0.00     0.075 A 
HETATM   10  C15 UNK     1      19.366   1.083  29.395  1.00  0.00     0.038 A 
HETATM   11  C16 UNK     1      19.656  -0.189  29.882  1.00  0.00     0.070 A 
ENDROOT
BRANCH   3  12
HETATM   12  C6  UNK     1      17.883   4.189  32.124  1.00  0.00     0.312 C 
BRANCH  12  13
HETATM   13  N1  UNK     1      18.524   5.214  32.948  1.00  0.00     0.092 N 
HETATM   14  C4  UNK     1      17.533   6.190  33.419  1.00  0.00     0.273 C 
HETATM   15  C2  UNK     1      18.178   7.239  34.326  1.00  0.00     0.034 C 
HETATM   16  C1  UNK     1      19.338   7.949  33.620  1.00  0.00    -0.015 C 
HETATM   17  C3  UNK     1      20.320   6.912  33.068  1.00  0.00     0.034 C 
HETATM   18  C7  UNK     1      20.040   8.922  34.563  1.00  0.00     0.010 C 
HETATM   19  C5  UNK     1      19.604   5.874  32.200  1.00  0.00     0.273 C 
ENDBRANCH  12  13
ENDBRANCH   3  12
BRANCH  11  20
HETATM   20  O2  UNK     1      20.116  -1.154  29.040  1.00  0.00    -0.356 OA
HETATM   21  C17 UNK     1      20.631  -2.344  29.636  1.00  0.00     0.210 C 
ENDBRANCH  11  20
TORSDOF 3
ENDMDL
MODEL 2
REMARK VINA RESULT:      -7.7      1.574      3.705
REMARK  3 active torsions:
REMARK  status: ('A' for Active; 'I' for Inactive)
REMARK    1  A    between atoms: C16_20  and  O2_2 
REMARK    2  A    between atoms: C6_10  and  N1_4 
REMARK    3  A    between atoms: C6_10  and  C8_12 
ROOT
HETATM    1  O1  UNK     1      20.009  -0.972  30.512  1.00  0.00    -0.275 OA
HETATM    2  O3  UNK     1      20.525  -0.606  28.316  1.00  0.00    -0.260 OA
HETATM    3  C8  UNK     1      18.785   1.578  30.547  1.00  0.00    -0.011 A 
HETATM    4  C9  UNK     1      18.799   0.746  31.758  1.00  0.00     0.006 A 
HETATM    5  C10 UNK     1      19.359   1.109  29.431  1.00  0.00     0.092 A 
HETATM    6  C11 UNK     1      19.413  -0.505  31.702  1.00  0.00     0.093 A 
HETATM    7  C12 UNK     1      18.230   1.137  32.978  1.00  0.00     0.017 A 
HETATM    8  C13 UNK     1      20.010  -0.210  29.355  1.00  0.00     0.288 A 
HETATM    9  C14 UNK     1      19.471  -1.359  32.806  1.00  0.00     0.075 A 
HETATM   10  C15 UNK     1      18.280   0.293  34.093  1.00  0.00     0.038 A 
HETATM   11  C16 UNK     1      18.899  -0.952  34.007  1.00  0.00     0.070 A 
ENDROOT
BRANCH   3  12
HETATM   12  C6  UNK     1      18.138   2.919  30.575  1.00  0.00     0.312 C 
BRANCH  12  13
HETATM   13  N1  UNK     1      18.873   3.871  31.409  1.00  0.00     0.092 N 
HETATM   14  C4  UNK     1      17.996   4.429  32.447  1.00  0.00     0.273 C 
HETATM   15  C2  UNK     1      18.763   5.386  33.361  1.00  0.00     0.034 C 
HETATM   16  C1  UNK     1      19.430   6.508  32.559  1.00  0.00    -0.015 C 
HETATM   17  C3  UNK     1      20.277   5.908  31.433  1.00  0.00     0.034 C 
HETATM   18  C7  UNK     1      20.275   7.401  33.464  1.00  0.00     0.010 C 
HETATM   19  C5  UNK     1      19.459   4.934  30.581  1.00  0.00     0.273 C 
ENDBRANCH  12  13
ENDBRANCH   3  12
BRANCH  11  20
HETATM   20  O2  UNK     1      18.945  -1.768  35.095  1.00  0.00    -0.356 OA
HETATM   21  C17 UNK     1      20.145  -2.513  35.297  1.00  0.00     0.210 C 
ENDBRANCH  11  20
TORSDOF 3
ENDMDL
MODEL 3
REMARK VINA RESULT:      -7.5      5.558      8.792
REMARK  3 active torsions:
REMARK  status: ('A' for Active; 'I' for Inactive)
REMARK    1  A    between atoms: C16_20  and  O2_2 
REMARK    2  A    between atoms: C6_10  and  N1_4 
REMARK    3  A    between atoms: C6_10  and  C8_12 
ROOT
HETATM    1  O1  UNK     1      17.804  -0.661  34.413  1.00  0.00    -0.275 OA
HETATM    2  O3  UNK     1      16.760  -0.308  36.415  1.00  0.00    -0.260 OA
HETATM    3  C8  UNK     1      19.669  -2.287  35.785  1.00  0.00    -0.011 A 
HETATM    4  C9  UNK     1      19.789  -2.083  34.334  1.00  0.00     0.006 A 
HETATM    5  C10 UNK     1      18.665  -1.692  36.442  1.00  0.00     0.092 A 
HETATM    6  C11 UNK     1      18.850  -1.273  33.694  1.00  0.00     0.093 A 
HETATM    7  C12 UNK     1      20.798  -2.655  33.548  1.00  0.00     0.017 A 
HETATM    8  C13 UNK     1      17.666  -0.836  35.781  1.00  0.00     0.288 A 
HETATM    9  C14 UNK     1      18.891  -1.027  32.319  1.00  0.00     0.075 A 
HETATM   10  C15 UNK     1      20.853  -2.418  32.170  1.00  0.00     0.038 A 
HETATM   11  C16 UNK     1      19.901  -1.605  31.557  1.00  0.00     0.070 A 
ENDROOT
BRANCH   3  12
HETATM   12  C6  UNK     1      20.655  -3.145  36.497  1.00  0.00     0.312 C 
BRANCH  12  13
HETATM   13  N1  UNK     1      20.034  -4.335  37.080  1.00  0.00     0.092 N 
HETATM   14  C4  UNK     1      20.959  -4.993  38.012  1.00  0.00     0.273 C 
HETATM   15  C2  UNK     1      20.306  -6.209  38.671  1.00  0.00     0.034 C 
HETATM   16  C1  UNK     1      19.798  -7.205  37.623  1.00  0.00    -0.015 C 
HETATM   17  C3  UNK     1      18.899  -6.483  36.615  1.00  0.00     0.034 C 
HETATM   18  C7  UNK     1      19.060  -8.367  38.284  1.00  0.00     0.010 C 
HETATM   19  C5  UNK     1      19.600  -5.258  36.023  1.00  0.00     0.273 C 
ENDBRANCH  12  13
ENDBRANCH   3  12
BRANCH  11  20
HETATM   20  O2  UNK     1      19.959  -1.378  30.217  1.00  0.00    -0.356 OA
HETATM   21  C17 UNK     1      20.424  -0.096  29.796  1.00  0.00     0.210 C 
ENDBRANCH  11  20
TORSDOF 3
ENDMDL
MODEL 4
REMARK VINA RESULT:      -7.5      1.882      2.575
REMARK  3 active torsions:
REMARK  status: ('A' for Active; 'I' for Inactive)
REMARK    1  A    between atoms: C16_20  and  O2_2 
REMARK    2  A    between atoms: C6_10  and  N1_4 
REMARK    3  A    between atoms: C6_10  and  C8_12 
ROOT
HETATM    1  O1  UNK     1      18.349   1.613  32.958  1.00  0.00    -0.275 OA
HETATM    2  O3  UNK     1      18.092   2.070  35.183  1.00  0.00    -0.260 OA
HETATM    3  C8  UNK     1      18.300   4.401  32.480  1.00  0.00    -0.011 A 
HETATM    4  C9  UNK     1      18.456   3.460  31.363  1.00  0.00     0.006 A 
HETATM    5  C10 UNK     1      18.183   3.917  33.724  1.00  0.00     0.092 A 
HETATM    6  C11 UNK     1      18.474   2.092  31.638  1.00  0.00     0.093 A 
HETATM    7  C12 UNK     1      18.586   3.855  30.025  1.00  0.00     0.017 A 
HETATM    8  C13 UNK     1      18.202   2.477  34.032  1.00  0.00     0.288 A 
HETATM    9  C14 UNK     1      18.619   1.131  30.635  1.00  0.00     0.075 A 
HETATM   10  C15 UNK     1      18.732   2.904  29.008  1.00  0.00     0.038 A 
HETATM   11  C16 UNK     1      18.747   1.545  29.313  1.00  0.00     0.070 A 
ENDROOT
BRANCH   3  12
HETATM   12  C6  UNK     1      18.276   5.867  32.219  1.00  0.00     0.312 C 
BRANCH  12  13
HETATM   13  N1  UNK     1      17.232   6.548  32.984  1.00  0.00     0.092 N 
HETATM   14  C4  UNK     1      16.109   6.913  32.110  1.00  0.00     0.273 C 
HETATM   15  C2  UNK     1      14.984   7.579  32.904  1.00  0.00     0.034 C 
HETATM   16  C1  UNK     1      15.493   8.806  33.669  1.00  0.00    -0.015 C 
HETATM   17  C3  UNK     1      16.711   8.422  34.513  1.00  0.00     0.034 C 
HETATM   18  C7  UNK     1      14.390   9.406  34.537  1.00  0.00     0.010 C 
HETATM   19  C5  UNK     1      17.780   7.729  33.665  1.00  0.00     0.273 C 
ENDBRANCH  12  13
ENDBRANCH   3  12
BRANCH  11  20
HETATM   20  O2  UNK     1      18.888   0.624  28.322  1.00  0.00    -0.356 OA
HETATM   21  C17 UNK     1      19.763  -0.474  28.576  1.00  0.00     0.210 C 
ENDBRANCH  11  20
TORSDOF 3
ENDMDL
MODEL 5
REMARK VINA RESULT:      -7.5      4.444      8.704
REMARK  3 active torsions:
REMARK  status: ('A' for Active; 'I' for Inactive)
REMARK    1  A    between atoms: C16_20  and  O2_2 
REMARK    2  A    between atoms: C6_10  and  N1_4 
REMARK    3  A    between atoms: C6_10  and  C8_12 
ROOT
HETATM    1  O1  UNK     1      14.539   8.741  32.916  1.00  0.00    -0.275 OA
HETATM    2  O3  UNK     1      13.465   6.948  31.989  1.00  0.00    -0.260 OA
HETATM    3  C8  UNK     1      16.970   7.333  32.578  1.00  0.00    -0.011 A 
HETATM    4  C9  UNK     1      16.967   8.676  33.176  1.00  0.00     0.006 A 
HETATM    5  C10 UNK     1      15.806   6.791  32.197  1.00  0.00     0.092 A 
HETATM    6  C11 UNK     1      15.748   9.338  33.326  1.00  0.00     0.093 A 
HETATM    7  C12 UNK     1      18.124   9.338  33.608  1.00  0.00     0.017 A 
HETATM    8  C13 UNK     1      14.511   7.476  32.349  1.00  0.00     0.288 A 
HETATM    9  C14 UNK     1      15.657  10.615  33.884  1.00  0.00     0.075 A 
HETATM   10  C15 UNK     1      18.049  10.618  34.169  1.00  0.00     0.038 A 
HETATM   11  C16 UNK     1      16.817  11.255  34.307  1.00  0.00     0.070 A 
ENDROOT
BRANCH   3  12
HETATM   12  C6  UNK     1      18.255   6.601  32.404  1.00  0.00     0.312 C 
BRANCH  12  13
HETATM   13  N1  UNK     1      18.107   5.420  31.553  1.00  0.00     0.092 N 
HETATM   14  C4  UNK     1      18.282   4.193  32.342  1.00  0.00     0.273 C 
HETATM   15  C2  UNK     1      18.078   2.947  31.479  1.00  0.00     0.034 C 
HETATM   16  C1  UNK     1      19.018   2.948  30.268  1.00  0.00    -0.015 C 
HETATM   17  C3  UNK     1      18.878   4.267  29.504  1.00  0.00     0.034 C 
HETATM   18  C7  UNK     1      18.740   1.754  29.359  1.00  0.00     0.010 C 
HETATM   19  C5  UNK     1      19.057   5.470  30.433  1.00  0.00     0.273 C 
ENDBRANCH  12  13
ENDBRANCH   3  12
BRANCH  11  20
HETATM   20  O2  UNK     1      16.750  12.499  34.853  1.00  0.00    -0.356 OA
HETATM   21  C17 UNK     1      17.924  13.306  34.777  1.00  0.00     0.210 C 
ENDBRANCH  11  20
TORSDOF 3
ENDMDL
MODEL 6
REMARK VINA RESULT:      -7.4     23.189     24.938
REMARK  3 active torsions:
REMARK  status: ('A' for Active; 'I' for Inactive)
REMARK    1  A    between atoms: C16_20  and  O2_2 
REMARK    2  A    between atoms: C6_10  and  N1_4 
REMARK    3  A    between atoms: C6_10  and  C8_12 
ROOT
HETATM    1  O1  UNK     1      14.003   4.641   8.932  1.00  0.00    -0.275 OA
HETATM    2  O3  UNK     1      16.059   4.072   9.753  1.00  0.00    -0.260 OA
HETATM    3  C8  UNK     1      14.514   7.296   9.766  1.00  0.00    -0.011 A 
HETATM    4  C9  UNK     1      13.247   6.958   9.104  1.00  0.00     0.006 A 
HETATM    5  C10 UNK     1      15.420   6.328   9.966  1.00  0.00     0.092 A 
HETATM    6  C11 UNK     1      13.031   5.637   8.708  1.00  0.00     0.093 A 
HETATM    7  C12 UNK     1      12.232   7.888   8.844  1.00  0.00     0.017 A 
HETATM    8  C13 UNK     1      15.208   4.931   9.553  1.00  0.00     0.288 A 
HETATM    9  C14 UNK     1      11.855   5.231   8.073  1.00  0.00     0.075 A 
HETATM   10  C15 UNK     1      11.047   7.497   8.209  1.00  0.00     0.038 A 
HETATM   11  C16 UNK     1      10.860   6.171   7.824  1.00  0.00     0.070 A 
ENDROOT
BRANCH   3  12
HETATM   12  C6  UNK     1      14.774   8.696  10.200  1.00  0.00     0.312 C 
BRANCH  12  13
HETATM   13  N1  UNK     1      15.579   9.436   9.228  1.00  0.00     0.092 N 
HETATM   14  C4  UNK     1      16.850   9.860   9.830  1.00  0.00     0.273 C 
HETATM   15  C2  UNK     1      17.728  10.589   8.811  1.00  0.00     0.034 C 
HETATM   16  C1  UNK     1      16.994  11.789   8.202  1.00  0.00    -0.015 C 
HETATM   17  C3  UNK     1      15.638  11.341   7.651  1.00  0.00     0.034 C 
HETATM   18  C7  UNK     1      17.837  12.451   7.115  1.00  0.00     0.010 C 
HETATM   19  C5  UNK     1      14.829  10.587   8.709  1.00  0.00     0.273 C 
ENDBRANCH  12  13
ENDBRANCH   3  12
BRANCH  11  20
HETATM   20  O2  UNK     1       9.707   5.796   7.207  1.00  0.00    -0.356 OA
HETATM   21  C17 UNK     1       9.555   6.164   5.836  1.00  0.00     0.210 C 
ENDBRANCH  11  20
TORSDOF 3
ENDMDL
MODEL 7
REMARK VINA RESULT:      -7.4     23.150     25.031
REMARK  3 active torsions:
REMARK  status: ('A' for Active; 'I' for Inactive)
REMARK    1  A    between atoms: C16_20  and  O2_2 
REMARK    2  A    between atoms: C6_10  and  N1_4 
REMARK    3  A    between atoms: C6_10  and  C8_12 
ROOT
HETATM    1  O1  UNK     1      16.696   6.042   9.823  1.00  0.00    -0.275 OA
HETATM    2  O3  UNK     1      15.919   3.892   9.805  1.00  0.00    -0.260 OA
HETATM    3  C8  UNK     1      14.004   6.910   9.844  1.00  0.00    -0.011 A 
HETATM    4  C9  UNK     1      15.099   7.890   9.849  1.00  0.00     0.006 A 
HETATM    5  C10 UNK     1      14.302   5.604   9.830  1.00  0.00     0.092 A 
HETATM    6  C11 UNK     1      16.414   7.422   9.837  1.00  0.00     0.093 A 
HETATM    7  C12 UNK     1      14.903   9.277   9.864  1.00  0.00     0.017 A 
HETATM    8  C13 UNK     1      15.684   5.095   9.818  1.00  0.00     0.288 A 
HETATM    9  C14 UNK     1      17.513   8.285   9.841  1.00  0.00     0.075 A 
HETATM   10  C15 UNK     1      15.994  10.155   9.868  1.00  0.00     0.038 A 
HETATM   11  C16 UNK     1      17.296   9.659   9.856  1.00  0.00     0.070 A 
ENDROOT
BRANCH   3  12
HETATM   12  C6  UNK     1      12.590   7.377   9.856  1.00  0.00     0.312 C 
BRANCH  12  13
HETATM   13  N1  UNK     1      11.804   6.788   8.772  1.00  0.00     0.092 N 
HETATM   14  C4  UNK     1      12.421   7.082   7.471  1.00  0.00     0.273 C 
HETATM   15  C2  UNK     1      11.640   6.428   6.329  1.00  0.00     0.034 C 
HETATM   16  C1  UNK     1      10.170   6.861   6.339  1.00  0.00    -0.015 C 
HETATM   17  C3  UNK     1       9.568   6.619   7.726  1.00  0.00     0.034 C 
HETATM   18  C7  UNK     1       9.376   6.129   5.261  1.00  0.00     0.010 C 
HETATM   19  C5  UNK     1      10.417   7.269   8.822  1.00  0.00     0.273 C 
ENDBRANCH  12  13
ENDBRANCH   3  12
BRANCH  11  20
HETATM   20  O2  UNK     1      18.353  10.516   9.860  1.00  0.00    -0.356 OA
HETATM   21  C17 UNK     1      18.452  11.429   8.768  1.00  0.00     0.210 C 
ENDBRANCH  11  20
TORSDOF 3
ENDMDL
MODEL 8
REMARK VINA RESULT:      -7.3     14.995     16.557
REMARK  3 active torsions:
REMARK  status: ('A' for Active; 'I' for Inactive)
REMARK    1  A    between atoms: C16_20  and  O2_2 
REMARK    2  A    between atoms: C6_10  and  N1_4 
REMARK    3  A    between atoms: C6_10  and  C8_12 
ROOT
HETATM    1  O1  UNK     1      28.775  -5.573  39.537  1.00  0.00    -0.275 OA
HETATM    2  O3  UNK     1      29.543  -3.469  39.995  1.00  0.00    -0.260 OA
HETATM    3  C8  UNK     1      30.138  -5.425  37.062  1.00  0.00    -0.011 A 
HETATM    4  C9  UNK     1      29.376  -6.630  37.418  1.00  0.00     0.006 A 
HETATM    5  C10 UNK     1      30.176  -4.403  37.927  1.00  0.00     0.092 A 
HETATM    6  C11 UNK     1      28.717  -6.665  38.648  1.00  0.00     0.093 A 
HETATM    7  C12 UNK     1      29.269  -7.756  36.591  1.00  0.00     0.017 A 
HETATM    8  C13 UNK     1      29.487  -4.424  39.228  1.00  0.00     0.288 A 
HETATM    9  C14 UNK     1      27.971  -7.770  39.063  1.00  0.00     0.075 A 
HETATM   10  C15 UNK     1      28.526  -8.872  36.994  1.00  0.00     0.038 A 
HETATM   11  C16 UNK     1      27.878  -8.878  38.227  1.00  0.00     0.070 A 
ENDROOT
BRANCH   3  12
HETATM   12  C6  UNK     1      30.852  -5.357  35.758  1.00  0.00     0.312 C 
BRANCH  12  13
HETATM   13  N1  UNK     1      32.250  -5.774  35.870  1.00  0.00     0.092 N 
HETATM   14  C4  UNK     1      33.146  -4.679  35.477  1.00  0.00     0.273 C 
HETATM   15  C2  UNK     1      34.614  -5.080  35.640  1.00  0.00     0.034 C 
HETATM   16  C1  UNK     1      34.935  -6.351  34.845  1.00  0.00    -0.015 C 
HETATM   17  C3  UNK     1      33.941  -7.456  35.212  1.00  0.00     0.034 C 
HETATM   18  C7  UNK     1      36.373  -6.801  35.092  1.00  0.00     0.010 C 
HETATM   19  C5  UNK     1      32.496  -6.976  35.062  1.00  0.00     0.273 C 
ENDBRANCH  12  13
ENDBRANCH   3  12
BRANCH  11  20
HETATM   20  O2  UNK     1      27.157  -9.965  38.614  1.00  0.00    -0.356 OA
HETATM   21  C17 UNK     1      27.136 -10.267  40.008  1.00  0.00     0.210 C 
ENDBRANCH  11  20
TORSDOF 3
ENDMDL
MODEL 9
REMARK VINA RESULT:      -7.2      2.456      4.468
REMARK  3 active torsions:
REMARK  status: ('A' for Active; 'I' for Inactive)
REMARK    1  A    between atoms: C16_20  and  O2_2 
REMARK    2  A    between atoms: C6_10  and  N1_4 
REMARK    3  A    between atoms: C6_10  and  C8_12 
ROOT
HETATM    1  O1  UNK     1      18.219   1.610  31.619  1.00  0.00    -0.275 OA
HETATM    2  O3  UNK     1      18.187   2.580  29.549  1.00  0.00    -0.260 OA
HETATM    3  C8  UNK     1      18.381   4.208  32.725  1.00  0.00    -0.011 A 
HETATM    4  C9  UNK     1      18.358   3.029  33.602  1.00  0.00     0.006 A 
HETATM    5  C10 UNK     1      18.323   4.031  31.399  1.00  0.00     0.092 A 
HETATM    6  C11 UNK     1      18.278   1.764  33.018  1.00  0.00     0.093 A 
HETATM    7  C12 UNK     1      18.413   3.097  35.001  1.00  0.00     0.017 A 
HETATM    8  C13 UNK     1      18.238   2.704  30.767  1.00  0.00     0.288 A 
HETATM    9  C14 UNK     1      18.251   0.592  33.778  1.00  0.00     0.075 A 
HETATM   10  C15 UNK     1      18.386   1.932  35.776  1.00  0.00     0.038 A 
HETATM   11  C16 UNK     1      18.306   0.682  35.165  1.00  0.00     0.070 A 
ENDROOT
BRANCH   3  12
HETATM   12  C6  UNK     1      18.465   5.572  33.318  1.00  0.00     0.312 C 
BRANCH  12  13
HETATM   13  N1  UNK     1      17.222   6.325  33.154  1.00  0.00     0.092 N 
HETATM   14  C4  UNK     1      17.406   7.418  32.190  1.00  0.00     0.273 C 
HETATM   15  C2  UNK     1      16.100   8.183  31.966  1.00  0.00     0.034 C 
HETATM   16  C1  UNK     1      15.534   8.717  33.286  1.00  0.00    -0.015 C 
HETATM   17  C3  UNK     1      15.423   7.577  34.302  1.00  0.00     0.034 C 
HETATM   18  C7  UNK     1      14.182   9.392  33.068  1.00  0.00     0.010 C 
HETATM   19  C5  UNK     1      16.753   6.833  34.450  1.00  0.00     0.273 C 
ENDBRANCH  12  13
ENDBRANCH   3  12
BRANCH  11  20
HETATM   20  O2  UNK     1      18.281  -0.447  35.923  1.00  0.00    -0.356 OA
HETATM   21  C17 UNK     1      17.896  -0.303  37.290  1.00  0.00     0.210 C 
ENDBRANCH  11  20
TORSDOF 3
ENDMDL
MODEL 10
REMARK VINA RESULT:      -7.1     23.046     25.222
REMARK  3 active torsions:
REMARK  status: ('A' for Active; 'I' for Inactive)
REMARK    1  A    between atoms: C16_20  and  O2_2 
REMARK    2  A    between atoms: C6_10  and  N1_4 
REMARK    3  A    between atoms: C6_10  and  C8_12 
ROOT
HETATM    1  O1  UNK     1      15.959   6.176  10.232  1.00  0.00    -0.275 OA
HETATM    2  O3  UNK     1      15.567   3.945   9.927  1.00  0.00    -0.260 OA
HETATM    3  C8  UNK     1      14.048   6.688   8.209  1.00  0.00    -0.011 A 
HETATM    4  C9  UNK     1      14.736   7.801   8.877  1.00  0.00     0.006 A 
HETATM    5  C10 UNK     1      14.340   5.432   8.574  1.00  0.00     0.092 A 
HETATM    6  C11 UNK     1      15.673   7.508   9.870  1.00  0.00     0.093 A 
HETATM    7  C12 UNK     1      14.508   9.150   8.576  1.00  0.00     0.017 A 
HETATM    8  C13 UNK     1      15.325   5.107   9.619  1.00  0.00     0.288 A 
HETATM    9  C14 UNK     1      16.371   8.506  10.554  1.00  0.00     0.075 A 
HETATM   10  C15 UNK     1      15.200  10.161   9.253  1.00  0.00     0.038 A 
HETATM   11  C16 UNK     1      16.130   9.839  10.240  1.00  0.00     0.070 A 
ENDROOT
BRANCH   3  12
HETATM   12  C6  UNK     1      13.043   6.967   7.146  1.00  0.00     0.312 C 
BRANCH  12  13
HETATM   13  N1  UNK     1      11.681   6.647   7.575  1.00  0.00     0.092 N 
HETATM   14  C4  UNK     1      10.823   6.393   6.410  1.00  0.00     0.273 C 
HETATM   15  C2  UNK     1       9.408   6.004   6.842  1.00  0.00     0.034 C 
HETATM   16  C1  UNK     1       8.787   7.075   7.746  1.00  0.00    -0.015 C 
HETATM   17  C3  UNK     1       9.732   7.382   8.910  1.00  0.00     0.034 C 
HETATM   18  C7  UNK     1       7.416   6.635   8.253  1.00  0.00     0.010 C 
HETATM   19  C5  UNK     1      11.137   7.727   8.410  1.00  0.00     0.273 C 
ENDBRANCH  12  13
ENDBRANCH   3  12
BRANCH  11  20
HETATM   20  O2  UNK     1      16.800  10.826  10.895  1.00  0.00    -0.356 OA
HETATM   21  C17 UNK     1      17.847  11.483  10.182  1.00  0.00     0.210 C 
ENDBRANCH  11  20
TORSDOF 3
ENDMDL
