MODEL 1
REMARK VINA RESULT:      -8.4      0.000      0.000
REMARK  6 active torsions:
REMARK  status: ('A' for Active; 'I' for Inactive)
REMARK    1  A    between atoms: C12_21  and  O2_2 
REMARK    2  A    between atoms: C13_22  and  O2_2 
REMARK    3  A    between atoms: C11_20  and  N1_8 
REMARK       I    between atoms: C9_18  and  N1_8 
REMARK    4  A    between atoms: C7_16  and  N2_9 
REMARK    5  A    between atoms: C3_12  and  C9_18 
REMARK    6  A    between atoms: C11_20  and  C12_21 
ROOT
HETATM    1  O1  UNK     1      18.987   0.582  28.636  1.00  0.00    -0.274 OA
HETATM    2  O3  UNK     1      18.067   2.609  28.118  1.00  0.00    -0.259 OA
HETATM    3  C1  UNK     1      19.684   0.128  30.920  1.00  0.00     0.001 A 
HETATM    4  C2  UNK     1      19.546  -0.281  29.598  1.00  0.00     0.089 A 
HETATM    5  C3  UNK     1      18.710   2.278  30.376  1.00  0.00     0.108 A 
HETATM    6  C4  UNK     1      19.241   1.463  31.293  1.00  0.00     0.037 A 
HETATM    7  C5  UNK     1      20.243  -0.757  31.846  1.00  0.00     0.050 A 
HETATM    8  C6  UNK     1      19.952  -1.546  29.175  1.00  0.00     0.041 A 
HETATM    9  C7  UNK     1      20.654  -2.029  31.437  1.00  0.00     0.103 A 
HETATM   10  C8  UNK     1      18.554   1.864  28.963  1.00  0.00     0.304 A 
HETATM   11  C10 UNK     1      20.508  -2.422  30.104  1.00  0.00     0.039 A 
ENDROOT
BRANCH   5  12
HETATM   12  C9  UNK     1      18.293   3.604  30.849  1.00  0.00     0.258 C 
HETATM   13  O4  UNK     1      17.420   3.722  31.707  1.00  0.00    -0.267 OA
HETATM   14  N1  UNK     1      18.977   4.635  30.231  1.00  0.00    -0.347 N 
HETATM   15  H7  UNK     1      19.673   4.434  29.520  1.00  0.00     0.163 HD
BRANCH  14  16
HETATM   16  C11 UNK     1      18.737   6.029  30.529  1.00  0.00     0.233 C 
BRANCH  16  17
HETATM   17  C12 UNK     1      19.399   6.486  31.808  1.00  0.00     0.276 C 
HETATM   18  O5  UNK     1      20.531   6.129  32.120  1.00  0.00    -0.263 OA
BRANCH  17  19
HETATM   19  O2  UNK     1      18.602   7.314  32.539  1.00  0.00    -0.321 OA
BRANCH  19  20
HETATM   20  C13 UNK     1      17.239   7.400  32.113  1.00  0.00     0.174 C 
HETATM   21  C14 UNK     1      16.345   6.855  33.206  1.00  0.00     0.034 C 
ENDBRANCH  19  20
ENDBRANCH  17  19
ENDBRANCH  16  17
ENDBRANCH  14  16
ENDBRANCH   5  12
BRANCH   9  22
HETATM   22  N2  UNK     1      21.223  -2.924  32.380  1.00  0.00    -0.116 N 
HETATM   23  O6  UNK     1      21.387  -4.126  32.055  1.00  0.00    -0.532 OA
HETATM   24  O7  UNK     1      21.547  -2.490  33.512  1.00  0.00    -0.532 OA
ENDBRANCH   9  22
TORSDOF 6
ENDMDL
MODEL 2
REMARK VINA RESULT:      -8.3     12.823     16.186
REMARK  6 active torsions:
REMARK  status: ('A' for Active; 'I' for Inactive)
REMARK    1  A    between atoms: C12_21  and  O2_2 
REMARK    2  A    between atoms: C13_22  and  O2_2 
REMARK    3  A    between atoms: C11_20  and  N1_8 
REMARK       I    between atoms: C9_18  and  N1_8 
REMARK    4  A    between atoms: C7_16  and  N2_9 
REMARK    5  A    between atoms: C3_12  and  C9_18 
REMARK    6  A    between atoms: C11_20  and  C12_21 
ROOT
HETATM    1  O1  UNK     1      19.248   0.863  15.114  1.00  0.00    -0.274 OA
HETATM    2  O3  UNK     1      19.194  -0.711  13.458  1.00  0.00    -0.259 OA
HETATM    3  C1  UNK     1      19.011   0.173  17.433  1.00  0.00     0.001 A 
HETATM    4  C2  UNK     1      19.186   1.176  16.485  1.00  0.00     0.089 A 
HETATM    5  C3  UNK     1      18.952  -1.498  15.680  1.00  0.00     0.108 A 
HETATM    6  C4  UNK     1      18.891  -1.205  16.984  1.00  0.00     0.037 A 
HETATM    7  C5  UNK     1      18.954   0.524  18.784  1.00  0.00     0.050 A 
HETATM    8  C6  UNK     1      19.306   2.517  16.848  1.00  0.00     0.041 A 
HETATM    9  C7  UNK     1      19.073   1.864  19.164  1.00  0.00     0.103 A 
HETATM   10  C8  UNK     1      19.138  -0.447  14.654  1.00  0.00     0.304 A 
HETATM   11  C10 UNK     1      19.248   2.858  18.198  1.00  0.00     0.039 A 
ENDROOT
BRANCH   5  12
HETATM   12  C9  UNK     1      18.822  -2.917  15.326  1.00  0.00     0.258 C 
HETATM   13  O4  UNK     1      17.836  -3.328  14.716  1.00  0.00    -0.267 OA
HETATM   14  N1  UNK     1      19.897  -3.678  15.750  1.00  0.00    -0.347 N 
HETATM   15  H7  UNK     1      20.659  -3.246  16.263  1.00  0.00     0.163 HD
BRANCH  14  16
HETATM   16  C11 UNK     1      19.993  -5.101  15.520  1.00  0.00     0.233 C 
BRANCH  16  17
HETATM   17  C12 UNK     1      21.406  -5.567  15.259  1.00  0.00     0.276 C 
HETATM   18  O5  UNK     1      21.654  -6.687  14.823  1.00  0.00    -0.263 OA
BRANCH  17  19
HETATM   19  O2  UNK     1      22.331  -4.615  15.561  1.00  0.00    -0.321 OA
BRANCH  19  20
HETATM   20  C13 UNK     1      23.067  -4.825  16.771  1.00  0.00     0.174 C 
HETATM   21  C14 UNK     1      22.991  -3.572  17.617  1.00  0.00     0.034 C 
ENDBRANCH  19  20
ENDBRANCH  17  19
ENDBRANCH  16  17
ENDBRANCH  14  16
ENDBRANCH   5  12
BRANCH   9  22
HETATM   22  N2  UNK     1      19.014   2.216  20.538  1.00  0.00    -0.116 N 
HETATM   23  O6  UNK     1      17.893   2.311  21.094  1.00  0.00    -0.532 OA
HETATM   24  O7  UNK     1      20.085   2.423  21.159  1.00  0.00    -0.532 OA
ENDBRANCH   9  22
TORSDOF 6
ENDMDL
MODEL 3
REMARK VINA RESULT:      -8.2     13.206     16.558
REMARK  6 active torsions:
REMARK  status: ('A' for Active; 'I' for Inactive)
REMARK    1  A    between atoms: C12_21  and  O2_2 
REMARK    2  A    between atoms: C13_22  and  O2_2 
REMARK    3  A    between atoms: C11_20  and  N1_8 
REMARK       I    between atoms: C9_18  and  N1_8 
REMARK    4  A    between atoms: C7_16  and  N2_9 
REMARK    5  A    between atoms: C3_12  and  C9_18 
REMARK    6  A    between atoms: C11_20  and  C12_21 
ROOT
HETATM    1  O1  UNK     1      19.331   0.905  14.969  1.00  0.00    -0.274 OA
HETATM    2  O3  UNK     1      19.332  -0.600  13.250  1.00  0.00    -0.259 OA
HETATM    3  C1  UNK     1      18.905   0.137  17.236  1.00  0.00     0.001 A 
HETATM    4  C2  UNK     1      19.185   1.168  16.345  1.00  0.00     0.089 A 
HETATM    5  C3  UNK     1      18.904  -1.462  15.416  1.00  0.00     0.108 A 
HETATM    6  C4  UNK     1      18.764  -1.217  16.724  1.00  0.00     0.037 A 
HETATM    7  C5  UNK     1      18.768   0.438  18.593  1.00  0.00     0.050 A 
HETATM    8  C6  UNK     1      19.331   2.487  16.770  1.00  0.00     0.041 A 
HETATM    9  C7  UNK     1      18.911   1.756  19.036  1.00  0.00     0.103 A 
HETATM   10  C8  UNK     1      19.203  -0.381  14.449  1.00  0.00     0.304 A 
HETATM   11  C10 UNK     1      19.192   2.778  18.125  1.00  0.00     0.039 A 
ENDROOT
BRANCH   5  12
HETATM   12  C9  UNK     1      18.745  -2.859  14.996  1.00  0.00     0.258 C 
HETATM   13  O4  UNK     1      17.663  -3.433  15.108  1.00  0.00    -0.267 OA
HETATM   14  N1  UNK     1      19.911  -3.405  14.490  1.00  0.00    -0.347 N 
HETATM   15  H7  UNK     1      20.761  -2.852  14.453  1.00  0.00     0.163 HD
BRANCH  14  16
HETATM   16  C11 UNK     1      20.001  -4.768  14.015  1.00  0.00     0.233 C 
BRANCH  16  17
HETATM   17  C12 UNK     1      20.490  -5.734  15.068  1.00  0.00     0.276 C 
HETATM   18  O5  UNK     1      21.679  -6.004  15.205  1.00  0.00    -0.263 OA
BRANCH  17  19
HETATM   19  O2  UNK     1      19.473  -6.246  15.816  1.00  0.00    -0.321 OA
BRANCH  19  20
HETATM   20  C13 UNK     1      18.317  -6.667  15.086  1.00  0.00     0.174 C 
HETATM   21  C14 UNK     1      17.130  -6.708  16.024  1.00  0.00     0.034 C 
ENDBRANCH  19  20
ENDBRANCH  17  19
ENDBRANCH  16  17
ENDBRANCH  14  16
ENDBRANCH   5  12
BRANCH   9  22
HETATM   22  N2  UNK     1      18.770   2.057  20.416  1.00  0.00    -0.116 N 
HETATM   23  O6  UNK     1      17.640   1.942  20.951  1.00  0.00    -0.532 OA
HETATM   24  O7  UNK     1      19.778   2.429  21.063  1.00  0.00    -0.532 OA
ENDBRANCH   9  22
TORSDOF 6
ENDMDL
MODEL 4
REMARK VINA RESULT:      -8.1      3.394      8.732
REMARK  6 active torsions:
REMARK  status: ('A' for Active; 'I' for Inactive)
REMARK    1  A    between atoms: C12_21  and  O2_2 
REMARK    2  A    between atoms: C13_22  and  O2_2 
REMARK    3  A    between atoms: C11_20  and  N1_8 
REMARK       I    between atoms: C9_18  and  N1_8 
REMARK    4  A    between atoms: C7_16  and  N2_9 
REMARK    5  A    between atoms: C3_12  and  C9_18 
REMARK    6  A    between atoms: C11_20  and  C12_21 
ROOT
HETATM    1  O1  UNK     1      20.778  -2.664  30.896  1.00  0.00    -0.274 OA
HETATM    2  O3  UNK     1      21.325  -4.095  32.592  1.00  0.00    -0.259 OA
HETATM    3  C1  UNK     1      19.669  -0.563  31.410  1.00  0.00     0.001 A 
HETATM    4  C2  UNK     1      20.208  -1.446  30.480  1.00  0.00     0.089 A 
HETATM    5  C3  UNK     1      20.247  -2.078  33.210  1.00  0.00     0.108 A 
HETATM    6  C4  UNK     1      19.703  -0.920  32.820  1.00  0.00     0.037 A 
HETATM    7  C5  UNK     1      19.112   0.636  30.958  1.00  0.00     0.050 A 
HETATM    8  C6  UNK     1      20.206  -1.166  29.115  1.00  0.00     0.041 A 
HETATM    9  C7  UNK     1      19.103   0.931  29.592  1.00  0.00     0.103 A 
HETATM   10  C8  UNK     1      20.826  -3.032  32.238  1.00  0.00     0.304 A 
HETATM   11  C10 UNK     1      19.649   0.032  28.673  1.00  0.00     0.039 A 
ENDROOT
BRANCH   5  12
HETATM   12  C9  UNK     1      20.234  -2.347  34.653  1.00  0.00     0.258 C 
HETATM   13  O4  UNK     1      20.526  -1.468  35.462  1.00  0.00    -0.267 OA
HETATM   14  N1  UNK     1      19.872  -3.648  34.955  1.00  0.00    -0.347 N 
HETATM   15  H7  UNK     1      19.663  -4.306  34.211  1.00  0.00     0.163 HD
BRANCH  14  16
HETATM   16  C11 UNK     1      19.791  -4.150  36.308  1.00  0.00     0.233 C 
BRANCH  16  17
HETATM   17  C12 UNK     1      19.919  -5.652  36.394  1.00  0.00     0.276 C 
HETATM   18  O5  UNK     1      19.425  -6.298  37.312  1.00  0.00    -0.263 OA
BRANCH  17  19
HETATM   19  O2  UNK     1      20.630  -6.173  35.356  1.00  0.00    -0.321 OA
BRANCH  19  20
HETATM   20  C13 UNK     1      20.139  -7.408  34.824  1.00  0.00     0.174 C 
HETATM   21  C14 UNK     1      21.141  -8.504  35.117  1.00  0.00     0.034 C 
ENDBRANCH  19  20
ENDBRANCH  17  19
ENDBRANCH  16  17
ENDBRANCH  14  16
ENDBRANCH   5  12
BRANCH   9  22
HETATM   22  N2  UNK     1      18.535   2.151  29.137  1.00  0.00    -0.116 N 
HETATM   23  O6  UNK     1      18.659   3.180  29.845  1.00  0.00    -0.532 OA
HETATM   24  O7  UNK     1      17.927   2.166  28.040  1.00  0.00    -0.532 OA
ENDBRANCH   9  22
TORSDOF 6
ENDMDL
MODEL 5
REMARK VINA RESULT:      -8.0      3.327      6.795
REMARK  6 active torsions:
REMARK  status: ('A' for Active; 'I' for Inactive)
REMARK    1  A    between atoms: C12_21  and  O2_2 
REMARK    2  A    between atoms: C13_22  and  O2_2 
REMARK    3  A    between atoms: C11_20  and  N1_8 
REMARK       I    between atoms: C9_18  and  N1_8 
REMARK    4  A    between atoms: C7_16  and  N2_9 
REMARK    5  A    between atoms: C3_12  and  C9_18 
REMARK    6  A    between atoms: C11_20  and  C12_21 
ROOT
HETATM    1  O1  UNK     1      20.738  -2.600  30.856  1.00  0.00    -0.274 OA
HETATM    2  O3  UNK     1      21.304  -4.015  32.558  1.00  0.00    -0.259 OA
HETATM    3  C1  UNK     1      19.645  -0.488  31.364  1.00  0.00     0.001 A 
HETATM    4  C2  UNK     1      20.166  -1.383  30.436  1.00  0.00     0.089 A 
HETATM    5  C3  UNK     1      20.244  -1.987  33.172  1.00  0.00     0.108 A 
HETATM    6  C4  UNK     1      19.699  -0.830  32.777  1.00  0.00     0.037 A 
HETATM    7  C5  UNK     1      19.087   0.708  30.908  1.00  0.00     0.050 A 
HETATM    8  C6  UNK     1      20.145  -1.117  29.068  1.00  0.00     0.041 A 
HETATM    9  C7  UNK     1      19.058   0.989  29.539  1.00  0.00     0.103 A 
HETATM   10  C8  UNK     1      20.804  -2.954  32.201  1.00  0.00     0.304 A 
HETATM   11  C10 UNK     1      19.586   0.078  28.621  1.00  0.00     0.039 A 
ENDROOT
BRANCH   5  12
HETATM   12  C9  UNK     1      20.252  -2.241  34.617  1.00  0.00     0.258 C 
HETATM   13  O4  UNK     1      21.310  -2.403  35.224  1.00  0.00    -0.267 OA
HETATM   14  N1  UNK     1      18.982  -2.272  35.165  1.00  0.00    -0.347 N 
HETATM   15  H7  UNK     1      18.167  -2.142  34.575  1.00  0.00     0.163 HD
BRANCH  14  16
HETATM   16  C11 UNK     1      18.736  -2.509  36.570  1.00  0.00     0.233 C 
BRANCH  16  17
HETATM   17  C12 UNK     1      18.424  -1.248  37.340  1.00  0.00     0.276 C 
HETATM   18  O5  UNK     1      18.506  -1.193  38.563  1.00  0.00    -0.263 OA
BRANCH  17  19
HETATM   19  O2  UNK     1      18.051  -0.221  36.527  1.00  0.00    -0.321 OA
BRANCH  19  20
HETATM   20  C13 UNK     1      16.662   0.122  36.557  1.00  0.00     0.174 C 
HETATM   21  C14 UNK     1      16.115   0.088  35.146  1.00  0.00     0.034 C 
ENDBRANCH  19  20
ENDBRANCH  17  19
ENDBRANCH  16  17
ENDBRANCH  14  16
ENDBRANCH   5  12
BRANCH   9  22
HETATM   22  N2  UNK     1      18.489   2.206  29.080  1.00  0.00    -0.116 N 
HETATM   23  O6  UNK     1      18.641   3.246  29.767  1.00  0.00    -0.532 OA
HETATM   24  O7  UNK     1      17.851   2.209  27.999  1.00  0.00    -0.532 OA
ENDBRANCH   9  22
TORSDOF 6
ENDMDL
MODEL 6
REMARK VINA RESULT:      -7.9      3.614      4.521
REMARK  6 active torsions:
REMARK  status: ('A' for Active; 'I' for Inactive)
REMARK    1  A    between atoms: C12_21  and  O2_2 
REMARK    2  A    between atoms: C13_22  and  O2_2 
REMARK    3  A    between atoms: C11_20  and  N1_8 
REMARK       I    between atoms: C9_18  and  N1_8 
REMARK    4  A    between atoms: C7_16  and  N2_9 
REMARK    5  A    between atoms: C3_12  and  C9_18 
REMARK    6  A    between atoms: C11_20  and  C12_21 
ROOT
HETATM    1  O1  UNK     1      18.295   1.411  32.413  1.00  0.00    -0.274 OA
HETATM    2  O3  UNK     1      18.465   3.014  30.794  1.00  0.00    -0.259 OA
HETATM    3  C1  UNK     1      18.274   2.067  34.754  1.00  0.00     0.001 A 
HETATM    4  C2  UNK     1      18.228   1.076  33.780  1.00  0.00     0.089 A 
HETATM    5  C3  UNK     1      18.455   3.770  33.040  1.00  0.00     0.108 A 
HETATM    6  C4  UNK     1      18.393   3.456  34.339  1.00  0.00     0.037 A 
HETATM    7  C5  UNK     1      18.205   1.695  36.099  1.00  0.00     0.050 A 
HETATM    8  C6  UNK     1      18.117  -0.274  34.109  1.00  0.00     0.041 A 
HETATM    9  C7  UNK     1      18.093   0.345  36.446  1.00  0.00     0.103 A 
HETATM   10  C8  UNK     1      18.408   2.731  31.986  1.00  0.00     0.304 A 
HETATM   11  C10 UNK     1      18.049  -0.636  35.453  1.00  0.00     0.039 A 
ENDROOT
BRANCH   5  12
HETATM   12  C9  UNK     1      18.573   5.198  32.721  1.00  0.00     0.258 C 
HETATM   13  O4  UNK     1      19.432   5.896  33.259  1.00  0.00    -0.267 OA
HETATM   14  N1  UNK     1      17.641   5.620  31.791  1.00  0.00    -0.347 N 
HETATM   15  H7  UNK     1      16.961   4.967  31.415  1.00  0.00     0.163 HD
BRANCH  14  16
HETATM   16  C11 UNK     1      17.559   6.985  31.322  1.00  0.00     0.233 C 
BRANCH  16  17
HETATM   17  C12 UNK     1      16.286   7.682  31.739  1.00  0.00     0.276 C 
HETATM   18  O5  UNK     1      15.859   8.669  31.148  1.00  0.00    -0.263 OA
BRANCH  17  19
HETATM   19  O2  UNK     1      15.700   7.092  32.817  1.00  0.00    -0.321 OA
BRANCH  19  20
HETATM   20  C13 UNK     1      15.638   7.889  34.004  1.00  0.00     0.174 C 
HETATM   21  C14 UNK     1      16.723   7.436  34.958  1.00  0.00     0.034 C 
ENDBRANCH  19  20
ENDBRANCH  17  19
ENDBRANCH  16  17
ENDBRANCH  14  16
ENDBRANCH   5  12
BRANCH   9  22
HETATM   22  N2  UNK     1      18.024  -0.029  37.813  1.00  0.00    -0.116 N 
HETATM   23  O6  UNK     1      18.073  -1.247  38.114  1.00  0.00    -0.532 OA
HETATM   24  O7  UNK     1      17.917   0.868  38.684  1.00  0.00    -0.532 OA
ENDBRANCH   9  22
TORSDOF 6
ENDMDL
MODEL 7
REMARK VINA RESULT:      -7.7     14.809     16.833
REMARK  6 active torsions:
REMARK  status: ('A' for Active; 'I' for Inactive)
REMARK    1  A    between atoms: C12_21  and  O2_2 
REMARK    2  A    between atoms: C13_22  and  O2_2 
REMARK    3  A    between atoms: C11_20  and  N1_8 
REMARK       I    between atoms: C9_18  and  N1_8 
REMARK    4  A    between atoms: C7_16  and  N2_9 
REMARK    5  A    between atoms: C3_12  and  C9_18 
REMARK    6  A    between atoms: C11_20  and  C12_21 
ROOT
HETATM    1  O1  UNK     1      19.346  -2.258  12.899  1.00  0.00    -0.274 OA
HETATM    2  O3  UNK     1      19.367  -0.366  14.180  1.00  0.00    -0.259 OA
HETATM    3  C1  UNK     1      18.507  -4.336  13.841  1.00  0.00     0.001 A 
HETATM    4  C2  UNK     1      19.052  -3.629  12.774  1.00  0.00     0.089 A 
HETATM    5  C3  UNK     1      18.527  -2.332  15.203  1.00  0.00     0.108 A 
HETATM    6  C4  UNK     1      18.247  -3.635  15.089  1.00  0.00     0.037 A 
HETATM    7  C5  UNK     1      18.228  -5.695  13.678  1.00  0.00     0.050 A 
HETATM    8  C6  UNK     1      19.326  -4.241  11.552  1.00  0.00     0.041 A 
HETATM    9  C7  UNK     1      18.497  -6.322  12.458  1.00  0.00     0.103 A 
HETATM   10  C8  UNK     1      19.108  -1.560  14.081  1.00  0.00     0.304 A 
HETATM   11  C10 UNK     1      19.045  -5.596  11.398  1.00  0.00     0.039 A 
ENDROOT
BRANCH   5  12
HETATM   12  C9  UNK     1      18.229  -1.714  16.500  1.00  0.00     0.258 C 
HETATM   13  O4  UNK     1      17.114  -1.820  17.009  1.00  0.00    -0.267 OA
HETATM   14  N1  UNK     1      19.311  -1.038  17.036  1.00  0.00    -0.347 N 
HETATM   15  H7  UNK     1      20.190  -0.996  16.529  1.00  0.00     0.163 HD
BRANCH  14  16
HETATM   16  C11 UNK     1      19.259  -0.348  18.305  1.00  0.00     0.233 C 
BRANCH  16  17
HETATM   17  C12 UNK     1      18.946   1.123  18.168  1.00  0.00     0.276 C 
HETATM   18  O5  UNK     1      18.931   1.689  17.080  1.00  0.00    -0.263 OA
BRANCH  17  19
HETATM   19  O2  UNK     1      18.693   1.714  19.369  1.00  0.00    -0.321 OA
BRANCH  19  20
HETATM   20  C13 UNK     1      19.127   0.988  20.523  1.00  0.00     0.174 C 
HETATM   21  C14 UNK     1      19.721   1.958  21.521  1.00  0.00     0.034 C 
ENDBRANCH  19  20
ENDBRANCH  17  19
ENDBRANCH  16  17
ENDBRANCH  14  16
ENDBRANCH   5  12
BRANCH   9  22
HETATM   22  N2  UNK     1      18.214  -7.704  12.297  1.00  0.00    -0.116 N 
HETATM   23  O6  UNK     1      18.522  -8.266  11.218  1.00  0.00    -0.532 OA
HETATM   24  O7  UNK     1      17.664  -8.326  13.238  1.00  0.00    -0.532 OA
ENDBRANCH   9  22
TORSDOF 6
ENDMDL
MODEL 8
REMARK VINA RESULT:      -7.6      3.660      5.978
REMARK  6 active torsions:
REMARK  status: ('A' for Active; 'I' for Inactive)
REMARK    1  A    between atoms: C12_21  and  O2_2 
REMARK    2  A    between atoms: C13_22  and  O2_2 
REMARK    3  A    between atoms: C11_20  and  N1_8 
REMARK       I    between atoms: C9_18  and  N1_8 
REMARK    4  A    between atoms: C7_16  and  N2_9 
REMARK    5  A    between atoms: C3_12  and  C9_18 
REMARK    6  A    between atoms: C11_20  and  C12_21 
ROOT
HETATM    1  O1  UNK     1      20.512  -2.931  34.228  1.00  0.00    -0.274 OA
HETATM    2  O3  UNK     1      21.303  -3.476  32.154  1.00  0.00    -0.259 OA
HETATM    3  C1  UNK     1      18.958  -1.078  34.471  1.00  0.00     0.001 A 
HETATM    4  C2  UNK     1      19.704  -2.108  35.035  1.00  0.00     0.089 A 
HETATM    5  C3  UNK     1      19.795  -1.651  32.271  1.00  0.00     0.108 A 
HETATM    6  C4  UNK     1      19.027  -0.865  33.033  1.00  0.00     0.037 A 
HETATM    7  C5  UNK     1      18.168  -0.283  35.304  1.00  0.00     0.050 A 
HETATM    8  C6  UNK     1      19.684  -2.364  36.405  1.00  0.00     0.041 A 
HETATM    9  C7  UNK     1      18.137  -0.527  36.680  1.00  0.00     0.103 A 
HETATM   10  C8  UNK     1      20.597  -2.753  32.849  1.00  0.00     0.304 A 
HETATM   11  C10 UNK     1      18.894  -1.566  37.229  1.00  0.00     0.039 A 
ENDROOT
BRANCH   5  12
HETATM   12  C9  UNK     1      19.797  -1.359  30.833  1.00  0.00     0.258 C 
HETATM   13  O4  UNK     1      20.166  -2.202  30.017  1.00  0.00    -0.267 OA
HETATM   14  N1  UNK     1      19.355  -0.080  30.543  1.00  0.00    -0.347 N 
HETATM   15  H7  UNK     1      19.085   0.550  31.291  1.00  0.00     0.163 HD
BRANCH  14  16
HETATM   16  C11 UNK     1      19.272   0.438  29.196  1.00  0.00     0.233 C 
BRANCH  16  17
HETATM   17  C12 UNK     1      18.701   1.834  29.130  1.00  0.00     0.276 C 
HETATM   18  O5  UNK     1      18.063   2.234  28.161  1.00  0.00    -0.263 OA
BRANCH  17  19
HETATM   19  O2  UNK     1      18.979   2.563  30.246  1.00  0.00    -0.321 OA
BRANCH  19  20
HETATM   20  C13 UNK     1      18.779   3.975  30.132  1.00  0.00     0.174 C 
HETATM   21  C14 UNK     1      18.413   4.533  31.492  1.00  0.00     0.034 C 
ENDBRANCH  19  20
ENDBRANCH  17  19
ENDBRANCH  16  17
ENDBRANCH  14  16
ENDBRANCH   5  12
BRANCH   9  22
HETATM   22  N2  UNK     1      17.334   0.284  37.524  1.00  0.00    -0.116 N 
HETATM   23  O6  UNK     1      17.855   0.810  38.538  1.00  0.00    -0.532 OA
HETATM   24  O7  UNK     1      16.126   0.455  37.233  1.00  0.00    -0.532 OA
ENDBRANCH   9  22
TORSDOF 6
ENDMDL
MODEL 9
REMARK VINA RESULT:      -7.6      2.813      9.045
REMARK  6 active torsions:
REMARK  status: ('A' for Active; 'I' for Inactive)
REMARK    1  A    between atoms: C12_21  and  O2_2 
REMARK    2  A    between atoms: C13_22  and  O2_2 
REMARK    3  A    between atoms: C11_20  and  N1_8 
REMARK       I    between atoms: C9_18  and  N1_8 
REMARK    4  A    between atoms: C7_16  and  N2_9 
REMARK    5  A    between atoms: C3_12  and  C9_18 
REMARK    6  A    between atoms: C11_20  and  C12_21 
ROOT
HETATM    1  O1  UNK     1      19.427   7.456  32.716  1.00  0.00    -0.274 OA
HETATM    2  O3  UNK     1      20.490   5.594  31.924  1.00  0.00    -0.259 OA
HETATM    3  C1  UNK     1      17.147   7.276  33.540  1.00  0.00     0.001 A 
HETATM    4  C2  UNK     1      18.277   8.044  33.275  1.00  0.00     0.089 A 
HETATM    5  C3  UNK     1      18.270   5.301  32.700  1.00  0.00     0.108 A 
HETATM    6  C4  UNK     1      17.174   5.856  33.230  1.00  0.00     0.037 A 
HETATM    7  C5  UNK     1      16.025   7.897  34.095  1.00  0.00     0.050 A 
HETATM    8  C6  UNK     1      18.316   9.411  33.546  1.00  0.00     0.041 A 
HETATM    9  C7  UNK     1      16.050   9.266  34.373  1.00  0.00     0.103 A 
HETATM   10  C8  UNK     1      19.483   6.098  32.409  1.00  0.00     0.304 A 
HETATM   11  C10 UNK     1      17.193  10.021  34.100  1.00  0.00     0.039 A 
ENDROOT
BRANCH   5  12
HETATM   12  C9  UNK     1      18.200   3.861  32.423  1.00  0.00     0.258 C 
HETATM   13  O4  UNK     1      17.886   3.063  33.305  1.00  0.00    -0.267 OA
HETATM   14  N1  UNK     1      18.519   3.549  31.114  1.00  0.00    -0.347 N 
HETATM   15  H7  UNK     1      18.782   4.282  30.463  1.00  0.00     0.163 HD
BRANCH  14  16
HETATM   16  C11 UNK     1      18.523   2.196  30.605  1.00  0.00     0.233 C 
BRANCH  16  17
HETATM   17  C12 UNK     1      18.491   2.127  29.097  1.00  0.00     0.276 C 
HETATM   18  O5  UNK     1      17.947   2.991  28.416  1.00  0.00    -0.263 OA
BRANCH  17  19
HETATM   19  O2  UNK     1      19.120   1.021  28.613  1.00  0.00    -0.321 OA
BRANCH  19  20
HETATM   20  C13 UNK     1      19.726   0.172  29.593  1.00  0.00     0.174 C 
HETATM   21  C14 UNK     1      20.753  -0.708  28.916  1.00  0.00     0.034 C 
ENDBRANCH  19  20
ENDBRANCH  17  19
ENDBRANCH  16  17
ENDBRANCH  14  16
ENDBRANCH   5  12
BRANCH   9  22
HETATM   22  N2  UNK     1      14.907   9.893  34.936  1.00  0.00    -0.116 N 
HETATM   23  O6  UNK     1      14.975  10.347  36.105  1.00  0.00    -0.532 OA
HETATM   24  O7  UNK     1      13.860   9.978  34.250  1.00  0.00    -0.532 OA
ENDBRANCH   9  22
TORSDOF 6
ENDMDL
MODEL 10
REMARK VINA RESULT:      -7.5      3.644      5.447
REMARK  6 active torsions:
REMARK  status: ('A' for Active; 'I' for Inactive)
REMARK    1  A    between atoms: C12_21  and  O2_2 
REMARK    2  A    between atoms: C13_22  and  O2_2 
REMARK    3  A    between atoms: C11_20  and  N1_8 
REMARK       I    between atoms: C9_18  and  N1_8 
REMARK    4  A    between atoms: C7_16  and  N2_9 
REMARK    5  A    between atoms: C3_12  and  C9_18 
REMARK    6  A    between atoms: C11_20  and  C12_21 
ROOT
HETATM    1  O1  UNK     1      18.331  -0.369  35.031  1.00  0.00    -0.274 OA
HETATM    2  O3  UNK     1      17.891   0.878  33.167  1.00  0.00    -0.259 OA
HETATM    3  C1  UNK     1      19.701  -2.368  34.841  1.00  0.00     0.001 A 
HETATM    4  C2  UNK     1      18.954  -1.488  35.617  1.00  0.00     0.089 A 
HETATM    5  C3  UNK     1      19.236  -1.049  32.863  1.00  0.00     0.108 A 
HETATM    6  C4  UNK     1      19.828  -2.114  33.414  1.00  0.00     0.037 A 
HETATM    7  C5  UNK     1      20.304  -3.467  35.459  1.00  0.00     0.050 A 
HETATM    8  C6  UNK     1      18.791  -1.674  36.988  1.00  0.00     0.041 A 
HETATM    9  C7  UNK     1      20.150  -3.667  36.834  1.00  0.00     0.103 A 
HETATM   10  C8  UNK     1      18.436  -0.099  33.669  1.00  0.00     0.304 A 
HETATM   11  C10 UNK     1      19.396  -2.772  37.596  1.00  0.00     0.039 A 
ENDROOT
BRANCH   5  12
HETATM   12  C9  UNK     1      19.422  -0.878  31.417  1.00  0.00     0.258 C 
HETATM   13  O4  UNK     1      19.988  -1.741  30.747  1.00  0.00    -0.267 OA
HETATM   14  N1  UNK     1      18.906   0.315  30.945  1.00  0.00    -0.347 N 
HETATM   15  H7  UNK     1      18.469   0.971  31.584  1.00  0.00     0.163 HD
BRANCH  14  16
HETATM   16  C11 UNK     1      18.973   0.708  29.556  1.00  0.00     0.233 C 
BRANCH  16  17
HETATM   17  C12 UNK     1      18.189   1.963  29.254  1.00  0.00     0.276 C 
HETATM   18  O5  UNK     1      17.936   2.314  28.106  1.00  0.00    -0.263 OA
BRANCH  17  19
HETATM   19  O2  UNK     1      17.815   2.626  30.382  1.00  0.00    -0.321 OA
BRANCH  19  20
HETATM   20  C13 UNK     1      18.672   3.699  30.785  1.00  0.00     0.174 C 
HETATM   21  C14 UNK     1      18.021   4.449  31.928  1.00  0.00     0.034 C 
ENDBRANCH  19  20
ENDBRANCH  17  19
ENDBRANCH  16  17
ENDBRANCH  14  16
ENDBRANCH   5  12
BRANCH   9  22
HETATM   22  N2  UNK     1      20.763  -4.785  37.457  1.00  0.00    -0.116 N 
HETATM   23  O6  UNK     1      20.036  -5.694  37.927  1.00  0.00    -0.532 OA
HETATM   24  O7  UNK     1      22.015  -4.835  37.521  1.00  0.00    -0.532 OA
ENDBRANCH   9  22
TORSDOF 6
ENDMDL
