MODEL 1
REMARK VINA RESULT:      -8.0      0.000      0.000
REMARK  2 active torsions:
REMARK  status: ('A' for Active; 'I' for Inactive)
REMARK    1  A    between atoms: C4_8  and  O2_2 
REMARK    2  A    between atoms: C6_10  and  O3_3 
ROOT
HETATM    1  O1  UNK     1      19.382   2.840  20.255  1.00  0.00    -0.275 OA
HETATM    2  O4  UNK     1      19.494   2.795  22.543  1.00  0.00    -0.260 OA
HETATM    3  C1  UNK     1      19.255   0.737  19.036  1.00  0.00     0.001 A 
HETATM    4  C2  UNK     1      19.298   2.129  19.041  1.00  0.00     0.092 A 
HETATM    5  C3  UNK     1      19.172   0.070  17.812  1.00  0.00     0.054 A 
HETATM    6  C4  UNK     1      19.135   0.799  16.619  1.00  0.00     0.102 A 
HETATM    7  C5  UNK     1      19.262   2.868  17.861  1.00  0.00     0.077 A 
HETATM    8  C6  UNK     1      19.180   2.194  16.644  1.00  0.00     0.101 A 
HETATM    9  C7  UNK     1      19.297   0.031  20.304  1.00  0.00     0.020 A 
HETATM   10  C8  UNK     1      19.375   0.711  21.450  1.00  0.00     0.083 A 
HETATM   11  C9  UNK     1      19.421   2.184  21.482  1.00  0.00     0.288 A 
ENDROOT
BRANCH   6  12
HETATM   12  O2  UNK     1      19.056   0.132  15.433  1.00  0.00    -0.353 OA
HETATM   13  C10 UNK     1      18.922  -1.286  15.494  1.00  0.00     0.210 C 
ENDBRANCH   6  12
BRANCH   8  14
HETATM   14  O3  UNK     1      19.145   2.907  15.483  1.00  0.00    -0.358 OA
HETATM   15  H5  UNK     1      18.223   2.960  15.181  1.00  0.00     0.217 HD
ENDBRANCH   8  14
TORSDOF 2
ENDMDL
MODEL 2
REMARK VINA RESULT:      -7.2      1.070      4.877
REMARK  2 active torsions:
REMARK  status: ('A' for Active; 'I' for Inactive)
REMARK    1  A    between atoms: C4_8  and  O2_2 
REMARK    2  A    between atoms: C6_10  and  O3_3 
ROOT
HETATM    1  O1  UNK     1      19.334   0.969  15.263  1.00  0.00    -0.275 OA
HETATM    2  O4  UNK     1      19.229  -0.649  13.645  1.00  0.00    -0.260 OA
HETATM    3  C1  UNK     1      18.940   0.348  17.584  1.00  0.00     0.001 A 
HETATM    4  C2  UNK     1      19.235   1.315  16.626  1.00  0.00     0.092 A 
HETATM    5  C3  UNK     1      18.851   0.732  18.924  1.00  0.00     0.054 A 
HETATM    6  C4  UNK     1      19.055   2.067  19.284  1.00  0.00     0.102 A 
HETATM    7  C5  UNK     1      19.441   2.650  16.970  1.00  0.00     0.077 A 
HETATM    8  C6  UNK     1      19.350   3.023  18.310  1.00  0.00     0.101 A 
HETATM    9  C7  UNK     1      18.737  -1.024  17.154  1.00  0.00     0.020 A 
HETATM   10  C8  UNK     1      18.833  -1.344  15.861  1.00  0.00     0.083 A 
HETATM   11  C9  UNK     1      19.145  -0.339  14.828  1.00  0.00     0.288 A 
ENDROOT
BRANCH   6  12
HETATM   12  O2  UNK     1      18.963   2.425  20.595  1.00  0.00    -0.353 OA
HETATM   13  C10 UNK     1      20.036   2.037  21.450  1.00  0.00     0.210 C 
ENDBRANCH   6  12
BRANCH   8  14
HETATM   14  O3  UNK     1      19.548   4.325  18.658  1.00  0.00    -0.358 OA
HETATM   15  H5  UNK     1      20.503   4.476  18.758  1.00  0.00     0.217 HD
ENDBRANCH   8  14
TORSDOF 2
ENDMDL
MODEL 3
REMARK VINA RESULT:      -6.5     10.493     12.900
REMARK  2 active torsions:
REMARK  status: ('A' for Active; 'I' for Inactive)
REMARK    1  A    between atoms: C4_8  and  O2_2 
REMARK    2  A    between atoms: C6_10  and  O3_3 
ROOT
HETATM    1  O1  UNK     1      18.963   0.551  28.615  1.00  0.00    -0.275 OA
HETATM    2  O4  UNK     1      17.921   2.487  27.971  1.00  0.00    -0.260 OA
HETATM    3  C1  UNK     1      19.419   0.183  30.978  1.00  0.00     0.001 A 
HETATM    4  C2  UNK     1      19.481  -0.247  29.655  1.00  0.00     0.092 A 
HETATM    5  C3  UNK     1      19.943  -0.638  31.979  1.00  0.00     0.054 A 
HETATM    6  C4  UNK     1      20.519  -1.867  31.645  1.00  0.00     0.102 A 
HETATM    7  C5  UNK     1      20.052  -1.470  29.307  1.00  0.00     0.077 A 
HETATM    8  C6  UNK     1      20.573  -2.282  30.313  1.00  0.00     0.101 A 
HETATM    9  C7  UNK     1      18.810   1.469  31.268  1.00  0.00     0.020 A 
HETATM   10  C8  UNK     1      18.320   2.220  30.278  1.00  0.00     0.083 A 
HETATM   11  C9  UNK     1      18.374   1.786  28.869  1.00  0.00     0.288 A 
ENDROOT
BRANCH   6  12
HETATM   12  O2  UNK     1      21.027  -2.655  32.634  1.00  0.00    -0.353 OA
HETATM   13  C10 UNK     1      20.402  -2.574  33.913  1.00  0.00     0.210 C 
ENDBRANCH   6  12
BRANCH   8  14
HETATM   14  O3  UNK     1      21.135  -3.479  29.985  1.00  0.00    -0.358 OA
HETATM   15  H5  UNK     1      21.844  -3.321  29.339  1.00  0.00     0.217 HD
ENDBRANCH   8  14
TORSDOF 2
ENDMDL
MODEL 4
REMARK VINA RESULT:      -6.4     13.333     15.787
REMARK  2 active torsions:
REMARK  status: ('A' for Active; 'I' for Inactive)
REMARK    1  A    between atoms: C4_8  and  O2_2 
REMARK    2  A    between atoms: C6_10  and  O3_3 
ROOT
HETATM    1  O1  UNK     1      20.421   6.370  32.759  1.00  0.00    -0.275 OA
HETATM    2  O4  UNK     1      22.113   5.812  31.318  1.00  0.00    -0.260 OA
HETATM    3  C1  UNK     1      18.139   6.477  31.918  1.00  0.00     0.001 A 
HETATM    4  C2  UNK     1      19.046   6.600  32.967  1.00  0.00     0.092 A 
HETATM    5  C3  UNK     1      16.785   6.713  32.166  1.00  0.00     0.054 A 
HETATM    6  C4  UNK     1      16.361   7.067  33.450  1.00  0.00     0.102 A 
HETATM    7  C5  UNK     1      18.638   6.951  34.253  1.00  0.00     0.077 A 
HETATM    8  C6  UNK     1      17.285   7.185  34.490  1.00  0.00     0.101 A 
HETATM    9  C7  UNK     1      18.635   6.108  30.604  1.00  0.00     0.020 A 
HETATM   10  C8  UNK     1      19.939   5.891  30.414  1.00  0.00     0.083 A 
HETATM   11  C9  UNK     1      20.919   6.014  31.509  1.00  0.00     0.288 A 
ENDROOT
BRANCH   6  12
HETATM   12  O2  UNK     1      15.037   7.294  33.675  1.00  0.00    -0.353 OA
HETATM   13  C10 UNK     1      14.189   7.372  32.532  1.00  0.00     0.210 C 
ENDBRANCH   6  12
BRANCH   8  14
HETATM   14  O3  UNK     1      16.874   7.530  35.743  1.00  0.00    -0.358 OA
HETATM   15  H5  UNK     1      17.159   6.839  36.363  1.00  0.00     0.217 HD
ENDBRANCH   8  14
TORSDOF 2
ENDMDL
MODEL 5
REMARK VINA RESULT:      -6.2     12.649     15.874
REMARK  2 active torsions:
REMARK  status: ('A' for Active; 'I' for Inactive)
REMARK    1  A    between atoms: C4_8  and  O2_2 
REMARK    2  A    between atoms: C6_10  and  O3_3 
ROOT
HETATM    1  O1  UNK     1      17.525   4.106  32.317  1.00  0.00    -0.275 OA
HETATM    2  O4  UNK     1      17.634   2.464  30.723  1.00  0.00    -0.260 OA
HETATM    3  C1  UNK     1      19.063   5.987  32.184  1.00  0.00     0.001 A 
HETATM    4  C2  UNK     1      18.019   5.325  32.823  1.00  0.00     0.092 A 
HETATM    5  C3  UNK     1      19.524   7.194  32.717  1.00  0.00     0.054 A 
HETATM    6  C4  UNK     1      18.937   7.716  33.873  1.00  0.00     0.102 A 
HETATM    7  C5  UNK     1      17.424   5.834  33.976  1.00  0.00     0.077 A 
HETATM    8  C6  UNK     1      17.890   7.038  34.501  1.00  0.00     0.101 A 
HETATM    9  C7  UNK     1      19.636   5.399  30.986  1.00  0.00     0.020 A 
HETATM   10  C8  UNK     1      19.163   4.244  30.512  1.00  0.00     0.083 A 
HETATM   11  C9  UNK     1      18.057   3.524  31.170  1.00  0.00     0.288 A 
ENDROOT
BRANCH   6  12
HETATM   12  O2  UNK     1      19.399   8.893  34.381  1.00  0.00    -0.353 OA
HETATM   13  C10 UNK     1      18.791  10.089  33.898  1.00  0.00     0.210 C 
ENDBRANCH   6  12
BRANCH   8  14
HETATM   14  O3  UNK     1      17.317   7.544  35.628  1.00  0.00    -0.358 OA
HETATM   15  H5  UNK     1      16.591   6.957  35.897  1.00  0.00     0.217 HD
ENDBRANCH   8  14
TORSDOF 2
ENDMDL
MODEL 6
REMARK VINA RESULT:      -6.2     11.487     13.499
REMARK  2 active torsions:
REMARK  status: ('A' for Active; 'I' for Inactive)
REMARK    1  A    between atoms: C4_8  and  O2_2 
REMARK    2  A    between atoms: C6_10  and  O3_3 
ROOT
HETATM    1  O1  UNK     1      19.849  -1.168  31.346  1.00  0.00    -0.275 OA
HETATM    2  O4  UNK     1      20.842  -2.803  30.084  1.00  0.00    -0.260 OA
HETATM    3  C1  UNK     1      19.267   0.948  30.294  1.00  0.00     0.001 A 
HETATM    4  C2  UNK     1      19.303   0.129  31.419  1.00  0.00     0.092 A 
HETATM    5  C3  UNK     1      18.718   2.227  30.409  1.00  0.00     0.054 A 
HETATM    6  C4  UNK     1      18.218   2.666  31.638  1.00  0.00     0.102 A 
HETATM    7  C5  UNK     1      18.808   0.552  32.651  1.00  0.00     0.077 A 
HETATM    8  C6  UNK     1      18.262   1.831  32.756  1.00  0.00     0.101 A 
HETATM    9  C7  UNK     1      19.802   0.442  29.043  1.00  0.00     0.020 A 
HETATM   10  C8  UNK     1      20.317  -0.789  28.980  1.00  0.00     0.083 A 
HETATM   11  C9  UNK     1      20.366  -1.675  30.157  1.00  0.00     0.288 A 
ENDROOT
BRANCH   6  12
HETATM   12  O2  UNK     1      17.686   3.917  31.733  1.00  0.00    -0.353 OA
HETATM   13  C10 UNK     1      18.602   5.005  31.820  1.00  0.00     0.210 C 
ENDBRANCH   6  12
BRANCH   8  14
HETATM   14  O3  UNK     1      17.776   2.256  33.955  1.00  0.00    -0.358 OA
HETATM   15  H5  UNK     1      17.043   2.872  33.791  1.00  0.00     0.217 HD
ENDBRANCH   8  14
TORSDOF 2
ENDMDL
MODEL 7
REMARK VINA RESULT:      -6.1     18.668     21.113
REMARK  2 active torsions:
REMARK  status: ('A' for Active; 'I' for Inactive)
REMARK    1  A    between atoms: C4_8  and  O2_2 
REMARK    2  A    between atoms: C6_10  and  O3_3 
ROOT
HETATM    1  O1  UNK     1      19.566  -9.499  37.027  1.00  0.00    -0.275 OA
HETATM    2  O4  UNK     1      19.290 -11.465  38.170  1.00  0.00    -0.260 OA
HETATM    3  C1  UNK     1      20.356  -7.534  38.227  1.00  0.00     0.001 A 
HETATM    4  C2  UNK     1      19.935  -8.138  37.045  1.00  0.00     0.092 A 
HETATM    5  C3  UNK     1      20.713  -6.184  38.203  1.00  0.00     0.054 A 
HETATM    6  C4  UNK     1      20.644  -5.463  37.007  1.00  0.00     0.102 A 
HETATM    7  C5  UNK     1      19.862  -7.433  35.846  1.00  0.00     0.077 A 
HETATM    8  C6  UNK     1      20.220  -6.086  35.832  1.00  0.00     0.101 A 
HETATM    9  C7  UNK     1      20.408  -8.329  39.440  1.00  0.00     0.020 A 
HETATM   10  C8  UNK     1      20.058  -9.618  39.415  1.00  0.00     0.083 A 
HETATM   11  C9  UNK     1      19.610 -10.281  38.177  1.00  0.00     0.288 A 
ENDROOT
BRANCH   6  12
HETATM   12  O2  UNK     1      20.995  -4.147  37.002  1.00  0.00    -0.353 OA
HETATM   13  C10 UNK     1      19.989  -3.206  37.369  1.00  0.00     0.210 C 
ENDBRANCH   6  12
BRANCH   8  14
HETATM   14  O3  UNK     1      20.151  -5.386  34.665  1.00  0.00    -0.358 OA
HETATM   15  H5  UNK     1      20.009  -6.013  33.936  1.00  0.00     0.217 HD
ENDBRANCH   8  14
TORSDOF 2
ENDMDL
MODEL 8
REMARK VINA RESULT:      -6.1     12.144     14.220
REMARK  2 active torsions:
REMARK  status: ('A' for Active; 'I' for Inactive)
REMARK    1  A    between atoms: C4_8  and  O2_2 
REMARK    2  A    between atoms: C6_10  and  O3_3 
ROOT
HETATM    1  O1  UNK     1      13.947   5.894   7.547  1.00  0.00    -0.275 OA
HETATM    2  O4  UNK     1      15.857   5.534   8.759  1.00  0.00    -0.260 OA
HETATM    3  C1  UNK     1      11.790   5.748   8.666  1.00  0.00     0.001 A 
HETATM    4  C2  UNK     1      12.540   5.968   7.513  1.00  0.00     0.092 A 
HETATM    5  C3  UNK     1      10.398   5.832   8.591  1.00  0.00     0.054 A 
HETATM    6  C4  UNK     1       9.780   6.131   7.373  1.00  0.00     0.102 A 
HETATM    7  C5  UNK     1      11.938   6.268   6.293  1.00  0.00     0.077 A 
HETATM    8  C6  UNK     1      10.548   6.349   6.228  1.00  0.00     0.101 A 
HETATM    9  C7  UNK     1      12.484   5.439   9.904  1.00  0.00     0.020 A 
HETATM   10  C8  UNK     1      13.817   5.371   9.928  1.00  0.00     0.083 A 
HETATM   11  C9  UNK     1      14.633   5.601   8.721  1.00  0.00     0.288 A 
ENDROOT
BRANCH   6  12
HETATM   12  O2  UNK     1       8.421   6.208   7.318  1.00  0.00    -0.353 OA
HETATM   13  C10 UNK     1       7.800   7.256   8.058  1.00  0.00     0.210 C 
ENDBRANCH   6  12
BRANCH   8  14
HETATM   14  O3  UNK     1       9.948   6.641   5.040  1.00  0.00    -0.358 OA
HETATM   15  H5  UNK     1       9.650   7.565   5.062  1.00  0.00     0.217 HD
ENDBRANCH   8  14
TORSDOF 2
ENDMDL
MODEL 9
REMARK VINA RESULT:      -6.1     10.784     14.020
REMARK  2 active torsions:
REMARK  status: ('A' for Active; 'I' for Inactive)
REMARK    1  A    between atoms: C4_8  and  O2_2 
REMARK    2  A    between atoms: C6_10  and  O3_3 
ROOT
HETATM    1  O1  UNK     1      17.953   5.309  33.894  1.00  0.00    -0.275 OA
HETATM    2  O4  UNK     1      17.736   7.424  34.749  1.00  0.00    -0.260 OA
HETATM    3  C1  UNK     1      18.502   5.036  31.539  1.00  0.00     0.001 A 
HETATM    4  C2  UNK     1      18.218   4.482  32.784  1.00  0.00     0.092 A 
HETATM    5  C3  UNK     1      18.761   4.183  30.464  1.00  0.00     0.054 A 
HETATM    6  C4  UNK     1      18.730   2.797  30.649  1.00  0.00     0.102 A 
HETATM    7  C5  UNK     1      18.184   3.104  32.983  1.00  0.00     0.077 A 
HETATM    8  C6  UNK     1      18.443   2.260  31.905  1.00  0.00     0.101 A 
HETATM    9  C7  UNK     1      18.520   6.482  31.404  1.00  0.00     0.020 A 
HETATM   10  C8  UNK     1      18.269   7.259  32.460  1.00  0.00     0.083 A 
HETATM   11  C9  UNK     1      17.966   6.697  33.789  1.00  0.00     0.288 A 
ENDROOT
BRANCH   6  12
HETATM   12  O2  UNK     1      18.983   1.979  29.589  1.00  0.00    -0.353 OA
HETATM   13  C10 UNK     1      17.945   1.829  28.624  1.00  0.00     0.210 C 
ENDBRANCH   6  12
BRANCH   8  14
HETATM   14  O3  UNK     1      18.411   0.910  32.087  1.00  0.00    -0.358 OA
HETATM   15  H5  UNK     1      18.840   0.485  31.326  1.00  0.00     0.217 HD
ENDBRANCH   8  14
TORSDOF 2
ENDMDL
MODEL 10
REMARK VINA RESULT:      -6.0     10.880     12.593
REMARK  2 active torsions:
REMARK  status: ('A' for Active; 'I' for Inactive)
REMARK    1  A    between atoms: C4_8  and  O2_2 
REMARK    2  A    between atoms: C6_10  and  O3_3 
ROOT
HETATM    1  O1  UNK     1      16.084   6.281   9.848  1.00  0.00    -0.275 OA
HETATM    2  O4  UNK     1      17.933   7.461  10.508  1.00  0.00    -0.260 OA
HETATM    3  C1  UNK     1      14.169   7.487   8.951  1.00  0.00     0.001 A 
HETATM    4  C2  UNK     1      14.782   6.289   9.308  1.00  0.00     0.092 A 
HETATM    5  C3  UNK     1      12.878   7.452   8.420  1.00  0.00     0.054 A 
HETATM    6  C4  UNK     1      12.222   6.228   8.256  1.00  0.00     0.102 A 
HETATM    7  C5  UNK     1      14.141   5.062   9.151  1.00  0.00     0.077 A 
HETATM    8  C6  UNK     1      12.852   5.037   8.620  1.00  0.00     0.101 A 
HETATM    9  C7  UNK     1      14.896   8.729   9.144  1.00  0.00     0.020 A 
HETATM   10  C8  UNK     1      16.130   8.714   9.654  1.00  0.00     0.083 A 
HETATM   11  C9  UNK     1      16.800   7.459  10.040  1.00  0.00     0.288 A 
ENDROOT
BRANCH   6  12
HETATM   12  O2  UNK     1      10.963   6.212   7.737  1.00  0.00    -0.353 OA
HETATM   13  C10 UNK     1      10.845   6.290   6.319  1.00  0.00     0.210 C 
ENDBRANCH   6  12
BRANCH   8  14
HETATM   14  O3  UNK     1      12.216   3.842   8.462  1.00  0.00    -0.358 OA
HETATM   15  H5  UNK     1      11.350   4.006   8.053  1.00  0.00     0.217 HD
ENDBRANCH   8  14
TORSDOF 2
ENDMDL
