MODEL 1
REMARK VINA RESULT:      -8.4      0.000      0.000
REMARK  3 active torsions:
REMARK  status: ('A' for Active; 'I' for Inactive)
REMARK       I    between atoms: C8_12  and  N1_4 
REMARK    1  A    between atoms: C1_5  and  C6_10 
REMARK    2  A    between atoms: C6_10  and  C7_11 
REMARK    3  A    between atoms: C8_12  and  C9_13 
ROOT
HETATM    1  O1  UNK     1      30.783  -4.992  36.391  1.00  0.00    -0.267 OA
HETATM    2  N1  UNK     1      30.656  -6.463  34.593  1.00  0.00    -0.348 N 
HETATM    3  C1  UNK     1      29.974  -6.643  31.771  1.00  0.00    -0.007 C 
HETATM    4  C2  UNK     1      29.416  -7.634  32.800  1.00  0.00     0.025 C 
HETATM    5  C3  UNK     1      30.276  -5.300  32.447  1.00  0.00     0.025 C 
HETATM    6  C4  UNK     1      30.342  -7.776  34.009  1.00  0.00     0.126 C 
HETATM    7  C5  UNK     1      31.201  -5.487  33.646  1.00  0.00     0.126 C 
HETATM    8  C8  UNK     1      30.510  -6.102  35.931  1.00  0.00     0.259 C 
ENDROOT
BRANCH   8   9
HETATM    9  C9  UNK     1      30.001  -7.123  36.868  1.00  0.00     0.108 A 
HETATM   10  C12 UNK     1      28.698  -7.053  37.168  1.00  0.00     0.037 A 
HETATM   11  C16 UNK     1      28.105  -8.015  38.083  1.00  0.00    -0.001 A 
HETATM   12  C18 UNK     1      28.911  -9.004  38.637  1.00  0.00     0.089 A 
HETATM   13  C19 UNK     1      26.750  -7.981  38.424  1.00  0.00     0.014 A 
HETATM   14  O2  UNK     1      30.281  -9.072  38.318  1.00  0.00    -0.274 OA
HETATM   15  C20 UNK     1      28.404  -9.956  39.520  1.00  0.00     0.038 A 
HETATM   16  C15 UNK     1      30.879  -8.166  37.446  1.00  0.00     0.304 A 
HETATM   17  O3  UNK     1      32.072  -8.232  37.173  1.00  0.00    -0.259 OA
HETATM   18  C22 UNK     1      27.053  -9.914  39.856  1.00  0.00     0.003 A 
HETATM   19  C21 UNK     1      26.227  -8.928  39.308  1.00  0.00     0.001 A 
ENDBRANCH   8   9
BRANCH   3  20
HETATM   20  C6  UNK     1      29.001  -6.460  30.608  1.00  0.00     0.043 C 
BRANCH  20  21
HETATM   21  C7  UNK     1      28.913  -7.698  29.758  1.00  0.00    -0.058 A 
HETATM   22  C10 UNK     1      30.012  -8.090  29.004  1.00  0.00     0.007 A 
HETATM   23  C13 UNK     1      29.931  -9.238  28.216  1.00  0.00     0.001 A 
HETATM   24  C17 UNK     1      28.752  -9.983  28.188  1.00  0.00     0.000 A 
HETATM   25  C14 UNK     1      27.655  -9.580  28.948  1.00  0.00     0.001 A 
HETATM   26  C11 UNK     1      27.736  -8.433  29.737  1.00  0.00     0.007 A 
ENDBRANCH  20  21
ENDBRANCH   3  20
TORSDOF 3
ENDMDL
MODEL 2
REMARK VINA RESULT:      -8.4     31.777     35.188
REMARK  3 active torsions:
REMARK  status: ('A' for Active; 'I' for Inactive)
REMARK       I    between atoms: C8_12  and  N1_4 
REMARK    1  A    between atoms: C1_5  and  C6_10 
REMARK    2  A    between atoms: C6_10  and  C7_11 
REMARK    3  A    between atoms: C8_12  and  C9_13 
ROOT
HETATM    1  O1  UNK     1      11.401   6.823   5.831  1.00  0.00    -0.267 OA
HETATM    2  N1  UNK     1      10.067   6.174   7.623  1.00  0.00    -0.348 N 
HETATM    3  C1  UNK     1       7.525   6.685   8.943  1.00  0.00    -0.007 C 
HETATM    4  C2  UNK     1       8.844   6.631   9.725  1.00  0.00     0.025 C 
HETATM    5  C3  UNK     1       7.791   7.127   7.498  1.00  0.00     0.025 C 
HETATM    6  C4  UNK     1       9.884   5.757   9.021  1.00  0.00     0.126 C 
HETATM    7  C5  UNK     1       8.833   6.231   6.835  1.00  0.00     0.126 C 
HETATM    8  C8  UNK     1      11.279   6.476   7.007  1.00  0.00     0.259 C 
ENDROOT
BRANCH   8   9
HETATM    9  C9  UNK     1      12.510   6.365   7.816  1.00  0.00     0.108 A 
HETATM   10  C12 UNK     1      13.122   7.515   8.121  1.00  0.00     0.037 A 
HETATM   11  C16 UNK     1      14.341   7.507   8.914  1.00  0.00    -0.001 A 
HETATM   12  C18 UNK     1      14.855   6.290   9.347  1.00  0.00     0.089 A 
HETATM   13  C19 UNK     1      15.014   8.683   9.257  1.00  0.00     0.014 A 
HETATM   14  O2  UNK     1      14.206   5.083   9.023  1.00  0.00    -0.274 OA
HETATM   15  C20 UNK     1      16.019   6.214  10.111  1.00  0.00     0.038 A 
HETATM   16  C15 UNK     1      13.038   5.058   8.266  1.00  0.00     0.304 A 
HETATM   17  O3  UNK     1      12.479   4.002   7.987  1.00  0.00    -0.259 OA
HETATM   18  C22 UNK     1      16.684   7.391  10.447  1.00  0.00     0.003 A 
HETATM   19  C21 UNK     1      16.183   8.624  10.021  1.00  0.00     0.001 A 
ENDBRANCH   8   9
BRANCH   3  20
HETATM   20  C6  UNK     1       6.528   7.619   9.623  1.00  0.00     0.043 C 
BRANCH  20  21
HETATM   21  C7  UNK     1       6.086   7.084  10.957  1.00  0.00    -0.058 A 
HETATM   22  C10 UNK     1       5.534   5.811  11.036  1.00  0.00     0.007 A 
HETATM   23  C13 UNK     1       5.125   5.315  12.273  1.00  0.00     0.001 A 
HETATM   24  C17 UNK     1       5.270   6.094  13.420  1.00  0.00     0.000 A 
HETATM   25  C14 UNK     1       5.824   7.370  13.331  1.00  0.00     0.001 A 
HETATM   26  C11 UNK     1       6.234   7.868  12.094  1.00  0.00     0.007 A 
ENDBRANCH  20  21
ENDBRANCH   3  20
TORSDOF 3
ENDMDL
MODEL 3
REMARK VINA RESULT:      -8.3      4.182      5.148
REMARK  3 active torsions:
REMARK  status: ('A' for Active; 'I' for Inactive)
REMARK       I    between atoms: C8_12  and  N1_4 
REMARK    1  A    between atoms: C1_5  and  C6_10 
REMARK    2  A    between atoms: C6_10  and  C7_11 
REMARK    3  A    between atoms: C8_12  and  C9_13 
ROOT
HETATM    1  O1  UNK     1      36.420  -6.069  32.036  1.00  0.00    -0.267 OA
HETATM    2  N1  UNK     1      34.498  -7.307  31.606  1.00  0.00    -0.348 N 
HETATM    3  C1  UNK     1      32.388  -7.732  29.648  1.00  0.00    -0.007 C 
HETATM    4  C2  UNK     1      32.077  -7.506  31.134  1.00  0.00     0.025 C 
HETATM    5  C3  UNK     1      33.708  -7.045  29.279  1.00  0.00     0.025 C 
HETATM    6  C4  UNK     1      33.240  -7.940  32.027  1.00  0.00     0.126 C 
HETATM    7  C5  UNK     1      34.838  -7.505  30.194  1.00  0.00     0.126 C 
HETATM    8  C8  UNK     1      35.371  -6.589  32.420  1.00  0.00     0.259 C 
ENDROOT
BRANCH   8   9
HETATM    9  C9  UNK     1      35.020  -6.445  33.847  1.00  0.00     0.108 A 
HETATM   10  C12 UNK     1      33.960  -5.676  34.122  1.00  0.00     0.037 A 
HETATM   11  C16 UNK     1      33.539  -5.475  35.499  1.00  0.00    -0.001 A 
HETATM   12  C18 UNK     1      34.254  -6.092  36.519  1.00  0.00     0.089 A 
HETATM   13  C19 UNK     1      32.438  -4.681  35.832  1.00  0.00     0.014 A 
HETATM   14  O2  UNK     1      35.369  -6.901  36.224  1.00  0.00    -0.274 OA
HETATM   15  C20 UNK     1      33.901  -5.940  37.859  1.00  0.00     0.038 A 
HETATM   16  C15 UNK     1      35.797  -7.113  34.916  1.00  0.00     0.304 A 
HETATM   17  O3  UNK     1      36.769  -7.818  34.669  1.00  0.00    -0.259 OA
HETATM   18  C22 UNK     1      32.803  -5.146  38.183  1.00  0.00     0.003 A 
HETATM   19  C21 UNK     1      32.072  -4.518  37.171  1.00  0.00     0.001 A 
ENDBRANCH   8   9
BRANCH   3  20
HETATM   20  C6  UNK     1      31.246  -7.225  28.771  1.00  0.00     0.043 C 
BRANCH  20  21
HETATM   21  C7  UNK     1      30.065  -8.154  28.804  1.00  0.00    -0.058 A 
HETATM   22  C10 UNK     1      30.112  -9.348  28.095  1.00  0.00     0.007 A 
HETATM   23  C13 UNK     1      29.017 -10.211  28.125  1.00  0.00     0.001 A 
HETATM   24  C17 UNK     1      27.884  -9.873  28.864  1.00  0.00     0.000 A 
HETATM   25  C14 UNK     1      27.845  -8.673  29.573  1.00  0.00     0.001 A 
HETATM   26  C11 UNK     1      28.941  -7.809  29.542  1.00  0.00     0.007 A 
ENDBRANCH  20  21
ENDBRANCH   3  20
TORSDOF 3
ENDMDL
MODEL 4
REMARK VINA RESULT:      -8.3     31.811     34.972
REMARK  3 active torsions:
REMARK  status: ('A' for Active; 'I' for Inactive)
REMARK       I    between atoms: C8_12  and  N1_4 
REMARK    1  A    between atoms: C1_5  and  C6_10 
REMARK    2  A    between atoms: C6_10  and  C7_11 
REMARK    3  A    between atoms: C8_12  and  C9_13 
ROOT
HETATM    1  O1  UNK     1       8.369   5.455   6.903  1.00  0.00    -0.267 OA
HETATM    2  N1  UNK     1      10.117   6.605   7.919  1.00  0.00    -0.348 N 
HETATM    3  C1  UNK     1      13.017   6.755   8.100  1.00  0.00    -0.007 C 
HETATM    4  C2  UNK     1      12.132   6.713   9.353  1.00  0.00     0.025 C 
HETATM    5  C3  UNK     1      12.314   6.043   6.937  1.00  0.00     0.025 C 
HETATM    6  C4  UNK     1      10.735   7.271   9.076  1.00  0.00     0.126 C 
HETATM    7  C5  UNK     1      10.926   6.629   6.698  1.00  0.00     0.126 C 
HETATM    8  C8  UNK     1       8.860   6.006   7.889  1.00  0.00     0.259 C 
ENDROOT
BRANCH   8   9
HETATM    9  C9  UNK     1       8.052   6.038   9.125  1.00  0.00     0.108 A 
HETATM   10  C12 UNK     1       7.243   7.093   9.275  1.00  0.00     0.037 A 
HETATM   11  C16 UNK     1       6.408   7.213  10.461  1.00  0.00    -0.001 A 
HETATM   12  C18 UNK     1       6.467   6.216  11.429  1.00  0.00     0.089 A 
HETATM   13  C19 UNK     1       5.548   8.296  10.659  1.00  0.00     0.014 A 
HETATM   14  O2  UNK     1       7.321   5.108  11.265  1.00  0.00    -0.274 OA
HETATM   15  C20 UNK     1       5.693   6.272  12.587  1.00  0.00     0.038 A 
HETATM   16  C15 UNK     1       8.132   4.966  10.142  1.00  0.00     0.304 A 
HETATM   17  O3  UNK     1       8.873   3.998  10.008  1.00  0.00    -0.259 OA
HETATM   18  C22 UNK     1       4.839   7.355  12.778  1.00  0.00     0.003 A 
HETATM   19  C21 UNK     1       4.766   8.366  11.815  1.00  0.00     0.001 A 
ENDBRANCH   8   9
BRANCH   3  20
HETATM   20  C6  UNK     1      14.381   6.127   8.377  1.00  0.00     0.043 C 
BRANCH  20  21
HETATM   21  C7  UNK     1      15.277   7.061   9.142  1.00  0.00    -0.058 A 
HETATM   22  C10 UNK     1      15.031   8.428   9.109  1.00  0.00     0.007 A 
HETATM   23  C13 UNK     1      15.862   9.295   9.818  1.00  0.00     0.001 A 
HETATM   24  C17 UNK     1      16.932   8.787  10.555  1.00  0.00     0.000 A 
HETATM   25  C14 UNK     1      17.171   7.414  10.583  1.00  0.00     0.001 A 
HETATM   26  C11 UNK     1      16.340   6.547   9.873  1.00  0.00     0.007 A 
ENDBRANCH  20  21
ENDBRANCH   3  20
TORSDOF 3
ENDMDL
MODEL 5
REMARK VINA RESULT:      -8.2     31.716     34.774
REMARK  3 active torsions:
REMARK  status: ('A' for Active; 'I' for Inactive)
REMARK       I    between atoms: C8_12  and  N1_4 
REMARK    1  A    between atoms: C1_5  and  C6_10 
REMARK    2  A    between atoms: C6_10  and  C7_11 
REMARK    3  A    between atoms: C8_12  and  C9_13 
ROOT
HETATM    1  O1  UNK     1      17.892   8.121  10.241  1.00  0.00    -0.267 OA
HETATM    2  N1  UNK     1      15.607   7.984   9.827  1.00  0.00    -0.348 N 
HETATM    3  C1  UNK     1      13.543   6.283   8.682  1.00  0.00    -0.007 C 
HETATM    4  C2  UNK     1      13.661   7.768   8.313  1.00  0.00     0.025 C 
HETATM    5  C3  UNK     1      14.917   5.731   9.081  1.00  0.00     0.025 C 
HETATM    6  C4  UNK     1      14.321   8.577   9.431  1.00  0.00     0.126 C 
HETATM    7  C5  UNK     1      15.538   6.567  10.196  1.00  0.00     0.126 C 
HETATM    8  C8  UNK     1      16.830   8.646   9.905  1.00  0.00     0.259 C 
ENDROOT
BRANCH   8   9
HETATM    9  C9  UNK     1      16.856  10.084   9.570  1.00  0.00     0.108 A 
HETATM   10  C12 UNK     1      17.475  10.414   8.430  1.00  0.00     0.037 A 
HETATM   11  C16 UNK     1      17.553  11.806   8.016  1.00  0.00    -0.001 A 
HETATM   12  C18 UNK     1      16.976  12.782   8.821  1.00  0.00     0.089 A 
HETATM   13  C19 UNK     1      18.188  12.197   6.834  1.00  0.00     0.014 A 
HETATM   14  O2  UNK     1      16.325  12.428  10.019  1.00  0.00    -0.274 OA
HETATM   15  C20 UNK     1      17.015  14.133   8.480  1.00  0.00     0.038 A 
HETATM   16  C15 UNK     1      16.235  11.105  10.443  1.00  0.00     0.304 A 
HETATM   17  O3  UNK     1      15.667  10.806  11.488  1.00  0.00    -0.259 OA
HETATM   18  C22 UNK     1      17.651  14.514   7.301  1.00  0.00     0.003 A 
HETATM   19  C21 UNK     1      18.237  13.548   6.479  1.00  0.00     0.001 A 
ENDBRANCH   8   9
BRANCH   3  20
HETATM   20  C6  UNK     1      12.949   5.482   7.525  1.00  0.00     0.043 C 
BRANCH  20  21
HETATM   21  C7  UNK     1      11.499   5.814   7.306  1.00  0.00    -0.058 A 
HETATM   22  C10 UNK     1      10.616   5.770   8.377  1.00  0.00     0.007 A 
HETATM   23  C13 UNK     1       9.272   6.078   8.173  1.00  0.00     0.001 A 
HETATM   24  C17 UNK     1       8.821   6.428   6.900  1.00  0.00     0.000 A 
HETATM   25  C14 UNK     1       9.716   6.470   5.831  1.00  0.00     0.001 A 
HETATM   26  C11 UNK     1      11.061   6.162   6.035  1.00  0.00     0.007 A 
ENDBRANCH  20  21
ENDBRANCH   3  20
TORSDOF 3
ENDMDL
MODEL 6
REMARK VINA RESULT:      -8.2      4.782      7.741
REMARK  3 active torsions:
REMARK  status: ('A' for Active; 'I' for Inactive)
REMARK       I    between atoms: C8_12  and  N1_4 
REMARK    1  A    between atoms: C1_5  and  C6_10 
REMARK    2  A    between atoms: C6_10  and  C7_11 
REMARK    3  A    between atoms: C8_12  and  C9_13 
ROOT
HETATM    1  O1  UNK     1      30.905 -10.776  39.078  1.00  0.00    -0.267 OA
HETATM    2  N1  UNK     1      29.305  -9.199  38.475  1.00  0.00    -0.348 N 
HETATM    3  C1  UNK     1      26.472  -8.847  37.914  1.00  0.00    -0.007 C 
HETATM    4  C2  UNK     1      27.554  -8.317  36.964  1.00  0.00     0.025 C 
HETATM    5  C3  UNK     1      27.000 -10.065  38.683  1.00  0.00     0.025 C 
HETATM    6  C4  UNK     1      28.862  -8.028  37.703  1.00  0.00     0.126 C 
HETATM    7  C5  UNK     1      28.304  -9.733  39.402  1.00  0.00     0.126 C 
HETATM    8  C8  UNK     1      30.563  -9.794  38.417  1.00  0.00     0.259 C 
ENDROOT
BRANCH   8   9
HETATM    9  C9  UNK     1      31.563  -9.204  37.506  1.00  0.00     0.108 A 
HETATM   10  C12 UNK     1      32.283  -8.188  37.995  1.00  0.00     0.037 A 
HETATM   11  C16 UNK     1      33.292  -7.541  37.171  1.00  0.00    -0.001 A 
HETATM   12  C18 UNK     1      33.494  -7.997  35.873  1.00  0.00     0.089 A 
HETATM   13  C19 UNK     1      34.067  -6.477  37.640  1.00  0.00     0.014 A 
HETATM   14  O2  UNK     1      32.734  -9.068  35.363  1.00  0.00    -0.274 OA
HETATM   15  C20 UNK     1      34.446  -7.421  35.032  1.00  0.00     0.038 A 
HETATM   16  C15 UNK     1      31.760  -9.706  36.127  1.00  0.00     0.304 A 
HETATM   17  O3  UNK     1      31.102 -10.637  35.675  1.00  0.00    -0.259 OA
HETATM   18  C22 UNK     1      35.214  -6.361  35.507  1.00  0.00     0.003 A 
HETATM   19  C21 UNK     1      35.025  -5.889  36.809  1.00  0.00     0.001 A 
ENDBRANCH   8   9
BRANCH   3  20
HETATM   20  C6  UNK     1      25.200  -9.198  37.146  1.00  0.00     0.043 C 
BRANCH  20  21
HETATM   21  C7  UNK     1      23.988  -8.543  37.750  1.00  0.00    -0.058 A 
HETATM   22  C10 UNK     1      24.118  -7.808  38.921  1.00  0.00     0.007 A 
HETATM   23  C13 UNK     1      22.995  -7.200  39.480  1.00  0.00     0.001 A 
HETATM   24  C17 UNK     1      21.751  -7.333  38.864  1.00  0.00     0.000 A 
HETATM   25  C14 UNK     1      21.630  -8.073  37.689  1.00  0.00     0.001 A 
HETATM   26  C11 UNK     1      22.754  -8.681  37.128  1.00  0.00     0.007 A 
ENDBRANCH  20  21
ENDBRANCH   3  20
TORSDOF 3
ENDMDL
MODEL 7
REMARK VINA RESULT:      -8.2     32.169     34.227
REMARK  3 active torsions:
REMARK  status: ('A' for Active; 'I' for Inactive)
REMARK       I    between atoms: C8_12  and  N1_4 
REMARK    1  A    between atoms: C1_5  and  C6_10 
REMARK    2  A    between atoms: C6_10  and  C7_11 
REMARK    3  A    between atoms: C8_12  and  C9_13 
ROOT
HETATM    1  O1  UNK     1      15.383   6.195   9.935  1.00  0.00    -0.267 OA
HETATM    2  N1  UNK     1      15.566   8.404   9.229  1.00  0.00    -0.348 N 
HETATM    3  C1  UNK     1      16.783  10.966   9.878  1.00  0.00    -0.007 C 
HETATM    4  C2  UNK     1      15.288  10.841   9.555  1.00  0.00     0.025 C 
HETATM    5  C3  UNK     1      17.302   9.650  10.470  1.00  0.00     0.025 C 
HETATM    6  C4  UNK     1      15.002   9.636   8.658  1.00  0.00     0.126 C 
HETATM    7  C5  UNK     1      16.996   8.476   9.545  1.00  0.00     0.126 C 
HETATM    8  C8  UNK     1      14.881   7.212   9.454  1.00  0.00     0.259 C 
ENDROOT
BRANCH   8   9
HETATM    9  C9  UNK     1      13.453   7.159   9.083  1.00  0.00     0.108 A 
HETATM   10  C12 UNK     1      13.177   6.700   7.857  1.00  0.00     0.037 A 
HETATM   11  C16 UNK     1      11.798   6.611   7.401  1.00  0.00    -0.001 A 
HETATM   12  C18 UNK     1      10.779   7.009   8.259  1.00  0.00     0.089 A 
HETATM   13  C19 UNK     1      11.463   6.138   6.130  1.00  0.00     0.014 A 
HETATM   14  O2  UNK     1      11.075   7.491   9.549  1.00  0.00    -0.274 OA
HETATM   15  C20 UNK     1       9.437   6.948   7.884  1.00  0.00     0.038 A 
HETATM   16  C15 UNK     1      12.385   7.588  10.014  1.00  0.00     0.304 A 
HETATM   17  O3  UNK     1      12.634   8.009  11.138  1.00  0.00    -0.259 OA
HETATM   18  C22 UNK     1       9.112   6.476   6.614  1.00  0.00     0.003 A 
HETATM   19  C21 UNK     1      10.123   6.071   5.739  1.00  0.00     0.001 A 
ENDBRANCH   8   9
BRANCH   3  20
HETATM   20  C6  UNK     1      17.037  12.130  10.833  1.00  0.00     0.043 C 
BRANCH  20  21
HETATM   21  C7  UNK     1      18.506  12.414  10.984  1.00  0.00    -0.058 A 
HETATM   22  C10 UNK     1      19.369  12.143   9.930  1.00  0.00     0.007 A 
HETATM   23  C13 UNK     1      20.731  12.406  10.070  1.00  0.00     0.001 A 
HETATM   24  C17 UNK     1      21.219  12.938  11.263  1.00  0.00     0.000 A 
HETATM   25  C14 UNK     1      20.345  13.206  12.316  1.00  0.00     0.001 A 
HETATM   26  C11 UNK     1      18.982  12.943  12.176  1.00  0.00     0.007 A 
ENDBRANCH  20  21
ENDBRANCH   3  20
TORSDOF 3
ENDMDL
MODEL 8
REMARK VINA RESULT:      -8.1      4.574      6.728
REMARK  3 active torsions:
REMARK  status: ('A' for Active; 'I' for Inactive)
REMARK       I    between atoms: C8_12  and  N1_4 
REMARK    1  A    between atoms: C1_5  and  C6_10 
REMARK    2  A    between atoms: C6_10  and  C7_11 
REMARK    3  A    between atoms: C8_12  and  C9_13 
ROOT
HETATM    1  O1  UNK     1      27.681 -10.393  38.920  1.00  0.00    -0.267 OA
HETATM    2  N1  UNK     1      28.417  -8.880  37.313  1.00  0.00    -0.348 N 
HETATM    3  C1  UNK     1      30.342  -6.755  36.818  1.00  0.00    -0.007 C 
HETATM    4  C2  UNK     1      28.851  -6.584  36.497  1.00  0.00     0.025 C 
HETATM    5  C3  UNK     1      30.519  -7.758  37.965  1.00  0.00     0.025 C 
HETATM    6  C4  UNK     1      28.175  -7.928  36.219  1.00  0.00     0.126 C 
HETATM    7  C5  UNK     1      29.829  -9.081  37.647  1.00  0.00     0.126 C 
HETATM    8  C8  UNK     1      27.447  -9.601  38.006  1.00  0.00     0.259 C 
ENDROOT
BRANCH   8   9
HETATM    9  C9  UNK     1      26.036  -9.409  37.615  1.00  0.00     0.108 A 
HETATM   10  C12 UNK     1      25.485 -10.388  36.889  1.00  0.00     0.037 A 
HETATM   11  C16 UNK     1      24.100 -10.289  36.456  1.00  0.00    -0.001 A 
HETATM   12  C18 UNK     1      23.363  -9.163  36.809  1.00  0.00     0.089 A 
HETATM   13  C19 UNK     1      23.483 -11.287  35.697  1.00  0.00     0.014 A 
HETATM   14  O2  UNK     1      23.949  -8.135  37.574  1.00  0.00    -0.274 OA
HETATM   15  C20 UNK     1      22.032  -9.007  36.426  1.00  0.00     0.038 A 
HETATM   16  C15 UNK     1      25.272  -8.202  38.002  1.00  0.00     0.304 A 
HETATM   17  O3  UNK     1      25.774  -7.302  38.667  1.00  0.00    -0.259 OA
HETATM   18  C22 UNK     1      21.425 -10.006  35.669  1.00  0.00     0.003 A 
HETATM   19  C21 UNK     1      22.149 -11.145  35.305  1.00  0.00     0.001 A 
ENDBRANCH   8   9
BRANCH   3  20
HETATM   20  C6  UNK     1      30.981  -5.413  37.165  1.00  0.00     0.043 C 
BRANCH  20  21
HETATM   21  C7  UNK     1      32.354  -5.281  36.568  1.00  0.00    -0.058 A 
HETATM   22  C10 UNK     1      33.436  -5.883  37.197  1.00  0.00     0.007 A 
HETATM   23  C13 UNK     1      34.710  -5.761  36.644  1.00  0.00     0.001 A 
HETATM   24  C17 UNK     1      34.892  -5.038  35.465  1.00  0.00     0.000 A 
HETATM   25  C14 UNK     1      33.800  -4.436  34.841  1.00  0.00     0.001 A 
HETATM   26  C11 UNK     1      32.525  -4.558  35.394  1.00  0.00     0.007 A 
ENDBRANCH  20  21
ENDBRANCH   3  20
TORSDOF 3
ENDMDL
MODEL 9
REMARK VINA RESULT:      -8.1     18.328     19.809
REMARK  3 active torsions:
REMARK  status: ('A' for Active; 'I' for Inactive)
REMARK       I    between atoms: C8_12  and  N1_4 
REMARK    1  A    between atoms: C1_5  and  C6_10 
REMARK    2  A    between atoms: C6_10  and  C7_11 
REMARK    3  A    between atoms: C8_12  and  C9_13 
ROOT
HETATM    1  O1  UNK     1      20.209   6.220  33.260  1.00  0.00    -0.267 OA
HETATM    2  N1  UNK     1      17.972   6.856  33.189  1.00  0.00    -0.348 N 
HETATM    3  C1  UNK     1      16.100   8.900  34.073  1.00  0.00    -0.007 C 
HETATM    4  C2  UNK     1      15.813   7.405  34.266  1.00  0.00     0.025 C 
HETATM    5  C3  UNK     1      17.614   9.144  34.050  1.00  0.00     0.025 C 
HETATM    6  C4  UNK     1      16.534   6.551  33.222  1.00  0.00     0.126 C 
HETATM    7  C5  UNK     1      18.292   8.273  32.997  1.00  0.00     0.126 C 
HETATM    8  C8  UNK     1      19.011   5.933  33.290  1.00  0.00     0.259 C 
ENDROOT
BRANCH   8   9
HETATM    9  C9  UNK     1      18.654   4.508  33.438  1.00  0.00     0.108 A 
HETATM   10  C12 UNK     1      18.743   4.001  34.673  1.00  0.00     0.037 A 
HETATM   11  C16 UNK     1      18.413   2.606  34.918  1.00  0.00    -0.001 A 
HETATM   12  C18 UNK     1      18.005   1.813  33.850  1.00  0.00     0.089 A 
HETATM   13  C19 UNK     1      18.491   2.034  36.191  1.00  0.00     0.014 A 
HETATM   14  O2  UNK     1      17.912   2.353  32.553  1.00  0.00    -0.274 OA
HETATM   15  C20 UNK     1      17.674   0.470  34.018  1.00  0.00     0.038 A 
HETATM   16  C15 UNK     1      18.222   3.684  32.287  1.00  0.00     0.304 A 
HETATM   17  O3  UNK     1      18.140   4.145  31.153  1.00  0.00    -0.259 OA
HETATM   18  C22 UNK     1      17.755  -0.093  35.290  1.00  0.00     0.003 A 
HETATM   19  C21 UNK     1      18.163   0.688  36.375  1.00  0.00     0.001 A 
ENDBRANCH   8   9
BRANCH   3  20
HETATM   20  C6  UNK     1      15.431   9.728  35.167  1.00  0.00     0.043 C 
BRANCH  20  21
HETATM   21  C7  UNK     1      14.306  10.564  34.623  1.00  0.00    -0.058 A 
HETATM   22  C10 UNK     1      13.649  11.457  35.460  1.00  0.00     0.007 A 
HETATM   23  C13 UNK     1      12.606  12.232  34.955  1.00  0.00     0.001 A 
HETATM   24  C17 UNK     1      12.229  12.110  33.618  1.00  0.00     0.000 A 
HETATM   25  C14 UNK     1      12.895  11.211  32.786  1.00  0.00     0.001 A 
HETATM   26  C11 UNK     1      13.939  10.435  33.290  1.00  0.00     0.007 A 
ENDBRANCH  20  21
ENDBRANCH   3  20
TORSDOF 3
ENDMDL
MODEL 10
REMARK VINA RESULT:      -8.0      4.811      6.611
REMARK  3 active torsions:
REMARK  status: ('A' for Active; 'I' for Inactive)
REMARK       I    between atoms: C8_12  and  N1_4 
REMARK    1  A    between atoms: C1_5  and  C6_10 
REMARK    2  A    between atoms: C6_10  and  C7_11 
REMARK    3  A    between atoms: C8_12  and  C9_13 
ROOT
HETATM    1  O1  UNK     1      27.933 -10.334  39.247  1.00  0.00    -0.267 OA
HETATM    2  N1  UNK     1      28.689  -8.779  37.691  1.00  0.00    -0.348 N 
HETATM    3  C1  UNK     1      30.685  -6.710  37.242  1.00  0.00    -0.007 C 
HETATM    4  C2  UNK     1      29.195  -6.467  36.968  1.00  0.00     0.025 C 
HETATM    5  C3  UNK     1      30.850  -7.770  38.338  1.00  0.00     0.025 C 
HETATM    6  C4  UNK     1      28.459  -7.769  36.647  1.00  0.00     0.126 C 
HETATM    7  C5  UNK     1      30.100  -9.049  37.979  1.00  0.00     0.126 C 
HETATM    8  C8  UNK     1      27.708  -9.493  38.375  1.00  0.00     0.259 C 
ENDROOT
BRANCH   8   9
HETATM    9  C9  UNK     1      26.297  -9.229  38.030  1.00  0.00     0.108 A 
HETATM   10  C12 UNK     1      25.661  -8.326  38.786  1.00  0.00     0.037 A 
HETATM   11  C16 UNK     1      24.269  -8.000  38.522  1.00  0.00    -0.001 A 
HETATM   12  C18 UNK     1      23.614  -8.640  37.475  1.00  0.00     0.089 A 
HETATM   13  C19 UNK     1      23.566  -7.065  39.286  1.00  0.00     0.014 A 
HETATM   14  O2  UNK     1      24.289  -9.589  36.682  1.00  0.00    -0.274 OA
HETATM   15  C20 UNK     1      22.280  -8.372  37.171  1.00  0.00     0.038 A 
HETATM   16  C15 UNK     1      25.621  -9.922  36.910  1.00  0.00     0.304 A 
HETATM   17  O3  UNK     1      26.200 -10.750  36.215  1.00  0.00    -0.259 OA
HETATM   18  C22 UNK     1      21.586  -7.439  37.937  1.00  0.00     0.003 A 
HETATM   19  C21 UNK     1      22.228  -6.786  38.993  1.00  0.00     0.001 A 
ENDBRANCH   8   9
BRANCH   3  20
HETATM   20  C6  UNK     1      31.385  -5.411  37.631  1.00  0.00     0.043 C 
BRANCH  20  21
HETATM   21  C7  UNK     1      32.604  -5.161  36.787  1.00  0.00    -0.058 A 
HETATM   22  C10 UNK     1      33.796  -5.802  37.099  1.00  0.00     0.007 A 
HETATM   23  C13 UNK     1      34.927  -5.572  36.316  1.00  0.00     0.001 A 
HETATM   24  C17 UNK     1      34.856  -4.703  35.228  1.00  0.00     0.000 A 
HETATM   25  C14 UNK     1      33.654  -4.064  34.922  1.00  0.00     0.001 A 
HETATM   26  C11 UNK     1      32.523  -4.294  35.706  1.00  0.00     0.007 A 
ENDBRANCH  20  21
ENDBRANCH   3  20
TORSDOF 3
ENDMDL
