MODEL 1
REMARK VINA RESULT:     -10.4      0.000      0.000
REMARK  2 active torsions:
REMARK  status: ('A' for Active; 'I' for Inactive)
REMARK    1  A    between atoms: C1_5  and  C2_6 
REMARK    2  A    between atoms: C13_17  and  C8_12 
ROOT
HETATM    1  S1  UNK     1      31.272  -6.831  31.104  1.00  0.00    -0.117 SA
HETATM    2  N1  UNK     1      29.818  -9.716  30.756  1.00  0.00    -0.251 NA
HETATM    3  C1  UNK     1      31.324  -7.739  32.683  1.00  0.00     0.093 C 
HETATM    4  C3  UNK     1      31.700  -9.190  32.416  1.00  0.00     0.080 C 
HETATM    5  C8  UNK     1      30.878 -10.017  31.439  1.00  0.00     0.053 C 
HETATM    6  C12 UNK     1      29.578  -7.217  30.717  1.00  0.00     0.030 A 
HETATM    7  C14 UNK     1      29.078  -8.528  30.694  1.00  0.00     0.073 A 
HETATM    8  C22 UNK     1      28.716  -6.127  30.497  1.00  0.00     0.021 A 
HETATM    9  C24 UNK     1      27.701  -8.699  30.454  1.00  0.00     0.033 A 
HETATM   10  C27 UNK     1      27.358  -6.326  30.266  1.00  0.00     0.002 A 
HETATM   11  C28 UNK     1      26.847  -7.615  30.250  1.00  0.00     0.002 A 
ENDROOT
BRANCH   3  12
HETATM   12  C2  UNK     1      32.256  -7.055  33.669  1.00  0.00    -0.021 A 
HETATM   13  C4  UNK     1      31.717  -6.447  34.816  1.00  0.00    -0.018 A 
HETATM   14  C10 UNK     1      30.337  -6.459  35.071  1.00  0.00     0.013 A 
HETATM   15  C6  UNK     1      32.583  -5.810  35.732  1.00  0.00    -0.025 A 
HETATM   16  C17 UNK     1      29.817  -5.851  36.215  1.00  0.00     0.001 A 
HETATM   17  C19 UNK     1      30.670  -5.224  37.118  1.00  0.00     0.001 A 
HETATM   18  C15 UNK     1      32.044  -5.204  36.878  1.00  0.00     0.012 A 
HETATM   19  C9  UNK     1      33.965  -5.798  35.477  1.00  0.00     0.024 A 
HETATM   20  C7  UNK     1      34.503  -6.405  34.330  1.00  0.00    -0.025 A 
HETATM   21  C16 UNK     1      35.885  -6.393  34.075  1.00  0.00     0.012 A 
HETATM   22  C5  UNK     1      33.637  -7.041  33.414  1.00  0.00    -0.018 A 
HETATM   23  C20 UNK     1      36.403  -7.000  32.931  1.00  0.00     0.001 A 
HETATM   24  C18 UNK     1      35.551  -7.627  32.029  1.00  0.00     0.001 A 
HETATM   25  C11 UNK     1      34.176  -7.648  32.268  1.00  0.00     0.013 A 
ENDBRANCH   3  12
BRANCH   5  26
HETATM   26  C13 UNK     1      31.388 -11.403  31.251  1.00  0.00     0.065 A 
HETATM   27  C21 UNK     1      30.907 -12.330  32.088  1.00  0.00     0.034 A 
HETATM   28  C25 UNK     1      31.346 -13.713  31.983  1.00  0.00    -0.001 A 
HETATM   29  C26 UNK     1      32.272 -14.052  31.001  1.00  0.00     0.089 A 
HETATM   30  C29 UNK     1      30.870 -14.712  32.836  1.00  0.00     0.014 A 
HETATM   31  O1  UNK     1      32.775 -13.073  30.124  1.00  0.00    -0.274 OA
HETATM   32  C30 UNK     1      32.733 -15.358  30.848  1.00  0.00     0.038 A 
HETATM   33  C23 UNK     1      32.374 -11.742  30.199  1.00  0.00     0.300 A 
HETATM   34  O2  UNK     1      32.818 -10.896  29.431  1.00  0.00    -0.259 OA
HETATM   35  C32 UNK     1      32.254 -16.348  31.703  1.00  0.00     0.003 A 
HETATM   36  C31 UNK     1      31.324 -16.026  32.694  1.00  0.00     0.001 A 
ENDBRANCH   5  26
TORSDOF 2
ENDMDL
MODEL 2
REMARK VINA RESULT:     -10.4      0.016      3.047
REMARK  2 active torsions:
REMARK  status: ('A' for Active; 'I' for Inactive)
REMARK    1  A    between atoms: C1_5  and  C2_6 
REMARK    2  A    between atoms: C13_17  and  C8_12 
ROOT
HETATM    1  S1  UNK     1      31.266  -6.830  31.095  1.00  0.00    -0.117 SA
HETATM    2  N1  UNK     1      29.812  -9.716  30.750  1.00  0.00    -0.251 NA
HETATM    3  C1  UNK     1      31.324  -7.739  32.674  1.00  0.00     0.093 C 
HETATM    4  C3  UNK     1      31.699  -9.190  32.404  1.00  0.00     0.080 C 
HETATM    5  C8  UNK     1      30.875 -10.016  31.429  1.00  0.00     0.053 C 
HETATM    6  C12 UNK     1      29.571  -7.216  30.713  1.00  0.00     0.030 A 
HETATM    7  C14 UNK     1      29.071  -8.527  30.690  1.00  0.00     0.073 A 
HETATM    8  C22 UNK     1      28.708  -6.126  30.496  1.00  0.00     0.021 A 
HETATM    9  C24 UNK     1      27.693  -8.699  30.455  1.00  0.00     0.033 A 
HETATM   10  C27 UNK     1      27.349  -6.325  30.269  1.00  0.00     0.002 A 
HETATM   11  C28 UNK     1      26.839  -7.615  30.254  1.00  0.00     0.002 A 
ENDROOT
BRANCH   3  12
HETATM   12  C2  UNK     1      32.258  -7.055  33.657  1.00  0.00    -0.021 A 
HETATM   13  C4  UNK     1      33.639  -7.046  33.402  1.00  0.00    -0.018 A 
HETATM   14  C10 UNK     1      34.176  -7.657  32.257  1.00  0.00     0.013 A 
HETATM   15  C6  UNK     1      34.507  -6.410  34.316  1.00  0.00    -0.025 A 
HETATM   16  C17 UNK     1      35.551  -7.641  32.017  1.00  0.00     0.001 A 
HETATM   17  C19 UNK     1      36.406  -7.014  32.918  1.00  0.00     0.001 A 
HETATM   18  C15 UNK     1      35.889  -6.402  34.060  1.00  0.00     0.012 A 
HETATM   19  C9  UNK     1      33.971  -5.799  35.461  1.00  0.00     0.024 A 
HETATM   20  C7  UNK     1      32.590  -5.807  35.717  1.00  0.00    -0.025 A 
HETATM   21  C16 UNK     1      32.053  -5.196  36.863  1.00  0.00     0.012 A 
HETATM   22  C5  UNK     1      31.722  -6.444  34.803  1.00  0.00    -0.018 A 
HETATM   23  C20 UNK     1      30.679  -5.213  37.102  1.00  0.00     0.001 A 
HETATM   24  C18 UNK     1      29.823  -5.840  36.202  1.00  0.00     0.001 A 
HETATM   25  C11 UNK     1      30.341  -6.451  35.059  1.00  0.00     0.013 A 
ENDBRANCH   3  12
BRANCH   5  26
HETATM   26  C13 UNK     1      31.384 -11.402  31.239  1.00  0.00     0.065 A 
HETATM   27  C21 UNK     1      30.900 -12.331  32.072  1.00  0.00     0.034 A 
HETATM   28  C25 UNK     1      31.339 -13.714  31.965  1.00  0.00    -0.001 A 
HETATM   29  C26 UNK     1      32.267 -14.051  30.985  1.00  0.00     0.089 A 
HETATM   30  C29 UNK     1      30.859 -14.715  32.813  1.00  0.00     0.014 A 
HETATM   31  O1  UNK     1      32.773 -13.069  30.112  1.00  0.00    -0.274 OA
HETATM   32  C30 UNK     1      32.728 -15.357  30.830  1.00  0.00     0.038 A 
HETATM   33  C23 UNK     1      32.373 -11.739  30.189  1.00  0.00     0.300 A 
HETATM   34  O2  UNK     1      32.820 -10.890  29.425  1.00  0.00    -0.259 OA
HETATM   35  C32 UNK     1      32.245 -16.349  31.680  1.00  0.00     0.003 A 
HETATM   36  C31 UNK     1      31.313 -16.029  32.669  1.00  0.00     0.001 A 
ENDBRANCH   5  26
TORSDOF 2
ENDMDL
MODEL 3
REMARK VINA RESULT:     -10.3      3.317      5.564
REMARK  2 active torsions:
REMARK  status: ('A' for Active; 'I' for Inactive)
REMARK    1  A    between atoms: C1_5  and  C2_6 
REMARK    2  A    between atoms: C13_17  and  C8_12 
ROOT
HETATM    1  S1  UNK     1      28.876  -6.211  33.734  1.00  0.00    -0.117 SA
HETATM    2  N1  UNK     1      30.978  -8.068  32.092  1.00  0.00    -0.251 NA
HETATM    3  C1  UNK     1      29.354  -7.646  34.752  1.00  0.00     0.093 C 
HETATM    4  C3  UNK     1      30.857  -7.859  34.645  1.00  0.00     0.080 C 
HETATM    5  C8  UNK     1      31.501  -8.032  33.278  1.00  0.00     0.053 C 
HETATM    6  C12 UNK     1      28.657  -7.117  32.217  1.00  0.00     0.030 A 
HETATM    7  C14 UNK     1      29.644  -7.957  31.679  1.00  0.00     0.073 A 
HETATM    8  C22 UNK     1      27.399  -7.014  31.596  1.00  0.00     0.021 A 
HETATM    9  C24 UNK     1      29.321  -8.684  30.516  1.00  0.00     0.033 A 
HETATM   10  C27 UNK     1      27.107  -7.746  30.449  1.00  0.00     0.002 A 
HETATM   11  C28 UNK     1      28.069  -8.589  29.911  1.00  0.00     0.002 A 
ENDROOT
BRANCH   3  12
HETATM   12  C2  UNK     1      28.877  -7.474  36.185  1.00  0.00    -0.021 A 
HETATM   13  C4  UNK     1      27.949  -8.385  36.715  1.00  0.00    -0.018 A 
HETATM   14  C10 UNK     1      27.452  -9.453  35.950  1.00  0.00     0.013 A 
HETATM   15  C6  UNK     1      27.505  -8.225  38.046  1.00  0.00    -0.025 A 
HETATM   16  C17 UNK     1      26.530 -10.350  36.490  1.00  0.00     0.001 A 
HETATM   17  C19 UNK     1      26.094 -10.192  37.803  1.00  0.00     0.001 A 
HETATM   18  C15 UNK     1      26.578  -9.137  38.575  1.00  0.00     0.012 A 
HETATM   19  C9  UNK     1      28.002  -7.157  38.812  1.00  0.00     0.024 A 
HETATM   20  C7  UNK     1      28.930  -6.245  38.282  1.00  0.00    -0.025 A 
HETATM   21  C16 UNK     1      29.427  -5.177  39.047  1.00  0.00     0.012 A 
HETATM   22  C5  UNK     1      29.373  -6.405  36.950  1.00  0.00    -0.018 A 
HETATM   23  C20 UNK     1      30.347  -4.280  38.506  1.00  0.00     0.001 A 
HETATM   24  C18 UNK     1      30.784  -4.437  37.195  1.00  0.00     0.001 A 
HETATM   25  C11 UNK     1      30.300  -5.493  36.421  1.00  0.00     0.013 A 
ENDBRANCH   3  12
BRANCH   5  26
HETATM   26  C13 UNK     1      32.981  -8.193  33.330  1.00  0.00     0.065 A 
HETATM   27  C21 UNK     1      33.451  -9.427  33.112  1.00  0.00     0.034 A 
HETATM   28  C25 UNK     1      34.882  -9.683  33.142  1.00  0.00    -0.001 A 
HETATM   29  C26 UNK     1      35.750  -8.626  33.401  1.00  0.00     0.089 A 
HETATM   30  C29 UNK     1      35.416 -10.955  32.921  1.00  0.00     0.014 A 
HETATM   31  O1  UNK     1      35.249  -7.331  33.630  1.00  0.00    -0.274 OA
HETATM   32  C30 UNK     1      37.131  -8.806  33.444  1.00  0.00     0.038 A 
HETATM   33  C23 UNK     1      33.885  -7.054  33.607  1.00  0.00     0.300 A 
HETATM   34  O2  UNK     1      33.459  -5.922  33.808  1.00  0.00    -0.259 OA
HETATM   35  C32 UNK     1      37.654 -10.077  33.223  1.00  0.00     0.003 A 
HETATM   36  C31 UNK     1      36.799 -11.149  32.961  1.00  0.00     0.001 A 
ENDBRANCH   5  26
TORSDOF 2
ENDMDL
MODEL 4
REMARK VINA RESULT:     -10.3      2.584      4.932
REMARK  2 active torsions:
REMARK  status: ('A' for Active; 'I' for Inactive)
REMARK    1  A    between atoms: C1_5  and  C2_6 
REMARK    2  A    between atoms: C13_17  and  C8_12 
ROOT
HETATM    1  S1  UNK     1      29.392  -6.271  33.631  1.00  0.00    -0.117 SA
HETATM    2  N1  UNK     1      30.559  -8.860  32.051  1.00  0.00    -0.251 NA
HETATM    3  C1  UNK     1      29.453  -7.703  34.758  1.00  0.00     0.093 C 
HETATM    4  C3  UNK     1      30.775  -8.434  34.570  1.00  0.00     0.080 C 
HETATM    5  C8  UNK     1      31.180  -8.921  33.188  1.00  0.00     0.053 C 
HETATM    6  C12 UNK     1      28.726  -7.153  32.236  1.00  0.00     0.030 A 
HETATM    7  C14 UNK     1      29.308  -8.322  31.721  1.00  0.00     0.073 A 
HETATM    8  C22 UNK     1      27.523  -6.664  31.695  1.00  0.00     0.021 A 
HETATM    9  C24 UNK     1      28.642  -8.975  30.666  1.00  0.00     0.033 A 
HETATM   10  C27 UNK     1      26.884  -7.332  30.654  1.00  0.00     0.002 A 
HETATM   11  C28 UNK     1      27.442  -8.494  30.141  1.00  0.00     0.002 A 
ENDROOT
BRANCH   3  12
HETATM   12  C2  UNK     1      29.210  -7.270  36.194  1.00  0.00    -0.021 A 
HETATM   13  C4  UNK     1      28.202  -7.901  36.942  1.00  0.00    -0.018 A 
HETATM   14  C10 UNK     1      27.413  -8.924  36.391  1.00  0.00     0.013 A 
HETATM   15  C6  UNK     1      27.976  -7.498  38.276  1.00  0.00    -0.025 A 
HETATM   16  C17 UNK     1      26.415  -9.541  37.146  1.00  0.00     0.001 A 
HETATM   17  C19 UNK     1      26.193  -9.145  38.461  1.00  0.00     0.001 A 
HETATM   18  C15 UNK     1      26.968  -8.131  39.023  1.00  0.00     0.012 A 
HETATM   19  C9  UNK     1      28.765  -6.475  38.828  1.00  0.00     0.024 A 
HETATM   20  C7  UNK     1      29.773  -5.844  38.080  1.00  0.00    -0.025 A 
HETATM   21  C16 UNK     1      30.562  -4.820  38.632  1.00  0.00     0.012 A 
HETATM   22  C5  UNK     1      29.998  -6.246  36.746  1.00  0.00    -0.018 A 
HETATM   23  C20 UNK     1      31.558  -4.203  37.876  1.00  0.00     0.001 A 
HETATM   24  C18 UNK     1      31.781  -4.599  36.562  1.00  0.00     0.001 A 
HETATM   25  C11 UNK     1      31.006  -5.615  35.999  1.00  0.00     0.013 A 
ENDBRANCH   3  12
BRANCH   5  26
HETATM   26  C13 UNK     1      32.513  -9.583  33.153  1.00  0.00     0.065 A 
HETATM   27  C21 UNK     1      33.578  -8.774  33.212  1.00  0.00     0.034 A 
HETATM   28  C25 UNK     1      34.923  -9.327  33.184  1.00  0.00    -0.001 A 
HETATM   29  C26 UNK     1      35.081 -10.707  33.095  1.00  0.00     0.089 A 
HETATM   30  C29 UNK     1      36.062  -8.520  33.242  1.00  0.00     0.014 A 
HETATM   31  O1  UNK     1      33.958 -11.553  33.033  1.00  0.00    -0.274 OA
HETATM   32  C30 UNK     1      36.342 -11.299  33.063  1.00  0.00     0.038 A 
HETATM   33  C23 UNK     1      32.658 -11.054  33.058  1.00  0.00     0.300 A 
HETATM   34  O2  UNK     1      31.686 -11.798  33.003  1.00  0.00    -0.259 OA
HETATM   35  C32 UNK     1      37.472 -10.487  33.122  1.00  0.00     0.003 A 
HETATM   36  C31 UNK     1      37.332  -9.101  33.212  1.00  0.00     0.001 A 
ENDBRANCH   5  26
TORSDOF 2
ENDMDL
MODEL 5
REMARK VINA RESULT:     -10.3      2.562      5.329
REMARK  2 active torsions:
REMARK  status: ('A' for Active; 'I' for Inactive)
REMARK    1  A    between atoms: C1_5  and  C2_6 
REMARK    2  A    between atoms: C13_17  and  C8_12 
ROOT
HETATM    1  S1  UNK     1      29.385  -6.252  33.603  1.00  0.00    -0.117 SA
HETATM    2  N1  UNK     1      30.538  -8.850  32.027  1.00  0.00    -0.251 NA
HETATM    3  C1  UNK     1      29.450  -7.679  34.736  1.00  0.00     0.093 C 
HETATM    4  C3  UNK     1      30.770  -8.413  34.543  1.00  0.00     0.080 C 
HETATM    5  C8  UNK     1      31.166  -8.908  33.161  1.00  0.00     0.053 C 
HETATM    6  C12 UNK     1      28.709  -7.139  32.216  1.00  0.00     0.030 A 
HETATM    7  C14 UNK     1      29.286  -8.312  31.703  1.00  0.00     0.073 A 
HETATM    8  C22 UNK     1      27.504  -6.651  31.681  1.00  0.00     0.021 A 
HETATM    9  C24 UNK     1      28.612  -8.968  30.655  1.00  0.00     0.033 A 
HETATM   10  C27 UNK     1      26.858  -7.322  30.646  1.00  0.00     0.002 A 
HETATM   11  C28 UNK     1      27.411  -8.487  30.135  1.00  0.00     0.002 A 
ENDROOT
BRANCH   3  12
HETATM   12  C2  UNK     1      29.217  -7.239  36.172  1.00  0.00    -0.021 A 
HETATM   13  C4  UNK     1      30.015  -6.221  36.717  1.00  0.00    -0.018 A 
HETATM   14  C10 UNK     1      31.026  -5.600  35.965  1.00  0.00     0.013 A 
HETATM   15  C6  UNK     1      29.799  -5.812  38.052  1.00  0.00    -0.025 A 
HETATM   16  C17 UNK     1      31.811  -4.589  36.522  1.00  0.00     0.001 A 
HETATM   17  C19 UNK     1      31.597  -4.187  37.837  1.00  0.00     0.001 A 
HETATM   18  C15 UNK     1      30.598  -4.793  38.597  1.00  0.00     0.012 A 
HETATM   19  C9  UNK     1      28.788  -6.433  38.805  1.00  0.00     0.024 A 
HETATM   20  C7  UNK     1      27.989  -7.451  38.259  1.00  0.00    -0.025 A 
HETATM   21  C16 UNK     1      26.979  -8.073  39.012  1.00  0.00     0.012 A 
HETATM   22  C5  UNK     1      28.207  -7.860  36.925  1.00  0.00    -0.018 A 
HETATM   23  C20 UNK     1      26.194  -9.083  38.456  1.00  0.00     0.001 A 
HETATM   24  C18 UNK     1      26.408  -9.486  37.142  1.00  0.00     0.001 A 
HETATM   25  C11 UNK     1      27.408  -8.878  36.380  1.00  0.00     0.013 A 
ENDBRANCH   3  12
BRANCH   5  26
HETATM   26  C13 UNK     1      32.498  -9.572  33.121  1.00  0.00     0.065 A 
HETATM   27  C21 UNK     1      33.564  -8.766  33.192  1.00  0.00     0.034 A 
HETATM   28  C25 UNK     1      34.908  -9.322  33.160  1.00  0.00    -0.001 A 
HETATM   29  C26 UNK     1      35.063 -10.701  33.055  1.00  0.00     0.089 A 
HETATM   30  C29 UNK     1      36.048  -8.518  33.231  1.00  0.00     0.014 A 
HETATM   31  O1  UNK     1      33.938 -11.543  32.981  1.00  0.00    -0.274 OA
HETATM   32  C30 UNK     1      36.322 -11.296  33.019  1.00  0.00     0.038 A 
HETATM   33  C23 UNK     1      32.640 -11.042  33.009  1.00  0.00     0.300 A 
HETATM   34  O2  UNK     1      31.666 -11.783  32.943  1.00  0.00    -0.259 OA
HETATM   35  C32 UNK     1      37.454 -10.487  33.090  1.00  0.00     0.003 A 
HETATM   36  C31 UNK     1      37.318  -9.102  33.196  1.00  0.00     0.001 A 
ENDBRANCH   5  26
TORSDOF 2
ENDMDL
MODEL 6
REMARK VINA RESULT:     -10.1      2.860      6.245
REMARK  2 active torsions:
REMARK  status: ('A' for Active; 'I' for Inactive)
REMARK    1  A    between atoms: C1_5  and  C2_6 
REMARK    2  A    between atoms: C13_17  and  C8_12 
ROOT
HETATM    1  S1  UNK     1      32.123  -8.241  36.609  1.00  0.00    -0.117 SA
HETATM    2  N1  UNK     1      32.830  -7.971  33.448  1.00  0.00    -0.251 NA
HETATM    3  C1  UNK     1      30.812  -7.297  35.765  1.00  0.00     0.093 C 
HETATM    4  C3  UNK     1      30.469  -7.981  34.449  1.00  0.00     0.080 C 
HETATM    5  C8  UNK     1      31.564  -8.255  33.430  1.00  0.00     0.053 C 
HETATM    6  C12 UNK     1      33.490  -7.427  35.810  1.00  0.00     0.030 A 
HETATM    7  C14 UNK     1      33.606  -7.318  34.415  1.00  0.00     0.073 A 
HETATM    8  C22 UNK     1      34.441  -6.819  36.649  1.00  0.00     0.021 A 
HETATM    9  C24 UNK     1      34.691  -6.580  33.904  1.00  0.00     0.033 A 
HETATM   10  C27 UNK     1      35.503  -6.093  36.116  1.00  0.00     0.002 A 
HETATM   11  C28 UNK     1      35.625  -5.968  34.740  1.00  0.00     0.002 A 
ENDROOT
BRANCH   3  12
HETATM   12  C2  UNK     1      29.608  -7.115  36.674  1.00  0.00    -0.021 A 
HETATM   13  C4  UNK     1      29.561  -6.011  37.541  1.00  0.00    -0.018 A 
HETATM   14  C10 UNK     1      30.604  -5.071  37.587  1.00  0.00     0.013 A 
HETATM   15  C6  UNK     1      28.443  -5.842  38.386  1.00  0.00    -0.025 A 
HETATM   16  C17 UNK     1      30.544  -3.979  38.453  1.00  0.00     0.001 A 
HETATM   17  C19 UNK     1      29.440  -3.812  39.286  1.00  0.00     0.001 A 
HETATM   18  C15 UNK     1      28.397  -4.737  39.252  1.00  0.00     0.012 A 
HETATM   19  C9  UNK     1      27.399  -6.781  38.340  1.00  0.00     0.024 A 
HETATM   20  C7  UNK     1      27.446  -7.886  37.473  1.00  0.00    -0.025 A 
HETATM   21  C16 UNK     1      26.402  -8.826  37.428  1.00  0.00     0.012 A 
HETATM   22  C5  UNK     1      28.565  -8.055  36.629  1.00  0.00    -0.018 A 
HETATM   23  C20 UNK     1      26.464  -9.917  36.562  1.00  0.00     0.001 A 
HETATM   24  C18 UNK     1      27.566 -10.084  35.730  1.00  0.00     0.001 A 
HETATM   25  C11 UNK     1      28.611  -9.159  35.763  1.00  0.00     0.013 A 
ENDBRANCH   3  12
BRANCH   5  26
HETATM   26  C13 UNK     1      31.085  -8.963  32.211  1.00  0.00     0.065 A 
HETATM   27  C21 UNK     1      29.909  -8.559  31.716  1.00  0.00     0.034 A 
HETATM   28  C25 UNK     1      29.358  -9.191  30.527  1.00  0.00    -0.001 A 
HETATM   29  C26 UNK     1      30.072 -10.218  29.918  1.00  0.00     0.089 A 
HETATM   30  C29 UNK     1      28.134  -8.802  29.976  1.00  0.00     0.014 A 
HETATM   31  O1  UNK     1      31.309 -10.638  30.445  1.00  0.00    -0.274 OA
HETATM   32  C30 UNK     1      29.599 -10.865  28.778  1.00  0.00     0.038 A 
HETATM   33  C23 UNK     1      31.862 -10.054  31.580  1.00  0.00     0.300 A 
HETATM   34  O2  UNK     1      32.939 -10.427  32.031  1.00  0.00    -0.259 OA
HETATM   35  C32 UNK     1      28.379 -10.471  28.236  1.00  0.00     0.003 A 
HETATM   36  C31 UNK     1      27.648  -9.441  28.833  1.00  0.00     0.001 A 
ENDBRANCH   5  26
TORSDOF 2
ENDMDL
MODEL 7
REMARK VINA RESULT:     -10.0      2.851      6.315
REMARK  2 active torsions:
REMARK  status: ('A' for Active; 'I' for Inactive)
REMARK    1  A    between atoms: C1_5  and  C2_6 
REMARK    2  A    between atoms: C13_17  and  C8_12 
ROOT
HETATM    1  S1  UNK     1      32.115  -8.257  36.607  1.00  0.00    -0.117 SA
HETATM    2  N1  UNK     1      32.826  -7.990  33.447  1.00  0.00    -0.251 NA
HETATM    3  C1  UNK     1      30.806  -7.311  35.760  1.00  0.00     0.093 C 
HETATM    4  C3  UNK     1      30.464  -7.996  34.444  1.00  0.00     0.080 C 
HETATM    5  C8  UNK     1      31.560  -8.272  33.427  1.00  0.00     0.053 C 
HETATM    6  C12 UNK     1      33.484  -7.446  35.809  1.00  0.00     0.030 A 
HETATM    7  C14 UNK     1      33.602  -7.337  34.414  1.00  0.00     0.073 A 
HETATM    8  C22 UNK     1      34.435  -6.839  36.649  1.00  0.00     0.021 A 
HETATM    9  C24 UNK     1      34.689  -6.601  33.904  1.00  0.00     0.033 A 
HETATM   10  C27 UNK     1      35.499  -6.114  36.117  1.00  0.00     0.002 A 
HETATM   11  C28 UNK     1      35.622  -5.990  34.741  1.00  0.00     0.002 A 
ENDROOT
BRANCH   3  12
HETATM   12  C2  UNK     1      29.602  -7.127  36.667  1.00  0.00    -0.021 A 
HETATM   13  C4  UNK     1      28.558  -8.066  36.624  1.00  0.00    -0.018 A 
HETATM   14  C10 UNK     1      28.603  -9.172  35.759  1.00  0.00     0.013 A 
HETATM   15  C6  UNK     1      27.437  -7.894  37.466  1.00  0.00    -0.025 A 
HETATM   16  C17 UNK     1      27.558 -10.096  35.727  1.00  0.00     0.001 A 
HETATM   17  C19 UNK     1      26.454  -9.926  36.558  1.00  0.00     0.001 A 
HETATM   18  C15 UNK     1      26.394  -8.834  37.422  1.00  0.00     0.012 A 
HETATM   19  C9  UNK     1      27.392  -6.788  38.331  1.00  0.00     0.024 A 
HETATM   20  C7  UNK     1      28.436  -5.849  38.375  1.00  0.00    -0.025 A 
HETATM   21  C16 UNK     1      28.390  -4.742  39.240  1.00  0.00     0.012 A 
HETATM   22  C5  UNK     1      29.555  -6.021  37.532  1.00  0.00    -0.018 A 
HETATM   23  C20 UNK     1      29.435  -3.819  39.271  1.00  0.00     0.001 A 
HETATM   24  C18 UNK     1      30.538  -3.988  38.441  1.00  0.00     0.001 A 
HETATM   25  C11 UNK     1      30.598  -5.082  37.576  1.00  0.00     0.013 A 
ENDBRANCH   3  12
BRANCH   5  26
HETATM   26  C13 UNK     1      31.082  -8.980  32.208  1.00  0.00     0.065 A 
HETATM   27  C21 UNK     1      29.913  -8.567  31.704  1.00  0.00     0.034 A 
HETATM   28  C25 UNK     1      29.362  -9.198  30.514  1.00  0.00    -0.001 A 
HETATM   29  C26 UNK     1      30.071 -10.234  29.914  1.00  0.00     0.089 A 
HETATM   30  C29 UNK     1      28.146  -8.799  29.955  1.00  0.00     0.014 A 
HETATM   31  O1  UNK     1      31.300 -10.664  30.449  1.00  0.00    -0.274 OA
HETATM   32  C30 UNK     1      29.598 -10.880  28.773  1.00  0.00     0.038 A 
HETATM   33  C23 UNK     1      31.852 -10.080  31.585  1.00  0.00     0.300 A 
HETATM   34  O2  UNK     1      32.923 -10.462  32.045  1.00  0.00    -0.259 OA
HETATM   35  C32 UNK     1      28.385 -10.477  28.222  1.00  0.00     0.003 A 
HETATM   36  C31 UNK     1      27.660  -9.438  28.810  1.00  0.00     0.001 A 
ENDBRANCH   5  26
TORSDOF 2
ENDMDL
MODEL 8
REMARK VINA RESULT:     -10.0      4.406      7.855
REMARK  2 active torsions:
REMARK  status: ('A' for Active; 'I' for Inactive)
REMARK    1  A    between atoms: C1_5  and  C2_6 
REMARK    2  A    between atoms: C13_17  and  C8_12 
ROOT
HETATM    1  S1  UNK     1      31.646  -5.156  33.604  1.00  0.00    -0.117 SA
HETATM    2  N1  UNK     1      31.458  -6.706  36.454  1.00  0.00    -0.251 NA
HETATM    3  C1  UNK     1      31.312  -6.925  33.320  1.00  0.00     0.093 C 
HETATM    4  C3  UNK     1      30.250  -7.399  34.302  1.00  0.00     0.080 C 
HETATM    5  C8  UNK     1      30.460  -7.207  35.795  1.00  0.00     0.053 C 
HETATM    6  C12 UNK     1      32.886  -5.393  34.858  1.00  0.00     0.030 A 
HETATM    7  C14 UNK     1      32.675  -6.175  36.004  1.00  0.00     0.073 A 
HETATM    8  C22 UNK     1      34.145  -4.811  34.620  1.00  0.00     0.021 A 
HETATM    9  C24 UNK     1      33.761  -6.354  36.884  1.00  0.00     0.033 A 
HETATM   10  C27 UNK     1      35.201  -5.008  35.505  1.00  0.00     0.002 A 
HETATM   11  C28 UNK     1      35.010  -5.787  36.637  1.00  0.00     0.002 A 
ENDROOT
BRANCH   3  12
HETATM   12  C2  UNK     1      30.938  -7.177  31.869  1.00  0.00    -0.021 A 
HETATM   13  C4  UNK     1      31.939  -7.545  30.955  1.00  0.00    -0.018 A 
HETATM   14  C10 UNK     1      33.278  -7.685  31.352  1.00  0.00     0.013 A 
HETATM   15  C6  UNK     1      31.591  -7.779  29.606  1.00  0.00    -0.025 A 
HETATM   16  C17 UNK     1      34.261  -8.051  30.432  1.00  0.00     0.001 A 
HETATM   17  C19 UNK     1      33.918  -8.282  29.103  1.00  0.00     0.001 A 
HETATM   18  C15 UNK     1      32.593  -8.147  28.692  1.00  0.00     0.012 A 
HETATM   19  C9  UNK     1      30.251  -7.640  29.208  1.00  0.00     0.024 A 
HETATM   20  C7  UNK     1      29.250  -7.272  30.122  1.00  0.00    -0.025 A 
HETATM   21  C16 UNK     1      27.909  -7.132  29.724  1.00  0.00     0.012 A 
HETATM   22  C5  UNK     1      29.598  -7.037  31.470  1.00  0.00    -0.018 A 
HETATM   23  C20 UNK     1      26.927  -6.765  30.644  1.00  0.00     0.001 A 
HETATM   24  C18 UNK     1      27.270  -6.534  31.972  1.00  0.00     0.001 A 
HETATM   25  C11 UNK     1      28.597  -6.669  32.384  1.00  0.00     0.013 A 
ENDBRANCH   3  12
BRANCH   5  26
HETATM   26  C13 UNK     1      29.321  -7.685  36.627  1.00  0.00     0.065 A 
HETATM   27  C21 UNK     1      29.623  -8.541  37.611  1.00  0.00     0.034 A 
HETATM   28  C25 UNK     1      28.578  -9.064  38.476  1.00  0.00    -0.001 A 
HETATM   29  C26 UNK     1      27.263  -8.659  38.263  1.00  0.00     0.089 A 
HETATM   30  C29 UNK     1      28.848  -9.959  39.514  1.00  0.00     0.014 A 
HETATM   31  O1  UNK     1      26.952  -7.759  37.227  1.00  0.00    -0.274 OA
HETATM   32  C30 UNK     1      26.216  -9.123  39.056  1.00  0.00     0.038 A 
HETATM   33  C23 UNK     1      27.929  -7.241  36.382  1.00  0.00     0.300 A 
HETATM   34  O2  UNK     1      27.648  -6.458  35.482  1.00  0.00    -0.259 OA
HETATM   35  C32 UNK     1      26.495 -10.016  40.089  1.00  0.00     0.003 A 
HETATM   36  C31 UNK     1      27.808 -10.432  40.318  1.00  0.00     0.001 A 
ENDBRANCH   5  26
TORSDOF 2
ENDMDL
MODEL 9
REMARK VINA RESULT:     -10.0      4.410      7.294
REMARK  2 active torsions:
REMARK  status: ('A' for Active; 'I' for Inactive)
REMARK    1  A    between atoms: C1_5  and  C2_6 
REMARK    2  A    between atoms: C13_17  and  C8_12 
ROOT
HETATM    1  S1  UNK     1      31.648  -5.153  33.631  1.00  0.00    -0.117 SA
HETATM    2  N1  UNK     1      31.455  -6.715  36.474  1.00  0.00    -0.251 NA
HETATM    3  C1  UNK     1      31.309  -6.920  33.339  1.00  0.00     0.093 C 
HETATM    4  C3  UNK     1      30.245  -7.396  34.319  1.00  0.00     0.080 C 
HETATM    5  C8  UNK     1      30.455  -7.211  35.813  1.00  0.00     0.053 C 
HETATM    6  C12 UNK     1      32.887  -5.400  34.885  1.00  0.00     0.030 A 
HETATM    7  C14 UNK     1      32.673  -6.187  36.028  1.00  0.00     0.073 A 
HETATM    8  C22 UNK     1      34.147  -4.821  34.650  1.00  0.00     0.021 A 
HETATM    9  C24 UNK     1      33.757  -6.373  36.907  1.00  0.00     0.033 A 
HETATM   10  C27 UNK     1      35.203  -5.025  35.535  1.00  0.00     0.002 A 
HETATM   11  C28 UNK     1      35.009  -5.808  36.664  1.00  0.00     0.002 A 
ENDROOT
BRANCH   3  12
HETATM   12  C2  UNK     1      30.935  -7.165  31.887  1.00  0.00    -0.021 A 
HETATM   13  C4  UNK     1      29.597  -7.018  31.487  1.00  0.00    -0.018 A 
HETATM   14  C10 UNK     1      28.596  -6.650  32.400  1.00  0.00     0.013 A 
HETATM   15  C6  UNK     1      29.249  -7.246  30.137  1.00  0.00    -0.025 A 
HETATM   16  C17 UNK     1      27.270  -6.508  31.988  1.00  0.00     0.001 A 
HETATM   17  C19 UNK     1      26.928  -6.732  30.658  1.00  0.00     0.001 A 
HETATM   18  C15 UNK     1      27.910  -7.098  29.738  1.00  0.00     0.012 A 
HETATM   19  C9  UNK     1      30.250  -7.615  29.223  1.00  0.00     0.024 A 
HETATM   20  C7  UNK     1      31.589  -7.762  29.623  1.00  0.00    -0.025 A 
HETATM   21  C16 UNK     1      32.590  -8.131  28.708  1.00  0.00     0.012 A 
HETATM   22  C5  UNK     1      31.936  -7.535  30.972  1.00  0.00    -0.018 A 
HETATM   23  C20 UNK     1      33.915  -8.273  29.121  1.00  0.00     0.001 A 
HETATM   24  C18 UNK     1      34.257  -8.049  30.451  1.00  0.00     0.001 A 
HETATM   25  C11 UNK     1      33.274  -7.682  31.371  1.00  0.00     0.013 A 
ENDBRANCH   3  12
BRANCH   5  26
HETATM   26  C13 UNK     1      29.314  -7.689  36.642  1.00  0.00     0.065 A 
HETATM   27  C21 UNK     1      29.614  -8.548  37.623  1.00  0.00     0.034 A 
HETATM   28  C25 UNK     1      28.566  -9.072  38.485  1.00  0.00    -0.001 A 
HETATM   29  C26 UNK     1      27.253  -8.664  38.272  1.00  0.00     0.089 A 
HETATM   30  C29 UNK     1      28.834  -9.970  39.521  1.00  0.00     0.014 A 
HETATM   31  O1  UNK     1      26.944  -7.760  37.239  1.00  0.00    -0.274 OA
HETATM   32  C30 UNK     1      26.204  -9.129  39.063  1.00  0.00     0.038 A 
HETATM   33  C23 UNK     1      27.924  -7.242  36.397  1.00  0.00     0.300 A 
HETATM   34  O2  UNK     1      27.645  -6.455  35.498  1.00  0.00    -0.259 OA
HETATM   35  C32 UNK     1      26.479 -10.025  40.093  1.00  0.00     0.003 A 
HETATM   36  C31 UNK     1      27.791 -10.444  40.322  1.00  0.00     0.001 A 
ENDBRANCH   5  26
TORSDOF 2
ENDMDL
MODEL 10
REMARK VINA RESULT:     -10.0      2.458      3.220
REMARK  2 active torsions:
REMARK  status: ('A' for Active; 'I' for Inactive)
REMARK    1  A    between atoms: C1_5  and  C2_6 
REMARK    2  A    between atoms: C13_17  and  C8_12 
ROOT
HETATM    1  S1  UNK     1      30.060  -7.508  33.288  1.00  0.00    -0.117 SA
HETATM    2  N1  UNK     1      29.449  -9.834  31.102  1.00  0.00    -0.251 NA
HETATM    3  C1  UNK     1      29.557  -9.037  34.143  1.00  0.00     0.093 C 
HETATM    4  C3  UNK     1      30.261 -10.226  33.502  1.00  0.00     0.080 C 
HETATM    5  C8  UNK     1      30.125 -10.470  32.008  1.00  0.00     0.053 C 
HETATM    6  C12 UNK     1      28.817  -7.581  32.016  1.00  0.00     0.030 A 
HETATM    7  C14 UNK     1      28.620  -8.708  31.203  1.00  0.00     0.073 A 
HETATM    8  C22 UNK     1      27.969  -6.465  31.896  1.00  0.00     0.021 A 
HETATM    9  C24 UNK     1      27.551  -8.676  30.287  1.00  0.00     0.033 A 
HETATM   10  C27 UNK     1      26.918  -6.462  30.984  1.00  0.00     0.002 A 
HETATM   11  C28 UNK     1      26.705  -7.572  30.181  1.00  0.00     0.002 A 
ENDROOT
BRANCH   3  12
HETATM   12  C2  UNK     1      29.810  -8.929  35.637  1.00  0.00    -0.021 A 
HETATM   13  C4  UNK     1      28.778  -9.248  36.535  1.00  0.00    -0.018 A 
HETATM   14  C10 UNK     1      27.515  -9.664  36.081  1.00  0.00     0.013 A 
HETATM   15  C6  UNK     1      29.013  -9.146  37.924  1.00  0.00    -0.025 A 
HETATM   16  C17 UNK     1      26.499  -9.977  36.985  1.00  0.00     0.001 A 
HETATM   17  C19 UNK     1      26.732  -9.878  38.354  1.00  0.00     0.001 A 
HETATM   18  C15 UNK     1      27.980  -9.466  38.820  1.00  0.00     0.012 A 
HETATM   19  C9  UNK     1      30.275  -8.730  38.378  1.00  0.00     0.024 A 
HETATM   20  C7  UNK     1      31.308  -8.411  37.480  1.00  0.00    -0.025 A 
HETATM   21  C16 UNK     1      32.571  -7.994  37.934  1.00  0.00     0.012 A 
HETATM   22  C5  UNK     1      31.072  -8.511  36.092  1.00  0.00    -0.018 A 
HETATM   23  C20 UNK     1      33.585  -7.681  37.030  1.00  0.00     0.001 A 
HETATM   24  C18 UNK     1      33.353  -7.780  35.662  1.00  0.00     0.001 A 
HETATM   25  C11 UNK     1      32.105  -8.193  35.195  1.00  0.00     0.013 A 
ENDBRANCH   3  12
BRANCH   5  26
HETATM   26  C13 UNK     1      30.899 -11.644  31.520  1.00  0.00     0.065 A 
HETATM   27  C21 UNK     1      30.613 -12.821  32.090  1.00  0.00     0.034 A 
HETATM   28  C25 UNK     1      31.317 -14.026  31.680  1.00  0.00    -0.001 A 
HETATM   29  C26 UNK     1      32.291 -13.933  30.690  1.00  0.00     0.089 A 
HETATM   30  C29 UNK     1      31.051 -15.274  32.248  1.00  0.00     0.014 A 
HETATM   31  O1  UNK     1      32.587 -12.692  30.095  1.00  0.00    -0.274 OA
HETATM   32  C30 UNK     1      33.001 -15.048  30.253  1.00  0.00     0.038 A 
HETATM   33  C23 UNK     1      31.931 -11.522  30.465  1.00  0.00     0.300 A 
HETATM   34  O2  UNK     1      32.197 -10.446  29.941  1.00  0.00    -0.259 OA
HETATM   35  C32 UNK     1      32.729 -16.289  30.825  1.00  0.00     0.003 A 
HETATM   36  C31 UNK     1      31.756 -16.402  31.819  1.00  0.00     0.001 A 
ENDBRANCH   5  26
TORSDOF 2
ENDMDL
