MODEL 1
REMARK VINA RESULT:      -9.8      0.000      0.000
REMARK  3 active torsions:
REMARK  status: ('A' for Active; 'I' for Inactive)
REMARK    1  A    between atoms: C10_17  and  O2_3 
REMARK    2  A    between atoms: C3_10  and  N1_6 
REMARK       I    between atoms: C9_16  and  N1_6 
REMARK    3  A    between atoms: C7_14  and  C9_16 
ROOT
HETATM    1  S1  UNK     1      19.530  -7.200  37.971  1.00  0.00    -0.075 SA
HETATM    2  N2  UNK     1      20.936  -7.255  33.078  1.00  0.00    -0.191 NA
HETATM    3  C1  UNK     1      20.450  -8.879  36.259  1.00  0.00    -0.026 A 
HETATM    4  C3  UNK     1      19.847  -6.686  36.391  1.00  0.00     0.098 A 
HETATM    5  C4  UNK     1      20.051  -8.782  37.574  1.00  0.00    -0.012 A 
HETATM    6  C6  UNK     1      20.327  -7.639  35.569  1.00  0.00     0.085 A 
HETATM    7  C12 UNK     1      20.949 -10.135  35.643  1.00  0.00     0.051 C 
HETATM    8  C14 UNK     1      20.026  -9.831  38.619  1.00  0.00     0.057 C 
HETATM    9  C17 UNK     1      20.663  -7.427  34.195  1.00  0.00     0.103 C 
ENDROOT
BRANCH   4  10
HETATM   10  N1  UNK     1      19.568  -5.321  36.138  1.00  0.00    -0.316 N 
HETATM   11  C9  UNK     1      20.296  -4.215  36.556  1.00  0.00     0.262 C 
HETATM   12  O3  UNK     1      21.327  -4.195  37.226  1.00  0.00    -0.267 OA
HETATM   13  H2  UNK     1      18.716  -5.175  35.602  1.00  0.00     0.170 HD
BRANCH  11  14
HETATM   14  C7  UNK     1      19.698  -2.955  36.100  1.00  0.00     0.108 A 
HETATM   15  C13 UNK     1      19.896  -2.443  34.725  1.00  0.00     0.304 A 
HETATM   16  O1  UNK     1      19.278  -1.235  34.413  1.00  0.00    -0.271 OA
HETATM   17  O4  UNK     1      20.568  -3.049  33.898  1.00  0.00    -0.259 OA
HETATM   18  C5  UNK     1      18.502  -0.532  35.356  1.00  0.00     0.123 A 
HETATM   19  C10 UNK     1      17.922   0.669  34.951  1.00  0.00     0.102 A 
HETATM   20  C2  UNK     1      18.329  -1.030  36.643  1.00  0.00     0.002 A 
HETATM   21  C15 UNK     1      17.150   1.388  35.861  1.00  0.00     0.040 A 
HETATM   22  C16 UNK     1      16.967   0.903  37.157  1.00  0.00     0.004 A 
HETATM   23  C11 UNK     1      17.554  -0.303  37.549  1.00  0.00     0.014 A 
HETATM   24  C8  UNK     1      18.963  -2.290  37.001  1.00  0.00     0.037 A 
BRANCH  19  25
HETATM   25  O2  UNK     1      18.099   1.145  33.689  1.00  0.00    -0.353 OA
HETATM   26  C18 UNK     1      18.209   2.560  33.536  1.00  0.00     0.210 C 
ENDBRANCH  19  25
ENDBRANCH  11  14
ENDBRANCH   4  10
TORSDOF 3
ENDMDL
MODEL 2
REMARK VINA RESULT:      -9.3      1.867      2.250
REMARK  3 active torsions:
REMARK  status: ('A' for Active; 'I' for Inactive)
REMARK    1  A    between atoms: C10_17  and  O2_3 
REMARK    2  A    between atoms: C3_10  and  N1_6 
REMARK       I    between atoms: C9_16  and  N1_6 
REMARK    3  A    between atoms: C7_14  and  C9_16 
ROOT
HETATM    1  S1  UNK     1      18.801  -7.290  37.875  1.00  0.00    -0.075 SA
HETATM    2  N2  UNK     1      23.430  -5.423  38.879  1.00  0.00    -0.191 NA
HETATM    3  C1  UNK     1      21.012  -8.096  38.905  1.00  0.00    -0.026 A 
HETATM    4  C3  UNK     1      20.107  -6.220  37.983  1.00  0.00     0.098 A 
HETATM    5  C4  UNK     1      19.739  -8.526  38.602  1.00  0.00    -0.012 A 
HETATM    6  C6  UNK     1      21.220  -6.736  38.537  1.00  0.00     0.085 A 
HETATM    7  C12 UNK     1      22.040  -8.959  39.543  1.00  0.00     0.051 C 
HETATM    8  C14 UNK     1      19.129  -9.856  38.823  1.00  0.00     0.057 C 
HETATM    9  C17 UNK     1      22.439  -6.011  38.726  1.00  0.00     0.103 C 
ENDROOT
BRANCH   4  10
HETATM   10  N1  UNK     1      19.859  -4.921  37.476  1.00  0.00    -0.316 N 
HETATM   11  C9  UNK     1      19.923  -4.501  36.154  1.00  0.00     0.262 C 
HETATM   12  O3  UNK     1      20.207  -5.166  35.160  1.00  0.00    -0.267 OA
HETATM   13  H2  UNK     1      19.628  -4.243  38.197  1.00  0.00     0.170 HD
BRANCH  11  14
HETATM   14  C7  UNK     1      19.599  -3.077  36.010  1.00  0.00     0.108 A 
HETATM   15  C13 UNK     1      20.050  -2.282  34.845  1.00  0.00     0.304 A 
HETATM   16  O1  UNK     1      19.679  -0.941  34.823  1.00  0.00    -0.271 OA
HETATM   17  O4  UNK     1      20.714  -2.776  33.941  1.00  0.00    -0.259 OA
HETATM   18  C5  UNK     1      18.915  -0.364  35.856  1.00  0.00     0.123 A 
HETATM   19  C10 UNK     1      18.592   0.988  35.745  1.00  0.00     0.102 A 
HETATM   20  C2  UNK     1      18.502  -1.127  36.942  1.00  0.00     0.002 A 
HETATM   21  C15 UNK     1      17.838   1.587  36.751  1.00  0.00     0.040 A 
HETATM   22  C16 UNK     1      17.416   0.836  37.850  1.00  0.00     0.004 A 
HETATM   23  C11 UNK     1      17.746  -0.519  37.947  1.00  0.00     0.014 A 
HETATM   24  C8  UNK     1      18.873  -2.534  36.995  1.00  0.00     0.037 A 
BRANCH  19  25
HETATM   25  O2  UNK     1      19.002   1.724  34.677  1.00  0.00    -0.353 OA
HETATM   26  C18 UNK     1      18.033   1.999  33.666  1.00  0.00     0.210 C 
ENDBRANCH  19  25
ENDBRANCH  11  14
ENDBRANCH   4  10
TORSDOF 3
ENDMDL
MODEL 3
REMARK VINA RESULT:      -9.3      2.584      8.016
REMARK  3 active torsions:
REMARK  status: ('A' for Active; 'I' for Inactive)
REMARK    1  A    between atoms: C10_17  and  O2_3 
REMARK    2  A    between atoms: C3_10  and  N1_6 
REMARK       I    between atoms: C9_16  and  N1_6 
REMARK    3  A    between atoms: C7_14  and  C9_16 
ROOT
HETATM    1  S1  UNK     1      17.853  -1.208  37.583  1.00  0.00    -0.075 SA
HETATM    2  N2  UNK     1      19.781  -1.774  32.904  1.00  0.00    -0.191 NA
HETATM    3  C1  UNK     1      18.181   0.201  35.460  1.00  0.00    -0.026 A 
HETATM    4  C3  UNK     1      18.586  -1.906  36.227  1.00  0.00     0.098 A 
HETATM    5  C4  UNK     1      17.679   0.274  36.741  1.00  0.00    -0.012 A 
HETATM    6  C6  UNK     1      18.712  -1.088  35.165  1.00  0.00     0.085 A 
HETATM    7  C12 UNK     1      18.162   1.339  34.505  1.00  0.00     0.051 C 
HETATM    8  C14 UNK     1      17.045   1.421  37.428  1.00  0.00     0.057 C 
HETATM    9  C17 UNK     1      19.301  -1.467  33.918  1.00  0.00     0.103 C 
ENDROOT
BRANCH   4  10
HETATM   10  N1  UNK     1      18.971  -3.259  36.385  1.00  0.00    -0.316 N 
HETATM   11  C9  UNK     1      20.028  -3.758  37.135  1.00  0.00     0.262 C 
HETATM   12  O3  UNK     1      20.841  -3.129  37.810  1.00  0.00    -0.267 OA
HETATM   13  H2  UNK     1      18.392  -3.909  35.858  1.00  0.00     0.170 HD
BRANCH  11  14
HETATM   14  C7  UNK     1      20.118  -5.221  37.060  1.00  0.00     0.108 A 
HETATM   15  C13 UNK     1      20.269  -5.934  35.771  1.00  0.00     0.304 A 
HETATM   16  O1  UNK     1      20.342  -7.323  35.831  1.00  0.00    -0.271 OA
HETATM   17  O4  UNK     1      20.330  -5.337  34.703  1.00  0.00    -0.259 OA
HETATM   18  C5  UNK     1      20.275  -8.019  37.054  1.00  0.00     0.123 A 
HETATM   19  C10 UNK     1      20.357  -9.409  37.013  1.00  0.00     0.102 A 
HETATM   20  C2  UNK     1      20.132  -7.329  38.253  1.00  0.00     0.002 A 
HETATM   21  C15 UNK     1      20.293 -10.126  38.206  1.00  0.00     0.040 A 
HETATM   22  C16 UNK     1      20.148  -9.450  39.420  1.00  0.00     0.004 A 
HETATM   23  C11 UNK     1      20.068  -8.055  39.445  1.00  0.00     0.014 A 
HETATM   24  C8  UNK     1      20.052  -5.877  38.225  1.00  0.00     0.037 A 
BRANCH  19  25
HETATM   25  O2  UNK     1      20.497 -10.072  35.833  1.00  0.00    -0.353 OA
HETATM   26  C18 UNK     1      21.789 -10.597  35.531  1.00  0.00     0.210 C 
ENDBRANCH  19  25
ENDBRANCH  11  14
ENDBRANCH   4  10
TORSDOF 3
ENDMDL
MODEL 4
REMARK VINA RESULT:      -9.3     19.058     21.670
REMARK  3 active torsions:
REMARK  status: ('A' for Active; 'I' for Inactive)
REMARK    1  A    between atoms: C10_17  and  O2_3 
REMARK    2  A    between atoms: C3_10  and  N1_6 
REMARK       I    between atoms: C9_16  and  N1_6 
REMARK    3  A    between atoms: C7_14  and  C9_16 
ROOT
HETATM    1  S1  UNK     1      19.279  -0.543  19.287  1.00  0.00    -0.075 SA
HETATM    2  N2  UNK     1      19.288   2.755  15.408  1.00  0.00    -0.191 NA
HETATM    3  C1  UNK     1      19.419   1.997  18.930  1.00  0.00    -0.026 A 
HETATM    4  C3  UNK     1      19.238   0.078  17.714  1.00  0.00     0.098 A 
HETATM    5  C4  UNK     1      19.410   1.042  19.923  1.00  0.00    -0.012 A 
HETATM    6  C6  UNK     1      19.317   1.420  17.631  1.00  0.00     0.085 A 
HETATM    7  C12 UNK     1      19.523   3.455  19.194  1.00  0.00     0.051 C 
HETATM    8  C14 UNK     1      19.494   1.224  21.389  1.00  0.00     0.057 C 
HETATM    9  C17 UNK     1      19.300   2.156  16.405  1.00  0.00     0.103 C 
ENDROOT
BRANCH   4  10
HETATM   10  N1  UNK     1      19.125  -0.893  16.691  1.00  0.00    -0.316 N 
HETATM   11  C9  UNK     1      18.045  -1.725  16.427  1.00  0.00     0.262 C 
HETATM   12  O3  UNK     1      16.973  -1.788  17.024  1.00  0.00    -0.267 OA
HETATM   13  H2  UNK     1      19.960  -0.973  16.115  1.00  0.00     0.170 HD
BRANCH  11  14
HETATM   14  C7  UNK     1      18.293  -2.606  15.279  1.00  0.00     0.108 A 
HETATM   15  C13 UNK     1      18.842  -2.096  14.001  1.00  0.00     0.304 A 
HETATM   16  O1  UNK     1      19.032  -3.030  12.987  1.00  0.00    -0.271 OA
HETATM   17  O4  UNK     1      19.118  -0.913  13.841  1.00  0.00    -0.259 OA
HETATM   18  C5  UNK     1      18.718  -4.392  13.162  1.00  0.00     0.123 A 
HETATM   19  C10 UNK     1      18.944  -5.251  12.088  1.00  0.00     0.102 A 
HETATM   20  C2  UNK     1      18.203  -4.850  14.370  1.00  0.00     0.002 A 
HETATM   21  C15 UNK     1      18.643  -6.604  12.231  1.00  0.00     0.040 A 
HETATM   22  C16 UNK     1      18.125  -7.082  13.436  1.00  0.00     0.004 A 
HETATM   23  C11 UNK     1      17.905  -6.208  14.504  1.00  0.00     0.014 A 
HETATM   24  C8  UNK     1      17.993  -3.899  15.451  1.00  0.00     0.037 A 
BRANCH  19  25
HETATM   25  O2  UNK     1      19.448  -4.791  10.911  1.00  0.00    -0.353 OA
HETATM   26  C18 UNK     1      18.525  -4.589   9.842  1.00  0.00     0.210 C 
ENDBRANCH  19  25
ENDBRANCH  11  14
ENDBRANCH   4  10
TORSDOF 3
ENDMDL
MODEL 5
REMARK VINA RESULT:      -9.1     18.332     20.321
REMARK  3 active torsions:
REMARK  status: ('A' for Active; 'I' for Inactive)
REMARK    1  A    between atoms: C10_17  and  O2_3 
REMARK    2  A    between atoms: C3_10  and  N1_6 
REMARK       I    between atoms: C9_16  and  N1_6 
REMARK    3  A    between atoms: C7_14  and  C9_16 
ROOT
HETATM    1  S1  UNK     1      20.343  -4.642  14.888  1.00  0.00    -0.075 SA
HETATM    2  N2  UNK     1      18.947  -1.107  11.499  1.00  0.00    -0.191 NA
HETATM    3  C1  UNK     1      19.916  -4.471  12.361  1.00  0.00    -0.026 A 
HETATM    4  C3  UNK     1      19.873  -3.159  14.223  1.00  0.00     0.098 A 
HETATM    5  C4  UNK     1      20.289  -5.368  13.337  1.00  0.00    -0.012 A 
HETATM    6  C6  UNK     1      19.674  -3.171  12.891  1.00  0.00     0.085 A 
HETATM    7  C12 UNK     1      19.788  -4.827  10.924  1.00  0.00     0.051 C 
HETATM    8  C14 UNK     1      20.628  -6.802  13.203  1.00  0.00     0.057 C 
HETATM    9  C17 UNK     1      19.273  -2.032  12.123  1.00  0.00     0.103 C 
ENDROOT
BRANCH   4  10
HETATM   10  N1  UNK     1      19.749  -2.098  15.153  1.00  0.00    -0.316 N 
HETATM   11  C9  UNK     1      18.658  -1.799  15.957  1.00  0.00     0.262 C 
HETATM   12  O3  UNK     1      17.581  -2.389  16.025  1.00  0.00    -0.267 OA
HETATM   13  H2  UNK     1      20.570  -1.499  15.193  1.00  0.00     0.170 HD
BRANCH  11  14
HETATM   14  C7  UNK     1      18.898  -0.620  16.799  1.00  0.00     0.108 A 
HETATM   15  C13 UNK     1      19.145   0.721  16.221  1.00  0.00     0.304 A 
HETATM   16  O1  UNK     1      19.360   1.759  17.123  1.00  0.00    -0.271 OA
HETATM   17  O4  UNK     1      19.159   0.913  15.011  1.00  0.00    -0.259 OA
HETATM   18  C5  UNK     1      19.345   1.549  18.516  1.00  0.00     0.123 A 
HETATM   19  C10 UNK     1      19.570   2.650  19.339  1.00  0.00     0.102 A 
HETATM   20  C2  UNK     1      19.111   0.281  19.038  1.00  0.00     0.002 A 
HETATM   21  C15 UNK     1      19.562   2.474  20.721  1.00  0.00     0.040 A 
HETATM   22  C16 UNK     1      19.330   1.208  21.263  1.00  0.00     0.004 A 
HETATM   23  C11 UNK     1      19.105   0.113  20.424  1.00  0.00     0.014 A 
HETATM   24  C8  UNK     1      18.883  -0.826  18.121  1.00  0.00     0.037 A 
BRANCH  19  25
HETATM   25  O2  UNK     1      19.797   3.886  18.816  1.00  0.00    -0.353 OA
HETATM   26  C18 UNK     1      21.149   4.226  18.513  1.00  0.00     0.210 C 
ENDBRANCH  19  25
ENDBRANCH  11  14
ENDBRANCH   4  10
TORSDOF 3
ENDMDL
MODEL 6
REMARK VINA RESULT:      -9.0      1.221      2.078
REMARK  3 active torsions:
REMARK  status: ('A' for Active; 'I' for Inactive)
REMARK    1  A    between atoms: C10_17  and  O2_3 
REMARK    2  A    between atoms: C3_10  and  N1_6 
REMARK       I    between atoms: C9_16  and  N1_6 
REMARK    3  A    between atoms: C7_14  and  C9_16 
ROOT
HETATM    1  S1  UNK     1      20.791  -7.629  34.707  1.00  0.00    -0.075 SA
HETATM    2  N2  UNK     1      19.753  -6.684  39.602  1.00  0.00    -0.191 NA
HETATM    3  C1  UNK     1      20.837  -8.876  36.953  1.00  0.00    -0.026 A 
HETATM    4  C3  UNK     1      20.324  -6.819  36.117  1.00  0.00     0.098 A 
HETATM    5  C4  UNK     1      21.095  -9.052  35.611  1.00  0.00    -0.012 A 
HETATM    6  C6  UNK     1      20.382  -7.557  37.242  1.00  0.00     0.085 A 
HETATM    7  C12 UNK     1      21.014  -9.943  37.971  1.00  0.00     0.051 C 
HETATM    8  C14 UNK     1      21.577 -10.261  34.908  1.00  0.00     0.057 C 
HETATM    9  C17 UNK     1      20.034  -7.075  38.544  1.00  0.00     0.103 C 
ENDROOT
BRANCH   4  10
HETATM   10  N1  UNK     1      19.933  -5.471  35.931  1.00  0.00    -0.316 N 
HETATM   11  C9  UNK     1      20.530  -4.334  36.459  1.00  0.00     0.262 C 
HETATM   12  O3  UNK     1      21.515  -4.266  37.192  1.00  0.00    -0.267 OA
HETATM   13  H2  UNK     1      19.103  -5.367  35.352  1.00  0.00     0.170 HD
BRANCH  11  14
HETATM   14  C7  UNK     1      19.844  -3.105  36.044  1.00  0.00     0.108 A 
HETATM   15  C13 UNK     1      19.977  -2.554  34.676  1.00  0.00     0.304 A 
HETATM   16  O1  UNK     1      19.277  -1.381  34.405  1.00  0.00    -0.271 OA
HETATM   17  O4  UNK     1      20.666  -3.099  33.822  1.00  0.00    -0.259 OA
HETATM   18  C5  UNK     1      18.482  -0.748  35.379  1.00  0.00     0.123 A 
HETATM   19  C10 UNK     1      17.819   0.422  35.013  1.00  0.00     0.102 A 
HETATM   20  C2  UNK     1      18.371  -1.281  36.658  1.00  0.00     0.002 A 
HETATM   21  C15 UNK     1      17.025   1.072  35.955  1.00  0.00     0.040 A 
HETATM   22  C16 UNK     1      16.903   0.551  37.245  1.00  0.00     0.004 A 
HETATM   23  C11 UNK     1      17.573  -0.623  37.597  1.00  0.00     0.014 A 
HETATM   24  C8  UNK     1      19.091  -2.506  36.975  1.00  0.00     0.037 A 
BRANCH  19  25
HETATM   25  O2  UNK     1      17.936   0.934  33.758  1.00  0.00    -0.353 OA
HETATM   26  C18 UNK     1      18.198   2.332  33.647  1.00  0.00     0.210 C 
ENDBRANCH  19  25
ENDBRANCH  11  14
ENDBRANCH   4  10
TORSDOF 3
ENDMDL
MODEL 7
REMARK VINA RESULT:      -9.0      6.799     12.008
REMARK  3 active torsions:
REMARK  status: ('A' for Active; 'I' for Inactive)
REMARK    1  A    between atoms: C10_17  and  O2_3 
REMARK    2  A    between atoms: C3_10  and  N1_6 
REMARK       I    between atoms: C9_16  and  N1_6 
REMARK    3  A    between atoms: C7_14  and  C9_16 
ROOT
HETATM    1  S1  UNK     1      18.059   8.438  34.069  1.00  0.00    -0.075 SA
HETATM    2  N2  UNK     1      13.655   6.852  32.065  1.00  0.00    -0.191 NA
HETATM    3  C1  UNK     1      15.842   9.455  33.263  1.00  0.00    -0.026 A 
HETATM    4  C3  UNK     1      16.853   7.422  33.456  1.00  0.00     0.098 A 
HETATM    5  C4  UNK     1      17.059   9.804  33.807  1.00  0.00    -0.012 A 
HETATM    6  C6  UNK     1      15.729   8.049  33.060  1.00  0.00     0.085 A 
HETATM    7  C12 UNK     1      14.779  10.438  32.931  1.00  0.00     0.051 C 
HETATM    8  C14 UNK     1      17.566  11.146  34.168  1.00  0.00     0.057 C 
HETATM    9  C17 UNK     1      14.585   7.389  32.511  1.00  0.00     0.103 C 
ENDROOT
BRANCH   4  10
HETATM   10  N1  UNK     1      17.182   6.045  33.440  1.00  0.00    -0.316 N 
HETATM   11  C9  UNK     1      18.233   5.433  32.771  1.00  0.00     0.262 C 
HETATM   12  O3  UNK     1      19.088   5.958  32.060  1.00  0.00    -0.267 OA
HETATM   13  H2  UNK     1      16.538   5.469  33.977  1.00  0.00     0.170 HD
BRANCH  11  14
HETATM   14  C7  UNK     1      18.258   3.982  32.990  1.00  0.00     0.108 A 
HETATM   15  C13 UNK     1      18.188   3.017  31.869  1.00  0.00     0.304 A 
HETATM   16  O1  UNK     1      18.219   1.666  32.205  1.00  0.00    -0.271 OA
HETATM   17  O4  UNK     1      18.108   3.383  30.702  1.00  0.00    -0.259 OA
HETATM   18  C5  UNK     1      18.311   1.235  33.543  1.00  0.00     0.123 A 
HETATM   19  C10 UNK     1      18.336  -0.138  33.780  1.00  0.00     0.102 A 
HETATM   20  C2  UNK     1      18.375   2.158  34.581  1.00  0.00     0.002 A 
HETATM   21  C15 UNK     1      18.427  -0.595  35.093  1.00  0.00     0.040 A 
HETATM   22  C16 UNK     1      18.491   0.317  36.148  1.00  0.00     0.004 A 
HETATM   23  C11 UNK     1      18.466   1.691  35.895  1.00  0.00     0.014 A 
HETATM   24  C8  UNK     1      18.344   3.578  34.263  1.00  0.00     0.037 A 
BRANCH  19  25
HETATM   25  O2  UNK     1      18.273  -1.031  32.756  1.00  0.00    -0.353 OA
HETATM   26  C18 UNK     1      19.480  -1.709  32.409  1.00  0.00     0.210 C 
ENDBRANCH  19  25
ENDBRANCH  11  14
ENDBRANCH   4  10
TORSDOF 3
ENDMDL
MODEL 8
REMARK VINA RESULT:      -8.8      6.482     11.790
REMARK  3 active torsions:
REMARK  status: ('A' for Active; 'I' for Inactive)
REMARK    1  A    between atoms: C10_17  and  O2_3 
REMARK    2  A    between atoms: C3_10  and  N1_6 
REMARK       I    between atoms: C9_16  and  N1_6 
REMARK    3  A    between atoms: C7_14  and  C9_16 
ROOT
HETATM    1  S1  UNK     1      15.605   6.542  32.348  1.00  0.00    -0.075 SA
HETATM    2  N2  UNK     1      20.496   7.313  33.535  1.00  0.00    -0.191 NA
HETATM    3  C1  UNK     1      17.108   8.475  33.125  1.00  0.00    -0.026 A 
HETATM    4  C3  UNK     1      17.252   6.259  32.615  1.00  0.00     0.098 A 
HETATM    5  C4  UNK     1      15.804   8.185  32.788  1.00  0.00    -0.012 A 
HETATM    6  C6  UNK     1      17.954   7.333  33.020  1.00  0.00     0.085 A 
HETATM    7  C12 UNK     1      17.567   9.823  33.547  1.00  0.00     0.051 C 
HETATM    8  C14 UNK     1      14.628   9.084  32.764  1.00  0.00     0.057 C 
HETATM    9  C17 UNK     1      19.356   7.322  33.304  1.00  0.00     0.103 C 
ENDROOT
BRANCH   4  10
HETATM   10  N1  UNK     1      17.676   4.929  32.378  1.00  0.00    -0.316 N 
HETATM   11  C9  UNK     1      18.335   4.436  31.259  1.00  0.00     0.262 C 
HETATM   12  O3  UNK     1      18.682   5.050  30.252  1.00  0.00    -0.267 OA
HETATM   13  H2  UNK     1      17.434   4.287  33.129  1.00  0.00     0.170 HD
BRANCH  11  14
HETATM   14  C7  UNK     1      18.615   3.000  31.370  1.00  0.00     0.108 A 
HETATM   15  C13 UNK     1      18.368   2.245  32.621  1.00  0.00     0.304 A 
HETATM   16  O1  UNK     1      18.675   0.888  32.602  1.00  0.00    -0.271 OA
HETATM   17  O4  UNK     1      17.915   2.784  33.624  1.00  0.00    -0.259 OA
HETATM   18  C5  UNK     1      19.195   0.259  31.453  1.00  0.00     0.123 A 
HETATM   19  C10 UNK     1      19.470  -1.105  31.531  1.00  0.00     0.102 A 
HETATM   20  C2  UNK     1      19.419   0.986  30.290  1.00  0.00     0.002 A 
HETATM   21  C15 UNK     1      19.986  -1.755  30.412  1.00  0.00     0.040 A 
HETATM   22  C16 UNK     1      20.218  -1.041  29.234  1.00  0.00     0.004 A 
HETATM   23  C11 UNK     1      19.936   0.327  29.172  1.00  0.00     0.014 A 
HETATM   24  C8  UNK     1      19.109   2.408  30.277  1.00  0.00     0.037 A 
BRANCH  19  25
HETATM   25  O2  UNK     1      19.245  -1.805  32.676  1.00  0.00    -0.353 OA
HETATM   26  C18 UNK     1      20.381  -2.379  33.321  1.00  0.00     0.210 C 
ENDBRANCH  19  25
ENDBRANCH  11  14
ENDBRANCH   4  10
TORSDOF 3
ENDMDL
MODEL 9
REMARK VINA RESULT:      -8.6     19.263     21.854
REMARK  3 active torsions:
REMARK  status: ('A' for Active; 'I' for Inactive)
REMARK    1  A    between atoms: C10_17  and  O2_3 
REMARK    2  A    between atoms: C3_10  and  N1_6 
REMARK       I    between atoms: C9_16  and  N1_6 
REMARK    3  A    between atoms: C7_14  and  C9_16 
ROOT
HETATM    1  S1  UNK     1      19.305  -0.582  19.244  1.00  0.00    -0.075 SA
HETATM    2  N2  UNK     1      19.267   2.760  15.403  1.00  0.00    -0.191 NA
HETATM    3  C1  UNK     1      19.409   1.963  18.916  1.00  0.00    -0.026 A 
HETATM    4  C3  UNK     1      19.255   0.056  17.678  1.00  0.00     0.098 A 
HETATM    5  C4  UNK     1      19.413   0.997  19.898  1.00  0.00    -0.012 A 
HETATM    6  C6  UNK     1      19.315   1.400  17.611  1.00  0.00     0.085 A 
HETATM    7  C12 UNK     1      19.492   3.420  19.196  1.00  0.00     0.051 C 
HETATM    8  C14 UNK     1      19.494   1.164  21.366  1.00  0.00     0.057 C 
HETATM    9  C17 UNK     1      19.288   2.150  16.393  1.00  0.00     0.103 C 
ENDROOT
BRANCH   4  10
HETATM   10  N1  UNK     1      19.156  -0.905  16.643  1.00  0.00    -0.316 N 
HETATM   11  C9  UNK     1      18.083  -1.739  16.361  1.00  0.00     0.262 C 
HETATM   12  O3  UNK     1      17.005  -1.814  16.949  1.00  0.00    -0.267 OA
HETATM   13  H2  UNK     1      19.996  -0.974  16.075  1.00  0.00     0.170 HD
BRANCH  11  14
HETATM   14  C7  UNK     1      18.346  -2.607  15.207  1.00  0.00     0.108 A 
HETATM   15  C13 UNK     1      17.831  -3.993  15.132  1.00  0.00     0.304 A 
HETATM   16  O1  UNK     1      18.148  -4.716  13.986  1.00  0.00    -0.271 OA
HETATM   17  O4  UNK     1      17.158  -4.484  16.031  1.00  0.00    -0.259 OA
HETATM   18  C5  UNK     1      18.920  -4.161  12.946  1.00  0.00     0.123 A 
HETATM   19  C10 UNK     1      19.185  -4.963  11.838  1.00  0.00     0.102 A 
HETATM   20  C2  UNK     1      19.394  -2.857  13.037  1.00  0.00     0.002 A 
HETATM   21  C15 UNK     1      19.947  -4.442  10.794  1.00  0.00     0.040 A 
HETATM   22  C16 UNK     1      20.432  -3.134  10.867  1.00  0.00     0.004 A 
HETATM   23  C11 UNK     1      20.157  -2.342  11.985  1.00  0.00     0.014 A 
HETATM   24  C8  UNK     1      19.081  -2.074  14.223  1.00  0.00     0.037 A 
BRANCH  19  25
HETATM   25  O2  UNK     1      18.715  -6.237  11.762  1.00  0.00    -0.353 OA
HETATM   26  C18 UNK     1      18.145  -6.648  10.519  1.00  0.00     0.210 C 
ENDBRANCH  19  25
ENDBRANCH  11  14
ENDBRANCH   4  10
TORSDOF 3
ENDMDL
MODEL 10
REMARK VINA RESULT:      -8.6      7.187     12.665
REMARK  3 active torsions:
REMARK  status: ('A' for Active; 'I' for Inactive)
REMARK    1  A    between atoms: C10_17  and  O2_3 
REMARK    2  A    between atoms: C3_10  and  N1_6 
REMARK       I    between atoms: C9_16  and  N1_6 
REMARK    3  A    between atoms: C7_14  and  C9_16 
ROOT
HETATM    1  S1  UNK     1      17.865   8.678  33.741  1.00  0.00    -0.075 SA
HETATM    2  N2  UNK     1      13.465   6.909  31.888  1.00  0.00    -0.191 NA
HETATM    3  C1  UNK     1      15.477   9.529  33.331  1.00  0.00    -0.026 A 
HETATM    4  C3  UNK     1      16.716   7.635  33.066  1.00  0.00     0.098 A 
HETATM    5  C4  UNK     1      16.701   9.932  33.818  1.00  0.00    -0.012 A 
HETATM    6  C6  UNK     1      15.494   8.174  32.891  1.00  0.00     0.085 A 
HETATM    7  C12 UNK     1      14.283  10.413  33.278  1.00  0.00     0.051 C 
HETATM    8  C14 UNK     1      17.097  11.248  34.367  1.00  0.00     0.057 C 
HETATM    9  C17 UNK     1      14.374   7.476  32.338  1.00  0.00     0.103 C 
ENDROOT
BRANCH   4  10
HETATM   10  N1  UNK     1      17.187   6.333  32.774  1.00  0.00    -0.316 N 
HETATM   11  C9  UNK     1      17.955   5.933  31.689  1.00  0.00     0.262 C 
HETATM   12  O3  UNK     1      18.380   6.625  30.765  1.00  0.00    -0.267 OA
HETATM   13  H2  UNK     1      16.892   5.635  33.452  1.00  0.00     0.170 HD
BRANCH  11  14
HETATM   14  C7  UNK     1      18.255   4.497  31.722  1.00  0.00     0.108 A 
HETATM   15  C13 UNK     1      18.296   3.732  32.989  1.00  0.00     0.304 A 
HETATM   16  O1  UNK     1      18.592   2.375  32.889  1.00  0.00    -0.271 OA
HETATM   17  O4  UNK     1      18.079   4.261  34.073  1.00  0.00    -0.259 OA
HETATM   18  C5  UNK     1      18.841   1.757  31.648  1.00  0.00     0.123 A 
HETATM   19  C10 UNK     1      19.128   0.394  31.649  1.00  0.00     0.102 A 
HETATM   20  C2  UNK     1      18.798   2.495  30.470  1.00  0.00     0.002 A 
HETATM   21  C15 UNK     1      19.379  -0.245  30.437  1.00  0.00     0.040 A 
HETATM   22  C16 UNK     1      19.341   0.479  29.244  1.00  0.00     0.004 A 
HETATM   23  C11 UNK     1      19.051   1.846  29.258  1.00  0.00     0.014 A 
HETATM   24  C8  UNK     1      18.491   3.916  30.539  1.00  0.00     0.037 A 
BRANCH  19  25
HETATM   25  O2  UNK     1      19.167  -0.316  32.809  1.00  0.00    -0.353 OA
HETATM   26  C18 UNK     1      19.457  -1.710  32.710  1.00  0.00     0.210 C 
ENDBRANCH  19  25
ENDBRANCH  11  14
ENDBRANCH   4  10
TORSDOF 3
ENDMDL
