MODEL 1
REMARK VINA RESULT:      -9.4      0.000      0.000
REMARK  5 active torsions:
REMARK  status: ('A' for Active; 'I' for Inactive)
REMARK    1  A    between atoms: C14_20  and  O4_5 
REMARK    2  A    between atoms: C10_16  and  N1_6 
REMARK       I    between atoms: C8_14  and  N1_6 
REMARK    3  A    between atoms: C2_8  and  C4_10 
REMARK    4  A    between atoms: C4_10  and  C8_14 
REMARK    5  A    between atoms: C10_16  and  C13_19 
ROOT
HETATM    1  O1  UNK     1      18.942   0.617  32.640  1.00  0.00    -0.274 OA
HETATM    2  O2  UNK     1      18.085   2.294  33.907  1.00  0.00    -0.259 OA
HETATM    3  C1  UNK     1      18.726   2.299  30.373  1.00  0.00    -0.036 A 
HETATM    4  C2  UNK     1      18.311   2.742  31.579  1.00  0.00     0.033 A 
HETATM    5  C3  UNK     1      19.255   0.925  30.247  1.00  0.00     0.005 A 
HETATM    6  C5  UNK     1      19.346   0.132  31.387  1.00  0.00     0.092 A 
HETATM    7  C6  UNK     1      18.425   1.892  32.799  1.00  0.00     0.295 A 
HETATM    8  C7  UNK     1      18.701   3.138  29.119  1.00  0.00     0.050 C 
HETATM    9  C9  UNK     1      19.669   0.352  29.035  1.00  0.00     0.017 A 
HETATM   10  C11 UNK     1      19.834  -1.178  31.356  1.00  0.00     0.074 A 
HETATM   11  C12 UNK     1      20.160  -0.958  28.984  1.00  0.00     0.037 A 
HETATM   12  C14 UNK     1      20.243  -1.722  30.145  1.00  0.00     0.068 A 
ENDROOT
BRANCH   4  13
HETATM   13  C4  UNK     1      17.695   4.094  31.835  1.00  0.00     0.148 C 
BRANCH  13  14
HETATM   14  C8  UNK     1      18.786   5.043  32.272  1.00  0.00     0.222 C 
HETATM   15  O3  UNK     1      19.674   5.420  31.509  1.00  0.00    -0.273 OA
HETATM   16  N1  UNK     1      18.671   5.406  33.603  1.00  0.00    -0.357 N 
HETATM   17  H10 UNK     1      17.897   5.050  34.156  1.00  0.00     0.162 HD
BRANCH  16  18
HETATM   18  C10 UNK     1      19.603   6.291  34.263  1.00  0.00     0.161 C 
BRANCH  18  19
HETATM   19  C13 UNK     1      19.139   7.718  34.159  1.00  0.00    -0.039 A 
HETATM   20  C15 UNK     1      17.808   7.987  33.866  1.00  0.00     0.032 A 
HETATM   21  C17 UNK     1      17.379   9.311  33.772  1.00  0.00     0.034 A 
HETATM   22 Cl1  UNK     1      15.733   9.658  33.407  1.00  0.00    -0.084 Cl
HETATM   23  C19 UNK     1      18.283  10.354  33.971  1.00  0.00     0.024 A 
HETATM   24  C18 UNK     1      19.617  10.073  34.265  1.00  0.00     0.002 A 
HETATM   25  C16 UNK     1      20.047   8.750  34.360  1.00  0.00     0.009 A 
ENDBRANCH  18  19
ENDBRANCH  16  18
ENDBRANCH  13  14
ENDBRANCH   4  13
BRANCH  12  26
HETATM   26  O4  UNK     1      20.721  -2.995  30.093  1.00  0.00    -0.361 OA
HETATM   27  H16 UNK     1      21.661  -2.989  30.342  1.00  0.00     0.217 HD
ENDBRANCH  12  26
TORSDOF 5
ENDMDL
MODEL 2
REMARK VINA RESULT:      -9.0      3.629      8.864
REMARK  5 active torsions:
REMARK  status: ('A' for Active; 'I' for Inactive)
REMARK    1  A    between atoms: C14_20  and  O4_5 
REMARK    2  A    between atoms: C10_16  and  N1_6 
REMARK       I    between atoms: C8_14  and  N1_6 
REMARK    3  A    between atoms: C2_8  and  C4_10 
REMARK    4  A    between atoms: C4_10  and  C8_14 
REMARK    5  A    between atoms: C10_16  and  C13_19 
ROOT
HETATM    1  O1  UNK     1      17.129   7.434  30.676  1.00  0.00    -0.274 OA
HETATM    2  O2  UNK     1      18.668   6.255  29.496  1.00  0.00    -0.259 OA
HETATM    3  C1  UNK     1      17.628   5.750  32.896  1.00  0.00    -0.036 A 
HETATM    4  C2  UNK     1      18.279   5.538  31.734  1.00  0.00     0.033 A 
HETATM    5  C3  UNK     1      16.633   6.840  32.983  1.00  0.00     0.005 A 
HETATM    6  C5  UNK     1      16.420   7.646  31.868  1.00  0.00     0.092 A 
HETATM    7  C6  UNK     1      18.057   6.414  30.548  1.00  0.00     0.295 A 
HETATM    8  C7  UNK     1      17.864   4.942  34.149  1.00  0.00     0.050 C 
HETATM    9  C9  UNK     1      15.870   7.116  34.127  1.00  0.00     0.017 A 
HETATM   10  C11 UNK     1      15.498   8.697  31.865  1.00  0.00     0.074 A 
HETATM   11  C12 UNK     1      14.941   8.164  34.142  1.00  0.00     0.037 A 
HETATM   12  C14 UNK     1      14.757   8.955  33.011  1.00  0.00     0.068 A 
ENDROOT
BRANCH   4  13
HETATM   13  C4  UNK     1      19.269   4.426  31.491  1.00  0.00     0.148 C 
BRANCH  13  14
HETATM   14  C8  UNK     1      18.535   3.257  30.876  1.00  0.00     0.222 C 
HETATM   15  O3  UNK     1      17.388   2.957  31.200  1.00  0.00    -0.273 OA
HETATM   16  N1  UNK     1      19.305   2.581  29.944  1.00  0.00    -0.357 N 
HETATM   17  H10 UNK     1      20.243   2.908  29.734  1.00  0.00     0.162 HD
BRANCH  16  18
HETATM   18  C10 UNK     1      18.834   1.417  29.229  1.00  0.00     0.161 C 
BRANCH  18  19
HETATM   19  C13 UNK     1      19.431   0.164  29.810  1.00  0.00    -0.039 A 
HETATM   20  C15 UNK     1      19.212  -0.145  31.146  1.00  0.00     0.032 A 
HETATM   21  C17 UNK     1      19.765  -1.308  31.683  1.00  0.00     0.034 A 
HETATM   22 Cl1  UNK     1      19.502  -1.702  33.337  1.00  0.00    -0.084 Cl
HETATM   23  C19 UNK     1      20.534  -2.150  30.879  1.00  0.00     0.024 A 
HETATM   24  C18 UNK     1      20.748  -1.830  29.539  1.00  0.00     0.002 A 
HETATM   25  C16 UNK     1      20.195  -0.669  29.001  1.00  0.00     0.009 A 
ENDBRANCH  18  19
ENDBRANCH  16  18
ENDBRANCH  13  14
ENDBRANCH   4  13
BRANCH  12  26
HETATM   26  O4  UNK     1      13.855   9.973  33.028  1.00  0.00    -0.361 OA
HETATM   27  H16 UNK     1      14.291  10.775  33.364  1.00  0.00     0.217 HD
ENDBRANCH  12  26
TORSDOF 5
ENDMDL
MODEL 3
REMARK VINA RESULT:      -8.7      1.306      2.080
REMARK  5 active torsions:
REMARK  status: ('A' for Active; 'I' for Inactive)
REMARK    1  A    between atoms: C14_20  and  O4_5 
REMARK    2  A    between atoms: C10_16  and  N1_6 
REMARK       I    between atoms: C8_14  and  N1_6 
REMARK    3  A    between atoms: C2_8  and  C4_10 
REMARK    4  A    between atoms: C4_10  and  C8_14 
REMARK    5  A    between atoms: C10_16  and  C13_19 
ROOT
HETATM    1  O1  UNK     1      19.194   1.094  28.988  1.00  0.00    -0.274 OA
HETATM    2  O2  UNK     1      18.319   3.146  28.571  1.00  0.00    -0.259 OA
HETATM    3  C1  UNK     1      18.683   1.500  31.743  1.00  0.00    -0.036 A 
HETATM    4  C2  UNK     1      18.382   2.471  30.854  1.00  0.00     0.033 A 
HETATM    5  C3  UNK     1      19.310   0.249  31.267  1.00  0.00     0.005 A 
HETATM    6  C5  UNK     1      19.542   0.089  29.904  1.00  0.00     0.092 A 
HETATM    7  C6  UNK     1      18.620   2.287  29.394  1.00  0.00     0.295 A 
HETATM    8  C7  UNK     1      18.400   1.602  33.221  1.00  0.00     0.050 C 
HETATM    9  C9  UNK     1      19.703  -0.801  32.111  1.00  0.00     0.017 A 
HETATM   10  C11 UNK     1      20.131  -1.061  29.371  1.00  0.00     0.074 A 
HETATM   11  C12 UNK     1      20.295  -1.961  31.595  1.00  0.00     0.037 A 
HETATM   12  C14 UNK     1      20.507  -2.090  30.225  1.00  0.00     0.068 A 
ENDROOT
BRANCH   4  13
HETATM   13  C4  UNK     1      17.800   3.815  31.211  1.00  0.00     0.148 C 
BRANCH  13  14
HETATM   14  C8  UNK     1      18.924   4.723  31.652  1.00  0.00     0.222 C 
HETATM   15  O3  UNK     1      19.852   5.031  30.905  1.00  0.00    -0.273 OA
HETATM   16  N1  UNK     1      18.788   5.134  32.967  1.00  0.00    -0.357 N 
HETATM   17  H10 UNK     1      17.981   4.835  33.507  1.00  0.00     0.162 HD
BRANCH  16  18
HETATM   18  C10 UNK     1      19.744   5.993  33.627  1.00  0.00     0.161 C 
BRANCH  18  19
HETATM   19  C13 UNK     1      19.211   7.396  33.727  1.00  0.00    -0.039 A 
HETATM   20  C15 UNK     1      17.898   7.660  33.359  1.00  0.00     0.032 A 
HETATM   21  C17 UNK     1      17.406   8.961  33.453  1.00  0.00     0.034 A 
HETATM   22 Cl1  UNK     1      15.781   9.301  32.999  1.00  0.00    -0.084 Cl
HETATM   23  C19 UNK     1      18.230   9.988  33.914  1.00  0.00     0.024 A 
HETATM   24  C18 UNK     1      19.547   9.713  34.282  1.00  0.00     0.002 A 
HETATM   25  C16 UNK     1      20.040   8.412  34.189  1.00  0.00     0.009 A 
ENDBRANCH  18  19
ENDBRANCH  16  18
ENDBRANCH  13  14
ENDBRANCH   4  13
BRANCH  12  26
HETATM   26  O4  UNK     1      21.082  -3.218  29.726  1.00  0.00    -0.361 OA
HETATM   27  H16 UNK     1      21.864  -2.969  29.204  1.00  0.00     0.217 HD
ENDBRANCH  12  26
TORSDOF 5
ENDMDL
MODEL 4
REMARK VINA RESULT:      -8.7      3.565      8.631
REMARK  5 active torsions:
REMARK  status: ('A' for Active; 'I' for Inactive)
REMARK    1  A    between atoms: C14_20  and  O4_5 
REMARK    2  A    between atoms: C10_16  and  N1_6 
REMARK       I    between atoms: C8_14  and  N1_6 
REMARK    3  A    between atoms: C2_8  and  C4_10 
REMARK    4  A    between atoms: C4_10  and  C8_14 
REMARK    5  A    between atoms: C10_16  and  C13_19 
ROOT
HETATM    1  O1  UNK     1      17.269   5.856  34.358  1.00  0.00    -0.274 OA
HETATM    2  O2  UNK     1      18.682   4.088  34.183  1.00  0.00    -0.259 OA
HETATM    3  C1  UNK     1      17.695   6.394  31.612  1.00  0.00    -0.036 A 
HETATM    4  C2  UNK     1      18.341   5.366  32.202  1.00  0.00     0.033 A 
HETATM    5  C3  UNK     1      16.799   7.248  32.419  1.00  0.00     0.005 A 
HETATM    6  C5  UNK     1      16.616   6.947  33.766  1.00  0.00     0.092 A 
HETATM    7  C6  UNK     1      18.129   5.041  33.642  1.00  0.00     0.295 A 
HETATM    8  C7  UNK     1      17.815   6.726  30.145  1.00  0.00     0.050 C 
HETATM    9  C9  UNK     1      16.117   8.366  31.915  1.00  0.00     0.017 A 
HETATM   10  C11 UNK     1      15.788   7.704  34.600  1.00  0.00     0.074 A 
HETATM   11  C12 UNK     1      15.284   9.136  32.735  1.00  0.00     0.037 A 
HETATM   12  C14 UNK     1      15.119   8.804  34.078  1.00  0.00     0.068 A 
ENDROOT
BRANCH   4  13
HETATM   13  C4  UNK     1      19.327   4.458  31.512  1.00  0.00     0.148 C 
BRANCH  13  14
HETATM   14  C8  UNK     1      18.567   3.313  30.885  1.00  0.00     0.222 C 
HETATM   15  O3  UNK     1      17.414   3.033  31.209  1.00  0.00    -0.273 OA
HETATM   16  N1  UNK     1      19.320   2.631  29.943  1.00  0.00    -0.357 N 
HETATM   17  H10 UNK     1      20.265   2.940  29.734  1.00  0.00     0.162 HD
BRANCH  16  18
HETATM   18  C10 UNK     1      18.822   1.485  29.216  1.00  0.00     0.161 C 
BRANCH  18  19
HETATM   19  C13 UNK     1      19.400   0.214  29.776  1.00  0.00    -0.039 A 
HETATM   20  C15 UNK     1      19.200  -0.100  31.114  1.00  0.00     0.032 A 
HETATM   21  C17 UNK     1      19.735  -1.280  31.631  1.00  0.00     0.034 A 
HETATM   22 Cl1  UNK     1      19.495  -1.681  33.287  1.00  0.00    -0.084 Cl
HETATM   23  C19 UNK     1      20.467  -2.135  30.806  1.00  0.00     0.024 A 
HETATM   24  C18 UNK     1      20.663  -1.809  29.464  1.00  0.00     0.002 A 
HETATM   25  C16 UNK     1      20.127  -0.631  28.946  1.00  0.00     0.009 A 
ENDBRANCH  18  19
ENDBRANCH  16  18
ENDBRANCH  13  14
ENDBRANCH   4  13
BRANCH  12  26
HETATM   26  O4  UNK     1      14.308   9.553  34.873  1.00  0.00    -0.361 OA
HETATM   27  H16 UNK     1      14.204   9.103  35.729  1.00  0.00     0.217 HD
ENDBRANCH  12  26
TORSDOF 5
ENDMDL
MODEL 5
REMARK VINA RESULT:      -8.4     22.750     25.468
REMARK  5 active torsions:
REMARK  status: ('A' for Active; 'I' for Inactive)
REMARK    1  A    between atoms: C14_20  and  O4_5 
REMARK    2  A    between atoms: C10_16  and  N1_6 
REMARK       I    between atoms: C8_14  and  N1_6 
REMARK    3  A    between atoms: C2_8  and  C4_10 
REMARK    4  A    between atoms: C4_10  and  C8_14 
REMARK    5  A    between atoms: C10_16  and  C13_19 
ROOT
HETATM    1  O1  UNK     1      17.929   9.264   9.445  1.00  0.00    -0.274 OA
HETATM    2  O2  UNK     1      17.855   7.298  10.576  1.00  0.00    -0.259 OA
HETATM    3  C1  UNK     1      15.103   9.213   9.290  1.00  0.00    -0.036 A 
HETATM    4  C2  UNK     1      15.760   8.197   9.887  1.00  0.00     0.033 A 
HETATM    5  C3  UNK     1      15.873  10.323   8.691  1.00  0.00     0.005 A 
HETATM    6  C5  UNK     1      17.261  10.310   8.791  1.00  0.00     0.092 A 
HETATM    7  C6  UNK     1      17.247   8.196  10.004  1.00  0.00     0.295 A 
HETATM    8  C7  UNK     1      13.599   9.302   9.204  1.00  0.00     0.050 C 
HETATM    9  C9  UNK     1      15.290  11.402   8.008  1.00  0.00     0.017 A 
HETATM   10  C11 UNK     1      18.063  11.320   8.252  1.00  0.00     0.074 A 
HETATM   11  C12 UNK     1      16.079  12.422   7.461  1.00  0.00     0.037 A 
HETATM   12  C14 UNK     1      17.465  12.381   7.585  1.00  0.00     0.068 A 
ENDROOT
BRANCH   4  13
HETATM   13  C4  UNK     1      15.103   6.976  10.481  1.00  0.00     0.148 C 
BRANCH  13  14
HETATM   14  C8  UNK     1      14.771   6.018   9.361  1.00  0.00     0.222 C 
HETATM   15  O3  UNK     1      15.637   5.519   8.644  1.00  0.00    -0.273 OA
HETATM   16  N1  UNK     1      13.409   5.797   9.239  1.00  0.00    -0.357 N 
HETATM   17  H10 UNK     1      12.767   6.248   9.884  1.00  0.00     0.162 HD
BRANCH  16  18
HETATM   18  C10 UNK     1      12.838   4.933   8.232  1.00  0.00     0.161 C 
BRANCH  18  19
HETATM   19  C13 UNK     1      11.543   5.503   7.721  1.00  0.00    -0.039 A 
HETATM   20  C15 UNK     1      10.460   5.624   8.582  1.00  0.00     0.032 A 
HETATM   21  C17 UNK     1       9.260   6.154   8.107  1.00  0.00     0.034 A 
HETATM   22 Cl1  UNK     1       7.910   6.308   9.163  1.00  0.00    -0.084 Cl
HETATM   23  C19 UNK     1       9.154   6.557   6.776  1.00  0.00     0.024 A 
HETATM   24  C18 UNK     1      10.247   6.431   5.920  1.00  0.00     0.002 A 
HETATM   25  C16 UNK     1      11.448   5.902   6.394  1.00  0.00     0.009 A 
ENDBRANCH  18  19
ENDBRANCH  16  18
ENDBRANCH  13  14
ENDBRANCH   4  13
BRANCH  12  26
HETATM   26  O4  UNK     1      18.229  13.374   7.053  1.00  0.00    -0.361 OA
HETATM   27  H16 UNK     1      19.144  13.267   7.364  1.00  0.00     0.217 HD
ENDBRANCH  12  26
TORSDOF 5
ENDMDL
MODEL 6
REMARK VINA RESULT:      -8.4     14.914     16.846
REMARK  5 active torsions:
REMARK  status: ('A' for Active; 'I' for Inactive)
REMARK    1  A    between atoms: C14_20  and  O4_5 
REMARK    2  A    between atoms: C10_16  and  N1_6 
REMARK       I    between atoms: C8_14  and  N1_6 
REMARK    3  A    between atoms: C2_8  and  C4_10 
REMARK    4  A    between atoms: C4_10  and  C8_14 
REMARK    5  A    between atoms: C10_16  and  C13_19 
ROOT
HETATM    1  O1  UNK     1      30.867  -8.646  38.323  1.00  0.00    -0.274 OA
HETATM    2  O2  UNK     1      32.909  -7.736  37.933  1.00  0.00    -0.259 OA
HETATM    3  C1  UNK     1      29.811  -6.030  38.561  1.00  0.00    -0.036 A 
HETATM    4  C2  UNK     1      31.129  -6.203  38.329  1.00  0.00     0.033 A 
HETATM    5  C3  UNK     1      28.942  -7.214  38.724  1.00  0.00     0.005 A 
HETATM    6  C5  UNK     1      29.501  -8.482  38.597  1.00  0.00     0.092 A 
HETATM    7  C6  UNK     1      31.720  -7.564  38.180  1.00  0.00     0.295 A 
HETATM    8  C7  UNK     1      29.147  -4.679  38.651  1.00  0.00     0.050 C 
HETATM    9  C9  UNK     1      27.570  -7.146  39.013  1.00  0.00     0.017 A 
HETATM   10  C11 UNK     1      28.750  -9.653  38.737  1.00  0.00     0.074 A 
HETATM   11  C12 UNK     1      26.802  -8.308  39.157  1.00  0.00     0.037 A 
HETATM   12  C14 UNK     1      27.392  -9.561  39.018  1.00  0.00     0.068 A 
ENDROOT
BRANCH   4  13
HETATM   13  C4  UNK     1      32.136  -5.087  38.205  1.00  0.00     0.148 C 
BRANCH  13  14
HETATM   14  C8  UNK     1      32.063  -4.529  36.804  1.00  0.00     0.222 C 
HETATM   15  O3  UNK     1      32.073  -3.321  36.575  1.00  0.00    -0.273 OA
HETATM   16  N1  UNK     1      31.969  -5.522  35.842  1.00  0.00    -0.357 N 
HETATM   17  H10 UNK     1      31.977  -6.498  36.125  1.00  0.00     0.162 HD
BRANCH  16  18
HETATM   18  C10 UNK     1      31.869  -5.243  34.428  1.00  0.00     0.161 C 
BRANCH  18  19
HETATM   19  C13 UNK     1      30.528  -5.672  33.899  1.00  0.00    -0.039 A 
HETATM   20  C15 UNK     1      30.223  -5.471  32.559  1.00  0.00     0.032 A 
HETATM   21  C17 UNK     1      28.979  -5.871  32.070  1.00  0.00     0.034 A 
HETATM   22 Cl1  UNK     1      28.588  -5.627  30.412  1.00  0.00    -0.084 Cl
HETATM   23  C19 UNK     1      28.051  -6.467  32.925  1.00  0.00     0.024 A 
HETATM   24  C18 UNK     1      28.368  -6.663  34.269  1.00  0.00     0.002 A 
HETATM   25  C16 UNK     1      29.611  -6.265  34.759  1.00  0.00     0.009 A 
ENDBRANCH  18  19
ENDBRANCH  16  18
ENDBRANCH  13  14
ENDBRANCH   4  13
BRANCH  12  26
HETATM   26  O4  UNK     1      26.644 -10.689  39.158  1.00  0.00    -0.361 OA
HETATM   27  H16 UNK     1      25.760 -10.528  38.787  1.00  0.00     0.217 HD
ENDBRANCH  12  26
TORSDOF 5
ENDMDL
MODEL 7
REMARK VINA RESULT:      -8.4     11.213     15.398
REMARK  5 active torsions:
REMARK  status: ('A' for Active; 'I' for Inactive)
REMARK    1  A    between atoms: C14_20  and  O4_5 
REMARK    2  A    between atoms: C10_16  and  N1_6 
REMARK       I    between atoms: C8_14  and  N1_6 
REMARK    3  A    between atoms: C2_8  and  C4_10 
REMARK    4  A    between atoms: C4_10  and  C8_14 
REMARK    5  A    between atoms: C10_16  and  C13_19 
ROOT
HETATM    1  O1  UNK     1      20.976  -8.009  34.627  1.00  0.00    -0.274 OA
HETATM    2  O2  UNK     1      21.681 -10.066  33.977  1.00  0.00    -0.259 OA
HETATM    3  C1  UNK     1      21.397  -8.781  37.318  1.00  0.00    -0.036 A 
HETATM    4  C2  UNK     1      21.631  -9.662  36.324  1.00  0.00     0.033 A 
HETATM    5  C3  UNK     1      20.887  -7.433  36.989  1.00  0.00     0.005 A 
HETATM    6  C5  UNK     1      20.696  -7.093  35.653  1.00  0.00     0.092 A 
HETATM    7  C6  UNK     1      21.438  -9.287  34.893  1.00  0.00     0.295 A 
HETATM    8  C7  UNK     1      21.641  -9.080  38.777  1.00  0.00     0.050 C 
HETATM    9  C9  UNK     1      20.568  -6.459  37.948  1.00  0.00     0.017 A 
HETATM   10  C11 UNK     1      20.218  -5.842  35.256  1.00  0.00     0.074 A 
HETATM   11  C12 UNK     1      20.087  -5.200  37.569  1.00  0.00     0.037 A 
HETATM   12  C14 UNK     1      19.913  -4.892  36.222  1.00  0.00     0.068 A 
ENDROOT
BRANCH   4  13
HETATM   13  C4  UNK     1      22.090 -11.084  36.523  1.00  0.00     0.148 C 
BRANCH  13  14
HETATM   14  C8  UNK     1      23.526 -11.193  36.067  1.00  0.00     0.222 C 
HETATM   15  O3  UNK     1      23.889 -12.010  35.223  1.00  0.00    -0.273 OA
HETATM   16  N1  UNK     1      24.357 -10.294  36.716  1.00  0.00    -0.357 N 
HETATM   17  H10 UNK     1      23.966  -9.648  37.395  1.00  0.00     0.162 HD
BRANCH  16  18
HETATM   18  C10 UNK     1      25.778 -10.213  36.467  1.00  0.00     0.161 C 
BRANCH  18  19
HETATM   19  C13 UNK     1      26.470  -9.494  37.592  1.00  0.00    -0.039 A 
HETATM   20  C15 UNK     1      26.633  -8.116  37.528  1.00  0.00     0.032 A 
HETATM   21  C17 UNK     1      27.274  -7.450  38.573  1.00  0.00     0.034 A 
HETATM   22 Cl1  UNK     1      27.483  -5.743  38.506  1.00  0.00    -0.084 Cl
HETATM   23  C19 UNK     1      27.748  -8.168  39.672  1.00  0.00     0.024 A 
HETATM   24  C18 UNK     1      27.580  -9.551  39.726  1.00  0.00     0.002 A 
HETATM   25  C16 UNK     1      26.938 -10.217  38.682  1.00  0.00     0.009 A 
ENDBRANCH  18  19
ENDBRANCH  16  18
ENDBRANCH  13  14
ENDBRANCH   4  13
BRANCH  12  26
HETATM   26  O4  UNK     1      19.446  -3.668  35.856  1.00  0.00    -0.361 OA
HETATM   27  H16 UNK     1      19.313  -3.129  36.655  1.00  0.00     0.217 HD
ENDBRANCH  12  26
TORSDOF 5
ENDMDL
MODEL 8
REMARK VINA RESULT:      -8.3      2.937      4.176
REMARK  5 active torsions:
REMARK  status: ('A' for Active; 'I' for Inactive)
REMARK    1  A    between atoms: C14_20  and  O4_5 
REMARK    2  A    between atoms: C10_16  and  N1_6 
REMARK       I    between atoms: C8_14  and  N1_6 
REMARK    3  A    between atoms: C2_8  and  C4_10 
REMARK    4  A    between atoms: C4_10  and  C8_14 
REMARK    5  A    between atoms: C10_16  and  C13_19 
ROOT
HETATM    1  O1  UNK     1      17.990   4.010  33.428  1.00  0.00    -0.274 OA
HETATM    2  O2  UNK     1      17.626   5.993  34.470  1.00  0.00    -0.259 OA
HETATM    3  C1  UNK     1      18.571   5.432  31.051  1.00  0.00    -0.036 A 
HETATM    4  C2  UNK     1      18.214   6.105  32.165  1.00  0.00     0.033 A 
HETATM    5  C3  UNK     1      18.618   3.955  31.078  1.00  0.00     0.005 A 
HETATM    6  C5  UNK     1      18.327   3.295  32.268  1.00  0.00     0.092 A 
HETATM    7  C6  UNK     1      17.917   5.392  33.441  1.00  0.00     0.295 A 
HETATM    8  C7  UNK     1      18.950   6.103  29.753  1.00  0.00     0.050 C 
HETATM    9  C9  UNK     1      18.932   3.160  29.965  1.00  0.00     0.017 A 
HETATM   10  C11 UNK     1      18.348   1.902  32.381  1.00  0.00     0.074 A 
HETATM   11  C12 UNK     1      18.957   1.763  30.059  1.00  0.00     0.037 A 
HETATM   12  C14 UNK     1      18.667   1.135  31.267  1.00  0.00     0.068 A 
ENDROOT
BRANCH   4  13
HETATM   13  C4  UNK     1      18.065   7.603  32.256  1.00  0.00     0.148 C 
BRANCH  13  14
HETATM   14  C8  UNK     1      16.643   7.966  31.897  1.00  0.00     0.222 C 
HETATM   15  O3  UNK     1      16.296   8.200  30.740  1.00  0.00    -0.273 OA
HETATM   16  N1  UNK     1      15.814   8.017  33.005  1.00  0.00    -0.357 N 
HETATM   17  H10 UNK     1      16.188   7.800  33.924  1.00  0.00     0.162 HD
BRANCH  16  18
HETATM   18  C10 UNK     1      14.412   8.360  32.925  1.00  0.00     0.161 C 
BRANCH  18  19
HETATM   19  C13 UNK     1      14.132   9.619  33.698  1.00  0.00    -0.039 A 
HETATM   20  C15 UNK     1      13.337  10.609  33.133  1.00  0.00     0.032 A 
HETATM   21  C17 UNK     1      13.077  11.775  33.852  1.00  0.00     0.034 A 
HETATM   22 Cl1  UNK     1      12.094  13.009  33.163  1.00  0.00    -0.084 Cl
HETATM   23  C19 UNK     1      13.615  11.944  35.128  1.00  0.00     0.024 A 
HETATM   24  C18 UNK     1      14.412  10.944  35.686  1.00  0.00     0.002 A 
HETATM   25  C16 UNK     1      14.672   9.777  34.968  1.00  0.00     0.009 A 
ENDBRANCH  18  19
ENDBRANCH  16  18
ENDBRANCH  13  14
ENDBRANCH   4  13
BRANCH  12  26
HETATM   26  O4  UNK     1      18.692  -0.222  31.355  1.00  0.00    -0.361 OA
HETATM   27  H16 UNK     1      19.406  -0.485  31.962  1.00  0.00     0.217 HD
ENDBRANCH  12  26
TORSDOF 5
ENDMDL
MODEL 9
REMARK VINA RESULT:      -8.3      7.824     10.545
REMARK  5 active torsions:
REMARK  status: ('A' for Active; 'I' for Inactive)
REMARK    1  A    between atoms: C14_20  and  O4_5 
REMARK    2  A    between atoms: C10_16  and  N1_6 
REMARK       I    between atoms: C8_14  and  N1_6 
REMARK    3  A    between atoms: C2_8  and  C4_10 
REMARK    4  A    between atoms: C4_10  and  C8_14 
REMARK    5  A    between atoms: C10_16  and  C13_19 
ROOT
HETATM    1  O1  UNK     1      21.142  -7.829  34.558  1.00  0.00    -0.274 OA
HETATM    2  O2  UNK     1      20.191  -5.800  34.201  1.00  0.00    -0.259 OA
HETATM    3  C1  UNK     1      19.658  -8.037  36.960  1.00  0.00    -0.036 A 
HETATM    4  C2  UNK     1      19.553  -6.926  36.201  1.00  0.00     0.033 A 
HETATM    5  C3  UNK     1      20.578  -9.116  36.544  1.00  0.00     0.005 A 
HETATM    6  C5  UNK     1      21.287  -8.975  35.355  1.00  0.00     0.092 A 
HETATM    7  C6  UNK     1      20.304  -6.787  34.920  1.00  0.00     0.295 A 
HETATM    8  C7  UNK     1      18.870  -8.263  38.227  1.00  0.00     0.050 C 
HETATM    9  C9  UNK     1      20.796 -10.289  37.284  1.00  0.00     0.017 A 
HETATM   10  C11 UNK     1      22.176  -9.947  34.889  1.00  0.00     0.074 A 
HETATM   11  C12 UNK     1      21.684 -11.274  36.833  1.00  0.00     0.037 A 
HETATM   12  C14 UNK     1      22.373 -11.103  35.635  1.00  0.00     0.068 A 
ENDROOT
BRANCH   4  13
HETATM   13  C4  UNK     1      18.703  -5.728  36.540  1.00  0.00     0.148 C 
BRANCH  13  14
HETATM   14  C8  UNK     1      19.615  -4.550  36.794  1.00  0.00     0.222 C 
HETATM   15  O3  UNK     1      20.545  -4.600  37.597  1.00  0.00    -0.273 OA
HETATM   16  N1  UNK     1      19.267  -3.439  36.043  1.00  0.00    -0.357 N 
HETATM   17  H10 UNK     1      18.485  -3.494  35.397  1.00  0.00     0.162 HD
BRANCH  16  18
HETATM   18  C10 UNK     1      19.975  -2.183  36.120  1.00  0.00     0.161 C 
BRANCH  18  19
HETATM   19  C13 UNK     1      19.013  -1.047  36.339  1.00  0.00    -0.039 A 
HETATM   20  C15 UNK     1      19.117   0.100  35.563  1.00  0.00     0.032 A 
HETATM   21  C17 UNK     1      18.224   1.151  35.766  1.00  0.00     0.034 A 
HETATM   22 Cl1  UNK     1      18.342   2.578  34.811  1.00  0.00    -0.084 Cl
HETATM   23  C19 UNK     1      17.234   1.047  36.744  1.00  0.00     0.024 A 
HETATM   24  C18 UNK     1      17.139  -0.109  37.519  1.00  0.00     0.002 A 
HETATM   25  C16 UNK     1      18.031  -1.161  37.316  1.00  0.00     0.009 A 
ENDBRANCH  18  19
ENDBRANCH  16  18
ENDBRANCH  13  14
ENDBRANCH   4  13
BRANCH  12  26
HETATM   26  O4  UNK     1      23.234 -12.061  35.199  1.00  0.00    -0.361 OA
HETATM   27  H16 UNK     1      22.754 -12.675  34.618  1.00  0.00     0.217 HD
ENDBRANCH  12  26
TORSDOF 5
ENDMDL
MODEL 10
REMARK VINA RESULT:      -8.2      6.211     10.175
REMARK  5 active torsions:
REMARK  status: ('A' for Active; 'I' for Inactive)
REMARK    1  A    between atoms: C14_20  and  O4_5 
REMARK    2  A    between atoms: C10_16  and  N1_6 
REMARK       I    between atoms: C8_14  and  N1_6 
REMARK    3  A    between atoms: C2_8  and  C4_10 
REMARK    4  A    between atoms: C4_10  and  C8_14 
REMARK    5  A    between atoms: C10_16  and  C13_19 
ROOT
HETATM    1  O1  UNK     1      18.419   0.809  32.058  1.00  0.00    -0.274 OA
HETATM    2  O2  UNK     1      18.312  -1.396  32.586  1.00  0.00    -0.259 OA
HETATM    3  C1  UNK     1      18.082   1.422  34.801  1.00  0.00    -0.036 A 
HETATM    4  C2  UNK     1      18.082   0.135  34.397  1.00  0.00     0.033 A 
HETATM    5  C3  UNK     1      18.223   2.498  33.798  1.00  0.00     0.005 A 
HETATM    6  C5  UNK     1      18.388   2.153  32.460  1.00  0.00     0.092 A 
HETATM    7  C6  UNK     1      18.274  -0.229  32.963  1.00  0.00     0.295 A 
HETATM    8  C7  UNK     1      17.963   1.847  36.244  1.00  0.00     0.050 C 
HETATM    9  C9  UNK     1      18.190   3.867  34.106  1.00  0.00     0.017 A 
HETATM   10  C11 UNK     1      18.527   3.107  31.448  1.00  0.00     0.074 A 
HETATM   11  C12 UNK     1      18.327   4.837  33.106  1.00  0.00     0.037 A 
HETATM   12  C14 UNK     1      18.497   4.457  31.777  1.00  0.00     0.068 A 
ENDROOT
BRANCH   4  13
HETATM   13  C4  UNK     1      17.885  -1.054  35.304  1.00  0.00     0.148 C 
BRANCH  13  14
HETATM   14  C8  UNK     1      19.242  -1.613  35.663  1.00  0.00     0.222 C 
HETATM   15  O3  UNK     1      20.272  -0.946  35.576  1.00  0.00    -0.273 OA
HETATM   16  N1  UNK     1      19.179  -2.935  36.071  1.00  0.00    -0.357 N 
HETATM   17  H10 UNK     1      18.279  -3.404  36.119  1.00  0.00     0.162 HD
BRANCH  16  18
HETATM   18  C10 UNK     1      20.345  -3.699  36.450  1.00  0.00     0.161 C 
BRANCH  18  19
HETATM   19  C13 UNK     1      19.940  -5.024  37.036  1.00  0.00    -0.039 A 
HETATM   20  C15 UNK     1      20.743  -5.624  37.997  1.00  0.00     0.032 A 
HETATM   21  C17 UNK     1      20.365  -6.851  38.541  1.00  0.00     0.034 A 
HETATM   22 Cl1  UNK     1      21.352  -7.605  39.732  1.00  0.00    -0.084 Cl
HETATM   23  C19 UNK     1      19.188  -7.470  38.117  1.00  0.00     0.024 A 
HETATM   24  C18 UNK     1      18.389  -6.859  37.151  1.00  0.00     0.002 A 
HETATM   25  C16 UNK     1      18.765  -5.631  36.608  1.00  0.00     0.009 A 
ENDBRANCH  18  19
ENDBRANCH  16  18
ENDBRANCH  13  14
ENDBRANCH   4  13
BRANCH  12  26
HETATM   26  O4  UNK     1      18.630   5.401  30.807  1.00  0.00    -0.361 OA
HETATM   27  H16 UNK     1      19.480   5.268  30.352  1.00  0.00     0.217 HD
ENDBRANCH  12  26
TORSDOF 5
ENDMDL
