MODEL 1
REMARK VINA RESULT:      -8.0      0.000      0.000
REMARK  5 active torsions:
REMARK  status: ('A' for Active; 'I' for Inactive)
REMARK    1  A    between atoms: C10_15  and  O2_2 
REMARK    2  A    between atoms: C16_21  and  O2_2 
REMARK    3  A    between atoms: C13_18  and  O3_3 
REMARK    4  A    between atoms: C14_19  and  O4_4 
REMARK    5  A    between atoms: C1_6  and  C3_8 
ROOT
HETATM    1  O1  UNK     1      18.590   9.019  33.916  1.00  0.00    -0.274 OA
HETATM    2  O5  UNK     1      20.050   7.319  33.488  1.00  0.00    -0.259 OA
HETATM    3  C1  UNK     1      17.896   7.139  32.494  1.00  0.00     0.051 A 
HETATM    4  C2  UNK     1      16.346   8.949  32.992  1.00  0.00    -0.001 A 
HETATM    5  C4  UNK     1      17.312   9.587  33.761  1.00  0.00     0.092 A 
HETATM    6  C5  UNK     1      16.681   7.690  32.347  1.00  0.00     0.032 A 
HETATM    7  C6  UNK     1      15.088   9.542  32.863  1.00  0.00     0.017 A 
HETATM    8  C7  UNK     1      18.937   7.808  33.322  1.00  0.00     0.299 A 
HETATM    9  C8  UNK     1      17.058  10.797  34.404  1.00  0.00     0.075 A 
HETATM   10  C10 UNK     1      15.801  11.382  34.270  1.00  0.00     0.071 A 
HETATM   11  C12 UNK     1      14.818  10.756  33.502  1.00  0.00     0.038 A 
ENDROOT
BRANCH   3  12
HETATM   12  C3  UNK     1      18.193   5.869  31.807  1.00  0.00    -0.017 A 
HETATM   13  C11 UNK     1      18.801   5.882  30.552  1.00  0.00     0.015 A 
HETATM   14  C15 UNK     1      19.083   4.679  29.902  1.00  0.00     0.040 A 
HETATM   15  C14 UNK     1      18.756   3.466  30.507  1.00  0.00     0.101 A 
HETATM   16  C13 UNK     1      18.148   3.454  31.762  1.00  0.00     0.102 A 
HETATM   17  C9  UNK     1      17.866   4.656  32.412  1.00  0.00     0.052 A 
BRANCH  15  18
HETATM   18  O4  UNK     1      19.036   2.299  29.861  1.00  0.00    -0.353 OA
HETATM   19  C19 UNK     1      18.158   1.919  28.803  1.00  0.00     0.210 C 
ENDBRANCH  15  18
BRANCH  16  20
HETATM   20  O3  UNK     1      17.824   2.275  32.363  1.00  0.00    -0.353 OA
HETATM   21  C18 UNK     1      18.118   2.153  33.753  1.00  0.00     0.210 C 
ENDBRANCH  16  20
ENDBRANCH   3  12
BRANCH  10  22
HETATM   22  O2  UNK     1      15.530  12.564  34.889  1.00  0.00    -0.351 OA
BRANCH  22  23
HETATM   23  C16 UNK     1      16.557  13.116  35.711  1.00  0.00     0.171 C 
HETATM   24  C17 UNK     1      15.957  13.537  37.035  1.00  0.00     0.034 C 
ENDBRANCH  22  23
ENDBRANCH  10  22
TORSDOF 5
ENDMDL
MODEL 2
REMARK VINA RESULT:      -7.9     13.761     20.096
REMARK  5 active torsions:
REMARK  status: ('A' for Active; 'I' for Inactive)
REMARK    1  A    between atoms: C10_15  and  O2_2 
REMARK    2  A    between atoms: C16_21  and  O2_2 
REMARK    3  A    between atoms: C13_18  and  O3_3 
REMARK    4  A    between atoms: C14_19  and  O4_4 
REMARK    5  A    between atoms: C1_6  and  C3_8 
ROOT
HETATM    1  O1  UNK     1      19.512  -0.330  14.096  1.00  0.00    -0.274 OA
HETATM    2  O5  UNK     1      19.807   1.599  15.277  1.00  0.00    -0.259 OA
HETATM    3  C1  UNK     1      19.028  -0.284  16.505  1.00  0.00     0.051 A 
HETATM    4  C2  UNK     1      18.691  -2.321  15.216  1.00  0.00    -0.001 A 
HETATM    5  C4  UNK     1      19.119  -1.681  14.060  1.00  0.00     0.092 A 
HETATM    6  C5  UNK     1      18.660  -1.574  16.462  1.00  0.00     0.032 A 
HETATM    7  C6  UNK     1      18.307  -3.662  15.141  1.00  0.00     0.017 A 
HETATM    8  C7  UNK     1      19.481   0.417  15.272  1.00  0.00     0.299 A 
HETATM    9  C8  UNK     1      19.175  -2.339  12.832  1.00  0.00     0.075 A 
HETATM   10  C10 UNK     1      18.791  -3.677  12.766  1.00  0.00     0.071 A 
HETATM   11  C12 UNK     1      18.357  -4.336  13.918  1.00  0.00     0.038 A 
ENDROOT
BRANCH   3  12
HETATM   12  C3  UNK     1      18.996   0.427  17.796  1.00  0.00    -0.017 A 
HETATM   13  C11 UNK     1      18.674  -0.264  18.964  1.00  0.00     0.015 A 
HETATM   14  C15 UNK     1      18.645   0.409  20.186  1.00  0.00     0.040 A 
HETATM   15  C14 UNK     1      18.937   1.772  20.239  1.00  0.00     0.101 A 
HETATM   16  C13 UNK     1      19.260   2.462  19.071  1.00  0.00     0.102 A 
HETATM   17  C9  UNK     1      19.290   1.789  17.849  1.00  0.00     0.052 A 
BRANCH  15  18
HETATM   18  O4  UNK     1      18.905   2.418  21.439  1.00  0.00    -0.353 OA
HETATM   19  C19 UNK     1      20.081   2.346  22.243  1.00  0.00     0.210 C 
ENDBRANCH  15  18
BRANCH  16  20
HETATM   20  O3  UNK     1      19.549   3.793  19.110  1.00  0.00    -0.353 OA
HETATM   21  C18 UNK     1      20.717   4.225  18.416  1.00  0.00     0.210 C 
ENDBRANCH  16  20
ENDBRANCH   3  12
BRANCH  10  22
HETATM   22  O2  UNK     1      18.837  -4.340  11.579  1.00  0.00    -0.351 OA
BRANCH  22  23
HETATM   23  C16 UNK     1      19.446  -3.663  10.481  1.00  0.00     0.171 C 
HETATM   24  C17 UNK     1      20.765  -4.334  10.159  1.00  0.00     0.034 C 
ENDBRANCH  22  23
ENDBRANCH  10  22
TORSDOF 5
ENDMDL
MODEL 3
REMARK VINA RESULT:      -7.9      2.250      8.789
REMARK  5 active torsions:
REMARK  status: ('A' for Active; 'I' for Inactive)
REMARK    1  A    between atoms: C10_15  and  O2_2 
REMARK    2  A    between atoms: C16_21  and  O2_2 
REMARK    3  A    between atoms: C13_18  and  O3_3 
REMARK    4  A    between atoms: C14_19  and  O4_4 
REMARK    5  A    between atoms: C1_6  and  C3_8 
ROOT
HETATM    1  O1  UNK     1      18.973   3.283  30.667  1.00  0.00    -0.274 OA
HETATM    2  O5  UNK     1      18.916   5.484  30.071  1.00  0.00    -0.259 OA
HETATM    3  C1  UNK     1      18.340   4.983  32.325  1.00  0.00     0.051 A 
HETATM    4  C2  UNK     1      18.377   2.624  32.926  1.00  0.00    -0.001 A 
HETATM    5  C4  UNK     1      18.780   2.285  31.640  1.00  0.00     0.092 A 
HETATM    6  C5  UNK     1      18.164   4.026  33.249  1.00  0.00     0.032 A 
HETATM    7  C6  UNK     1      18.194   1.607  33.866  1.00  0.00     0.017 A 
HETATM    8  C7  UNK     1      18.764   4.632  30.941  1.00  0.00     0.299 A 
HETATM    9  C8  UNK     1      19.004   0.962  31.266  1.00  0.00     0.075 A 
HETATM   10  C10 UNK     1      18.820  -0.047  32.209  1.00  0.00     0.071 A 
HETATM   11  C12 UNK     1      18.415   0.275  33.506  1.00  0.00     0.038 A 
ENDROOT
BRANCH   3  12
HETATM   12  C3  UNK     1      18.128   6.391  32.704  1.00  0.00    -0.017 A 
HETATM   13  C11 UNK     1      19.073   7.052  33.488  1.00  0.00     0.015 A 
HETATM   14  C15 UNK     1      18.873   8.386  33.846  1.00  0.00     0.040 A 
HETATM   15  C14 UNK     1      17.726   9.057  33.422  1.00  0.00     0.101 A 
HETATM   16  C13 UNK     1      16.781   8.396  32.638  1.00  0.00     0.102 A 
HETATM   17  C9  UNK     1      16.981   7.063  32.279  1.00  0.00     0.052 A 
BRANCH  15  18
HETATM   18  O4  UNK     1      17.541  10.359  33.779  1.00  0.00    -0.353 OA
HETATM   19  C19 UNK     1      18.712  11.160  33.930  1.00  0.00     0.210 C 
ENDBRANCH  15  18
BRANCH  16  20
HETATM   20  O3  UNK     1      15.657   9.041  32.216  1.00  0.00    -0.353 OA
HETATM   21  C18 UNK     1      14.472   8.849  32.985  1.00  0.00     0.210 C 
ENDBRANCH  16  20
ENDBRANCH   3  12
BRANCH  10  22
HETATM   22  O2  UNK     1      19.033  -1.347  31.865  1.00  0.00    -0.351 OA
BRANCH  22  23
HETATM   23  C16 UNK     1      20.367  -1.716  31.519  1.00  0.00     0.171 C 
HETATM   24  C17 UNK     1      20.382  -2.235  30.097  1.00  0.00     0.034 C 
ENDBRANCH  22  23
ENDBRANCH  10  22
TORSDOF 5
ENDMDL
MODEL 4
REMARK VINA RESULT:      -7.6      2.009      3.405
REMARK  5 active torsions:
REMARK  status: ('A' for Active; 'I' for Inactive)
REMARK    1  A    between atoms: C10_15  and  O2_2 
REMARK    2  A    between atoms: C16_21  and  O2_2 
REMARK    3  A    between atoms: C13_18  and  O3_3 
REMARK    4  A    between atoms: C14_19  and  O4_4 
REMARK    5  A    between atoms: C1_6  and  C3_8 
ROOT
HETATM    1  O1  UNK     1      16.845   7.866  32.977  1.00  0.00    -0.274 OA
HETATM    2  O5  UNK     1      15.901   5.941  32.196  1.00  0.00    -0.259 OA
HETATM    3  C1  UNK     1      18.182   5.808  32.859  1.00  0.00     0.051 A 
HETATM    4  C2  UNK     1      19.175   7.882  33.658  1.00  0.00    -0.001 A 
HETATM    5  C4  UNK     1      17.970   8.550  33.472  1.00  0.00     0.092 A 
HETATM    6  C5  UNK     1      19.249   6.466  33.337  1.00  0.00     0.032 A 
HETATM    7  C6  UNK     1      20.271   8.594  34.149  1.00  0.00     0.017 A 
HETATM    8  C7  UNK     1      16.887   6.513  32.647  1.00  0.00     0.299 A 
HETATM    9  C8  UNK     1      17.829   9.906  33.762  1.00  0.00     0.075 A 
HETATM   10  C10 UNK     1      18.928  10.609  34.252  1.00  0.00     0.071 A 
HETATM   11  C12 UNK     1      20.146   9.955  34.445  1.00  0.00     0.038 A 
ENDROOT
BRANCH   3  12
HETATM   12  C3  UNK     1      18.303   4.368  32.565  1.00  0.00    -0.017 A 
HETATM   13  C11 UNK     1      18.151   3.432  33.587  1.00  0.00     0.015 A 
HETATM   14  C15 UNK     1      18.264   2.070  33.308  1.00  0.00     0.040 A 
HETATM   15  C14 UNK     1      18.530   1.645  32.006  1.00  0.00     0.101 A 
HETATM   16  C13 UNK     1      18.681   2.581  30.984  1.00  0.00     0.102 A 
HETATM   17  C9  UNK     1      18.568   3.943  31.263  1.00  0.00     0.052 A 
BRANCH  15  18
HETATM   18  O4  UNK     1      18.639   0.312  31.747  1.00  0.00    -0.353 OA
HETATM   19  C19 UNK     1      18.615  -0.569  32.868  1.00  0.00     0.210 C 
ENDBRANCH  15  18
BRANCH  16  20
HETATM   20  O3  UNK     1      18.940   2.178  29.708  1.00  0.00    -0.353 OA
HETATM   21  C18 UNK     1      17.850   2.189  28.790  1.00  0.00     0.210 C 
ENDBRANCH  16  20
ENDBRANCH   3  12
BRANCH  10  22
HETATM   22  O2  UNK     1      18.814  11.934  34.542  1.00  0.00    -0.351 OA
BRANCH  22  23
HETATM   23  C16 UNK     1      17.909  12.697  33.746  1.00  0.00     0.171 C 
HETATM   24  C17 UNK     1      18.692  13.721  32.953  1.00  0.00     0.034 C 
ENDBRANCH  22  23
ENDBRANCH  10  22
TORSDOF 5
ENDMDL
MODEL 5
REMARK VINA RESULT:      -7.6      1.989      2.841
REMARK  5 active torsions:
REMARK  status: ('A' for Active; 'I' for Inactive)
REMARK    1  A    between atoms: C10_15  and  O2_2 
REMARK    2  A    between atoms: C16_21  and  O2_2 
REMARK    3  A    between atoms: C13_18  and  O3_3 
REMARK    4  A    between atoms: C14_19  and  O4_4 
REMARK    5  A    between atoms: C1_6  and  C3_8 
ROOT
HETATM    1  O1  UNK     1      16.827   8.038  32.887  1.00  0.00    -0.274 OA
HETATM    2  O5  UNK     1      15.899   6.175  31.955  1.00  0.00    -0.259 OA
HETATM    3  C1  UNK     1      18.196   6.025  32.555  1.00  0.00     0.051 A 
HETATM    4  C2  UNK     1      19.172   8.037  33.517  1.00  0.00    -0.001 A 
HETATM    5  C4  UNK     1      17.952   8.696  33.418  1.00  0.00     0.092 A 
HETATM    6  C5  UNK     1      19.263   6.657  33.068  1.00  0.00     0.032 A 
HETATM    7  C6  UNK     1      20.267   8.722  34.048  1.00  0.00     0.017 A 
HETATM    8  C7  UNK     1      16.885   6.722  32.435  1.00  0.00     0.299 A 
HETATM    9  C8  UNK     1      17.796  10.017  33.832  1.00  0.00     0.075 A 
HETATM   10  C10 UNK     1      18.893  10.694  34.361  1.00  0.00     0.071 A 
HETATM   11  C12 UNK     1      20.126  10.048  34.468  1.00  0.00     0.038 A 
ENDROOT
BRANCH   3  12
HETATM   12  C3  UNK     1      18.334   4.620  32.129  1.00  0.00    -0.017 A 
HETATM   13  C11 UNK     1      18.690   4.322  30.814  1.00  0.00     0.015 A 
HETATM   14  C15 UNK     1      18.822   2.993  30.412  1.00  0.00     0.040 A 
HETATM   15  C14 UNK     1      18.595   1.962  31.324  1.00  0.00     0.101 A 
HETATM   16  C13 UNK     1      18.240   2.261  32.639  1.00  0.00     0.102 A 
HETATM   17  C9  UNK     1      18.109   3.590  33.042  1.00  0.00     0.052 A 
BRANCH  15  18
HETATM   18  O4  UNK     1      18.726   0.668  30.918  1.00  0.00    -0.353 OA
HETATM   19  C19 UNK     1      20.053   0.159  30.800  1.00  0.00     0.210 C 
ENDBRANCH  15  18
BRANCH  16  20
HETATM   20  O3  UNK     1      18.017   1.263  33.540  1.00  0.00    -0.353 OA
HETATM   21  C18 UNK     1      18.126   1.599  34.921  1.00  0.00     0.210 C 
ENDBRANCH  16  20
ENDBRANCH   3  12
BRANCH  10  22
HETATM   22  O2  UNK     1      18.763  11.985  34.772  1.00  0.00    -0.351 OA
BRANCH  22  23
HETATM   23  C16 UNK     1      17.869  12.814  34.033  1.00  0.00     0.171 C 
HETATM   24  C17 UNK     1      18.664  13.636  33.041  1.00  0.00     0.034 C 
ENDBRANCH  22  23
ENDBRANCH  10  22
TORSDOF 5
ENDMDL
MODEL 6
REMARK VINA RESULT:      -7.6      2.652      8.839
REMARK  5 active torsions:
REMARK  status: ('A' for Active; 'I' for Inactive)
REMARK    1  A    between atoms: C10_15  and  O2_2 
REMARK    2  A    between atoms: C16_21  and  O2_2 
REMARK    3  A    between atoms: C13_18  and  O3_3 
REMARK    4  A    between atoms: C14_19  and  O4_4 
REMARK    5  A    between atoms: C1_6  and  C3_8 
ROOT
HETATM    1  O1  UNK     1      18.093   1.929  32.541  1.00  0.00    -0.274 OA
HETATM    2  O5  UNK     1      17.752   3.776  31.246  1.00  0.00    -0.259 OA
HETATM    3  C1  UNK     1      18.157   4.166  33.558  1.00  0.00     0.051 A 
HETATM    4  C2  UNK     1      18.486   2.178  34.924  1.00  0.00    -0.001 A 
HETATM    5  C4  UNK     1      18.335   1.365  33.807  1.00  0.00     0.092 A 
HETATM    6  C5  UNK     1      18.394   3.619  34.760  1.00  0.00     0.032 A 
HETATM    7  C6  UNK     1      18.724   1.582  36.165  1.00  0.00     0.017 A 
HETATM    8  C7  UNK     1      17.986   3.305  32.354  1.00  0.00     0.299 A 
HETATM    9  C8  UNK     1      18.415  -0.024  33.894  1.00  0.00     0.075 A 
HETATM   10  C10 UNK     1      18.653  -0.611  35.135  1.00  0.00     0.071 A 
HETATM   11  C12 UNK     1      18.806   0.191  36.268  1.00  0.00     0.038 A 
ENDROOT
BRANCH   3  12
HETATM   12  C3  UNK     1      18.090   5.634  33.439  1.00  0.00    -0.017 A 
HETATM   13  C11 UNK     1      19.211   6.409  33.733  1.00  0.00     0.015 A 
HETATM   14  C15 UNK     1      19.146   7.799  33.620  1.00  0.00     0.040 A 
HETATM   15  C14 UNK     1      17.961   8.411  33.214  1.00  0.00     0.101 A 
HETATM   16  C13 UNK     1      16.840   7.635  32.920  1.00  0.00     0.102 A 
HETATM   17  C9  UNK     1      16.904   6.246  33.033  1.00  0.00     0.052 A 
BRANCH  15  18
HETATM   18  O4  UNK     1      17.911   9.769  33.109  1.00  0.00    -0.353 OA
HETATM   19  C19 UNK     1      18.697  10.518  34.033  1.00  0.00     0.210 C 
ENDBRANCH  15  18
BRANCH  16  20
HETATM   20  O3  UNK     1      15.676   8.222  32.522  1.00  0.00    -0.353 OA
HETATM   21  C18 UNK     1      14.661   7.364  32.006  1.00  0.00     0.210 C 
ENDBRANCH  16  20
ENDBRANCH   3  12
BRANCH  10  22
HETATM   22  O2  UNK     1      18.734  -1.965  35.243  1.00  0.00    -0.351 OA
BRANCH  22  23
HETATM   23  C16 UNK     1      20.038  -2.528  35.379  1.00  0.00     0.171 C 
HETATM   24  C17 UNK     1      20.098  -3.328  36.662  1.00  0.00     0.034 C 
ENDBRANCH  22  23
ENDBRANCH  10  22
TORSDOF 5
ENDMDL
MODEL 7
REMARK VINA RESULT:      -7.6      1.565      8.384
REMARK  5 active torsions:
REMARK  status: ('A' for Active; 'I' for Inactive)
REMARK    1  A    between atoms: C10_15  and  O2_2 
REMARK    2  A    between atoms: C16_21  and  O2_2 
REMARK    3  A    between atoms: C13_18  and  O3_3 
REMARK    4  A    between atoms: C14_19  and  O4_4 
REMARK    5  A    between atoms: C1_6  and  C3_8 
ROOT
HETATM    1  O1  UNK     1      17.366   5.499  33.654  1.00  0.00    -0.274 OA
HETATM    2  O5  UNK     1      16.685   7.029  35.203  1.00  0.00    -0.259 OA
HETATM    3  C1  UNK     1      17.580   7.900  33.178  1.00  0.00     0.051 A 
HETATM    4  C2  UNK     1      18.329   6.248  31.555  1.00  0.00    -0.001 A 
HETATM    5  C4  UNK     1      17.942   5.216  32.402  1.00  0.00     0.092 A 
HETATM    6  C5  UNK     1      18.124   7.622  31.983  1.00  0.00     0.032 A 
HETATM    7  C6  UNK     1      18.900   5.929  30.321  1.00  0.00     0.017 A 
HETATM    8  C7  UNK     1      17.168   6.804  34.099  1.00  0.00     0.299 A 
HETATM    9  C8  UNK     1      18.108   3.878  32.052  1.00  0.00     0.075 A 
HETATM   10  C10 UNK     1      18.678   3.568  30.818  1.00  0.00     0.071 A 
HETATM   11  C12 UNK     1      19.073   4.591  29.955  1.00  0.00     0.038 A 
ENDROOT
BRANCH   3  12
HETATM   12  C3  UNK     1      17.376   9.310  33.561  1.00  0.00    -0.017 A 
HETATM   13  C11 UNK     1      18.469  10.102  33.911  1.00  0.00     0.015 A 
HETATM   14  C15 UNK     1      18.276  11.436  34.271  1.00  0.00     0.040 A 
HETATM   15  C14 UNK     1      16.990  11.976  34.284  1.00  0.00     0.101 A 
HETATM   16  C13 UNK     1      15.898  11.183  33.933  1.00  0.00     0.102 A 
HETATM   17  C9  UNK     1      16.090   9.850  33.572  1.00  0.00     0.052 A 
BRANCH  15  18
HETATM   18  O4  UNK     1      16.815  13.280  34.638  1.00  0.00    -0.353 OA
HETATM   19  C19 UNK     1      17.113  14.264  33.650  1.00  0.00     0.210 C 
ENDBRANCH  15  18
BRANCH  16  20
HETATM   20  O3  UNK     1      14.637  11.700  33.940  1.00  0.00    -0.353 OA
HETATM   21  C18 UNK     1      13.560  10.786  33.743  1.00  0.00     0.210 C 
ENDBRANCH  16  20
ENDBRANCH   3  12
BRANCH  10  22
HETATM   22  O2  UNK     1      18.850   2.267  30.456  1.00  0.00    -0.351 OA
BRANCH  22  23
HETATM   23  C16 UNK     1      18.353   1.880  29.176  1.00  0.00     0.171 C 
HETATM   24  C17 UNK     1      19.068   0.622  28.729  1.00  0.00     0.034 C 
ENDBRANCH  22  23
ENDBRANCH  10  22
TORSDOF 5
ENDMDL
MODEL 8
REMARK VINA RESULT:      -7.6      2.259      8.844
REMARK  5 active torsions:
REMARK  status: ('A' for Active; 'I' for Inactive)
REMARK    1  A    between atoms: C10_15  and  O2_2 
REMARK    2  A    between atoms: C16_21  and  O2_2 
REMARK    3  A    between atoms: C13_18  and  O3_3 
REMARK    4  A    between atoms: C14_19  and  O4_4 
REMARK    5  A    between atoms: C1_6  and  C3_8 
ROOT
HETATM    1  O1  UNK     1      19.018   3.026  30.677  1.00  0.00    -0.274 OA
HETATM    2  O5  UNK     1      18.922   5.212  30.030  1.00  0.00    -0.259 OA
HETATM    3  C1  UNK     1      18.282   4.743  32.273  1.00  0.00     0.051 A 
HETATM    4  C2  UNK     1      18.362   2.400  32.929  1.00  0.00    -0.001 A 
HETATM    5  C4  UNK     1      18.819   2.045  31.665  1.00  0.00     0.092 A 
HETATM    6  C5  UNK     1      18.100   3.802  33.212  1.00  0.00     0.032 A 
HETATM    7  C6  UNK     1      18.174   1.399  33.884  1.00  0.00     0.017 A 
HETATM    8  C7  UNK     1      18.763   4.375  30.912  1.00  0.00     0.299 A 
HETATM    9  C8  UNK     1      19.092   0.720  31.328  1.00  0.00     0.075 A 
HETATM   10  C10 UNK     1      18.902  -0.273  32.287  1.00  0.00     0.071 A 
HETATM   11  C12 UNK     1      18.444   0.066  33.562  1.00  0.00     0.038 A 
ENDROOT
BRANCH   3  12
HETATM   12  C3  UNK     1      18.019   6.153  32.613  1.00  0.00    -0.017 A 
HETATM   13  C11 UNK     1      16.980   6.840  31.985  1.00  0.00     0.015 A 
HETATM   14  C15 UNK     1      16.731   8.174  32.308  1.00  0.00     0.040 A 
HETATM   15  C14 UNK     1      17.521   8.821  33.259  1.00  0.00     0.101 A 
HETATM   16  C13 UNK     1      18.558   8.133  33.887  1.00  0.00     0.102 A 
HETATM   17  C9  UNK     1      18.808   6.799  33.565  1.00  0.00     0.052 A 
BRANCH  15  18
HETATM   18  O4  UNK     1      17.267  10.124  33.565  1.00  0.00    -0.353 OA
HETATM   19  C19 UNK     1      15.992  10.418  34.133  1.00  0.00     0.210 C 
ENDBRANCH  15  18
BRANCH  16  20
HETATM   20  O3  UNK     1      19.336   8.755  34.818  1.00  0.00    -0.353 OA
HETATM   21  C18 UNK     1      20.581   9.289  34.372  1.00  0.00     0.210 C 
ENDBRANCH  16  20
ENDBRANCH   3  12
BRANCH  10  22
HETATM   22  O2  UNK     1      19.162  -1.573  31.981  1.00  0.00    -0.351 OA
BRANCH  22  23
HETATM   23  C16 UNK     1      20.495  -1.892  31.583  1.00  0.00     0.171 C 
HETATM   24  C17 UNK     1      20.483  -2.345  30.139  1.00  0.00     0.034 C 
ENDBRANCH  22  23
ENDBRANCH  10  22
TORSDOF 5
ENDMDL
MODEL 9
REMARK VINA RESULT:      -7.4      1.302      2.361
REMARK  5 active torsions:
REMARK  status: ('A' for Active; 'I' for Inactive)
REMARK    1  A    between atoms: C10_15  and  O2_2 
REMARK    2  A    between atoms: C16_21  and  O2_2 
REMARK    3  A    between atoms: C13_18  and  O3_3 
REMARK    4  A    between atoms: C14_19  and  O4_4 
REMARK    5  A    between atoms: C1_6  and  C3_8 
ROOT
HETATM    1  O1  UNK     1      18.945   7.930  33.516  1.00  0.00    -0.274 OA
HETATM    2  O5  UNK     1      20.336   6.137  33.280  1.00  0.00    -0.259 OA
HETATM    3  C1  UNK     1      18.037   5.766  32.790  1.00  0.00     0.051 A 
HETATM    4  C2  UNK     1      16.570   7.686  33.081  1.00  0.00    -0.001 A 
HETATM    5  C4  UNK     1      17.649   8.474  33.462  1.00  0.00     0.092 A 
HETATM    6  C5  UNK     1      16.804   6.294  32.735  1.00  0.00     0.032 A 
HETATM    7  C6  UNK     1      15.297   8.260  33.040  1.00  0.00     0.017 A 
HETATM    8  C7  UNK     1      19.201   6.597  33.205  1.00  0.00     0.299 A 
HETATM    9  C8  UNK     1      17.493   9.817  33.803  1.00  0.00     0.075 A 
HETATM   10  C10 UNK     1      16.221  10.382  33.760  1.00  0.00     0.071 A 
HETATM   11  C12 UNK     1      15.125   9.605  33.380  1.00  0.00     0.038 A 
ENDROOT
BRANCH   3  12
HETATM   12  C3  UNK     1      18.228   4.353  32.414  1.00  0.00    -0.017 A 
HETATM   13  C11 UNK     1      18.115   3.353  33.379  1.00  0.00     0.015 A 
HETATM   14  C15 UNK     1      18.294   2.016  33.022  1.00  0.00     0.040 A 
HETATM   15  C14 UNK     1      18.587   1.680  31.700  1.00  0.00     0.101 A 
HETATM   16  C13 UNK     1      18.699   2.681  30.735  1.00  0.00     0.102 A 
HETATM   17  C9  UNK     1      18.519   4.018  31.091  1.00  0.00     0.052 A 
BRANCH  15  18
HETATM   18  O4  UNK     1      18.761   0.371  31.365  1.00  0.00    -0.353 OA
HETATM   19  C19 UNK     1      18.888  -0.559  32.438  1.00  0.00     0.210 C 
ENDBRANCH  15  18
BRANCH  16  20
HETATM   20  O3  UNK     1      18.984   2.365  29.441  1.00  0.00    -0.353 OA
HETATM   21  C18 UNK     1      17.888   1.999  28.606  1.00  0.00     0.210 C 
ENDBRANCH  16  20
ENDBRANCH   3  12
BRANCH  10  22
HETATM   22  O2  UNK     1      16.045  11.690  34.089  1.00  0.00    -0.351 OA
BRANCH  22  23
HETATM   23  C16 UNK     1      17.212  12.510  34.135  1.00  0.00     0.171 C 
HETATM   24  C17 UNK     1      17.357  13.084  35.528  1.00  0.00     0.034 C 
ENDBRANCH  22  23
ENDBRANCH  10  22
TORSDOF 5
ENDMDL
MODEL 10
REMARK VINA RESULT:      -7.3      7.883     12.006
REMARK  5 active torsions:
REMARK  status: ('A' for Active; 'I' for Inactive)
REMARK    1  A    between atoms: C10_15  and  O2_2 
REMARK    2  A    between atoms: C16_21  and  O2_2 
REMARK    3  A    between atoms: C13_18  and  O3_3 
REMARK    4  A    between atoms: C14_19  and  O4_4 
REMARK    5  A    between atoms: C1_6  and  C3_8 
ROOT
HETATM    1  O1  UNK     1      18.530  -0.967  35.393  1.00  0.00    -0.274 OA
HETATM    2  O5  UNK     1      18.410  -2.002  37.422  1.00  0.00    -0.259 OA
HETATM    3  C1  UNK     1      19.683  -3.108  35.744  1.00  0.00     0.051 A 
HETATM    4  C2  UNK     1      19.770  -1.999  33.578  1.00  0.00    -0.001 A 
HETATM    5  C4  UNK     1      18.984  -0.959  34.061  1.00  0.00     0.092 A 
HETATM    6  C5  UNK     1      20.117  -3.090  34.474  1.00  0.00     0.032 A 
HETATM    7  C6  UNK     1      20.200  -1.959  32.250  1.00  0.00     0.017 A 
HETATM    8  C7  UNK     1      18.835  -2.004  36.271  1.00  0.00     0.299 A 
HETATM    9  C8  UNK     1      18.617   0.118  33.257  1.00  0.00     0.075 A 
HETATM   10  C10 UNK     1      19.051   0.152  31.933  1.00  0.00     0.071 A 
HETATM   11  C12 UNK     1      19.840  -0.885  31.431  1.00  0.00     0.038 A 
ENDROOT
BRANCH   3  12
HETATM   12  C3  UNK     1      20.076  -4.228  36.618  1.00  0.00    -0.017 A 
HETATM   13  C11 UNK     1      21.271  -4.167  37.335  1.00  0.00     0.015 A 
HETATM   14  C15 UNK     1      21.642  -5.227  38.164  1.00  0.00     0.040 A 
HETATM   15  C14 UNK     1      20.819  -6.347  38.273  1.00  0.00     0.101 A 
HETATM   16  C13 UNK     1      19.624  -6.408  37.556  1.00  0.00     0.102 A 
HETATM   17  C9  UNK     1      19.253  -5.348  36.728  1.00  0.00     0.052 A 
BRANCH  15  18
HETATM   18  O4  UNK     1      21.193  -7.376  39.085  1.00  0.00    -0.353 OA
HETATM   19  C19 UNK     1      22.523  -7.344  39.597  1.00  0.00     0.210 C 
ENDBRANCH  15  18
BRANCH  16  20
HETATM   20  O3  UNK     1      18.811  -7.497  37.656  1.00  0.00    -0.353 OA
HETATM   21  C18 UNK     1      18.828  -8.420  36.569  1.00  0.00     0.210 C 
ENDBRANCH  16  20
ENDBRANCH   3  12
BRANCH  10  22
HETATM   22  O2  UNK     1      18.705   1.194  31.130  1.00  0.00    -0.351 OA
BRANCH  22  23
HETATM   23  C16 UNK     1      19.135   1.136  29.771  1.00  0.00     0.171 C 
HETATM   24  C17 UNK     1      18.079   1.772  28.892  1.00  0.00     0.034 C 
ENDBRANCH  22  23
ENDBRANCH  10  22
TORSDOF 5
ENDMDL
