MODEL 1
REMARK VINA RESULT:      -9.3      0.000      0.000
REMARK  3 active torsions:
REMARK  status: ('A' for Active; 'I' for Inactive)
REMARK    1  A    between atoms: C11_16  and  O2_4 
REMARK    2  A    between atoms: C13_18  and  O2_4 
REMARK    3  A    between atoms: C13_18  and  C14_19 
ROOT
HETATM    1 Cl1  UNK     1      18.747   5.450  29.706  1.00  0.00    -0.081 Cl
HETATM    2  O1  UNK     1      18.507   0.589  33.057  1.00  0.00    -0.274 OA
HETATM    3  O3  UNK     1      18.949  -1.642  33.369  1.00  0.00    -0.259 OA
HETATM    4  C1  UNK     1      20.280   0.076  29.205  1.00  0.00     0.040 C 
HETATM    5  C2  UNK     1      19.643   0.387  30.515  1.00  0.00    -0.033 A 
HETATM    6  C3  UNK     1      20.297  -1.458  29.205  1.00  0.00     0.009 C 
HETATM    7  C4  UNK     1      20.167  -1.895  30.668  1.00  0.00     0.046 C 
HETATM    8  C5  UNK     1      19.580  -0.686  31.306  1.00  0.00     0.025 A 
HETATM    9  C6  UNK     1      19.138   1.672  30.955  1.00  0.00     0.007 A 
HETATM   10  C7  UNK     1      18.574   1.738  32.232  1.00  0.00     0.093 A 
HETATM   11  C8  UNK     1      19.000  -0.652  32.651  1.00  0.00     0.295 A 
HETATM   12  C9  UNK     1      19.186   2.834  30.182  1.00  0.00     0.041 A 
HETATM   13  C10 UNK     1      18.059   2.926  32.747  1.00  0.00     0.076 A 
HETATM   14  C11 UNK     1      18.111   4.078  31.966  1.00  0.00     0.093 A 
HETATM   15  C12 UNK     1      18.672   4.033  30.689  1.00  0.00     0.068 A 
ENDROOT
BRANCH  14  16
HETATM   16  O2  UNK     1      17.607   5.238  32.477  1.00  0.00    -0.345 OA
BRANCH  16  17
HETATM   17  C13 UNK     1      17.954   5.559  33.822  1.00  0.00     0.214 C 
BRANCH  17  18
HETATM   18  C14 UNK     1      18.264   7.024  33.912  1.00  0.00    -0.034 A 
HETATM   19  C15 UNK     1      19.516   7.436  34.351  1.00  0.00     0.012 A 
HETATM   20  C17 UNK     1      19.804   8.799  34.435  1.00  0.00     0.043 A 
HETATM   21  C19 UNK     1      18.838   9.740  34.078  1.00  0.00     0.116 A 
HETATM   22  C18 UNK     1      17.583   9.318  33.638  1.00  0.00     0.043 A 
HETATM   23  F1  UNK     1      19.114  11.048  34.159  1.00  0.00    -0.206 F 
HETATM   24  C16 UNK     1      17.295   7.955  33.554  1.00  0.00     0.012 A 
ENDBRANCH  17  18
ENDBRANCH  16  17
ENDBRANCH  14  16
TORSDOF 3
ENDMDL
MODEL 2
REMARK VINA RESULT:      -9.2      2.167      2.909
REMARK  3 active torsions:
REMARK  status: ('A' for Active; 'I' for Inactive)
REMARK    1  A    between atoms: C11_16  and  O2_4 
REMARK    2  A    between atoms: C13_18  and  O2_4 
REMARK    3  A    between atoms: C13_18  and  C14_19 
ROOT
HETATM    1 Cl1  UNK     1      17.879   2.671  34.804  1.00  0.00    -0.081 Cl
HETATM    2  O1  UNK     1      19.289   0.932  29.336  1.00  0.00    -0.274 OA
HETATM    3  O3  UNK     1      20.094  -0.665  27.895  1.00  0.00    -0.259 OA
HETATM    4  C1  UNK     1      20.044  -1.924  32.421  1.00  0.00     0.040 C 
HETATM    5  C2  UNK     1      19.735  -0.844  31.443  1.00  0.00    -0.033 A 
HETATM    6  C3  UNK     1      20.894  -2.889  31.584  1.00  0.00     0.009 C 
HETATM    7  C4  UNK     1      20.582  -2.584  30.115  1.00  0.00     0.046 C 
HETATM    8  C5  UNK     1      20.030  -1.204  30.192  1.00  0.00     0.025 A 
HETATM    9  C6  UNK     1      19.173   0.459  31.734  1.00  0.00     0.007 A 
HETATM   10  C7  UNK     1      18.964   1.325  30.657  1.00  0.00     0.093 A 
HETATM   11  C8  UNK     1      19.822  -0.324  29.039  1.00  0.00     0.295 A 
HETATM   12  C9  UNK     1      18.829   0.892  33.017  1.00  0.00     0.041 A 
HETATM   13  C10 UNK     1      18.429   2.600  30.831  1.00  0.00     0.076 A 
HETATM   14  C11 UNK     1      18.092   3.020  32.115  1.00  0.00     0.093 A 
HETATM   15  C12 UNK     1      18.291   2.169  33.204  1.00  0.00     0.068 A 
ENDROOT
BRANCH  14  16
HETATM   16  O2  UNK     1      17.568   4.268  32.279  1.00  0.00    -0.345 OA
BRANCH  16  17
HETATM   17  C13 UNK     1      18.131   5.316  31.493  1.00  0.00     0.214 C 
BRANCH  17  18
HETATM   18  C14 UNK     1      18.705   6.359  32.406  1.00  0.00    -0.034 A 
HETATM   19  C15 UNK     1      17.858   7.263  33.036  1.00  0.00     0.012 A 
HETATM   20  C17 UNK     1      18.393   8.233  33.884  1.00  0.00     0.043 A 
HETATM   21  C19 UNK     1      19.770   8.292  34.097  1.00  0.00     0.116 A 
HETATM   22  C18 UNK     1      20.614   7.381  33.461  1.00  0.00     0.043 A 
HETATM   23  F1  UNK     1      20.284   9.223  34.911  1.00  0.00    -0.206 F 
HETATM   24  C16 UNK     1      20.079   6.411  32.612  1.00  0.00     0.012 A 
ENDBRANCH  17  18
ENDBRANCH  16  17
ENDBRANCH  14  16
TORSDOF 3
ENDMDL
MODEL 3
REMARK VINA RESULT:      -9.1      3.651      8.662
REMARK  3 active torsions:
REMARK  status: ('A' for Active; 'I' for Inactive)
REMARK    1  A    between atoms: C11_16  and  O2_4 
REMARK    2  A    between atoms: C13_18  and  O2_4 
REMARK    3  A    between atoms: C13_18  and  C14_19 
ROOT
HETATM    1 Cl1  UNK     1      18.769   2.340  35.112  1.00  0.00    -0.081 Cl
HETATM    2  O1  UNK     1      17.100   6.366  31.122  1.00  0.00    -0.274 OA
HETATM    3  O3  UNK     1      16.405   8.492  30.604  1.00  0.00    -0.259 OA
HETATM    4  C1  UNK     1      17.093   7.694  35.181  1.00  0.00     0.040 C 
HETATM    5  C2  UNK     1      17.138   7.109  33.812  1.00  0.00    -0.033 A 
HETATM    6  C3  UNK     1      16.319   8.999  34.954  1.00  0.00     0.009 C 
HETATM    7  C4  UNK     1      16.435   9.320  33.461  1.00  0.00     0.046 C 
HETATM    8  C5  UNK     1      16.777   7.993  32.880  1.00  0.00     0.025 A 
HETATM    9  C6  UNK     1      17.524   5.759  33.455  1.00  0.00     0.007 A 
HETATM   10  C7  UNK     1      17.493   5.419  32.100  1.00  0.00     0.093 A 
HETATM   11  C8  UNK     1      16.736   7.673  31.451  1.00  0.00     0.295 A 
HETATM   12  C9  UNK     1      17.924   4.792  34.379  1.00  0.00     0.041 A 
HETATM   13  C10 UNK     1      17.845   4.147  31.652  1.00  0.00     0.076 A 
HETATM   14  C11 UNK     1      18.240   3.191  32.583  1.00  0.00     0.093 A 
HETATM   15  C12 UNK     1      18.280   3.511  33.942  1.00  0.00     0.068 A 
ENDROOT
BRANCH  14  16
HETATM   16  O2  UNK     1      18.584   1.948  32.140  1.00  0.00    -0.345 OA
BRANCH  16  17
HETATM   17  C13 UNK     1      18.852   1.809  30.746  1.00  0.00     0.214 C 
BRANCH  17  18
HETATM   18  C14 UNK     1      19.470   0.465  30.498  1.00  0.00    -0.034 A 
HETATM   19  C15 UNK     1      19.415  -0.511  31.485  1.00  0.00     0.012 A 
HETATM   20  C17 UNK     1      19.990  -1.761  31.253  1.00  0.00     0.043 A 
HETATM   21  C19 UNK     1      20.616  -2.026  30.035  1.00  0.00     0.116 A 
HETATM   22  C18 UNK     1      20.668  -1.041  29.049  1.00  0.00     0.043 A 
HETATM   23  F1  UNK     1      21.169  -3.226  29.813  1.00  0.00    -0.206 F 
HETATM   24  C16 UNK     1      20.093   0.209  29.280  1.00  0.00     0.012 A 
ENDBRANCH  17  18
ENDBRANCH  16  17
ENDBRANCH  14  16
TORSDOF 3
ENDMDL
MODEL 4
REMARK VINA RESULT:      -8.9      3.451      8.710
REMARK  3 active torsions:
REMARK  status: ('A' for Active; 'I' for Inactive)
REMARK    1  A    between atoms: C11_16  and  O2_4 
REMARK    2  A    between atoms: C13_18  and  O2_4 
REMARK    3  A    between atoms: C13_18  and  C14_19 
ROOT
HETATM    1 Cl1  UNK     1      21.344   6.174  32.659  1.00  0.00    -0.081 Cl
HETATM    2  O1  UNK     1      15.541   7.283  32.602  1.00  0.00    -0.274 OA
HETATM    3  O3  UNK     1      13.778   8.709  32.967  1.00  0.00    -0.259 OA
HETATM    4  C1  UNK     1      18.005  10.478  34.001  1.00  0.00     0.040 C 
HETATM    5  C2  UNK     1      17.261   9.291  33.496  1.00  0.00    -0.033 A 
HETATM    6  C3  UNK     1      16.882  11.347  34.581  1.00  0.00     0.009 C 
HETATM    7  C4  UNK     1      15.581  10.873  33.925  1.00  0.00     0.046 C 
HETATM    8  C5  UNK     1      15.944   9.507  33.458  1.00  0.00     0.025 A 
HETATM    9  C6  UNK     1      17.825   8.027  33.069  1.00  0.00     0.007 A 
HETATM   10  C7  UNK     1      16.936   7.042  32.629  1.00  0.00     0.093 A 
HETATM   11  C8  UNK     1      14.985   8.500  33.000  1.00  0.00     0.295 A 
HETATM   12  C9  UNK     1      19.192   7.742  33.071  1.00  0.00     0.041 A 
HETATM   13  C10 UNK     1      17.377   5.792  32.199  1.00  0.00     0.076 A 
HETATM   14  C11 UNK     1      18.743   5.520  32.208  1.00  0.00     0.093 A 
HETATM   15  C12 UNK     1      19.647   6.491  32.642  1.00  0.00     0.068 A 
ENDROOT
BRANCH  14  16
HETATM   16  O2  UNK     1      19.169   4.296  31.784  1.00  0.00    -0.345 OA
BRANCH  16  17
HETATM   17  C13 UNK     1      18.240   3.219  31.877  1.00  0.00     0.214 C 
BRANCH  17  18
HETATM   18  C14 UNK     1      18.518   2.236  30.779  1.00  0.00    -0.034 A 
HETATM   19  C15 UNK     1      17.944   2.421  29.527  1.00  0.00     0.012 A 
HETATM   20  C17 UNK     1      18.203   1.506  28.506  1.00  0.00     0.043 A 
HETATM   21  C19 UNK     1      19.035   0.412  28.744  1.00  0.00     0.116 A 
HETATM   22  C18 UNK     1      19.607   0.232  30.003  1.00  0.00     0.043 A 
HETATM   23  F1  UNK     1      19.284  -0.467  27.764  1.00  0.00    -0.206 F 
HETATM   24  C16 UNK     1      19.348   1.147  31.024  1.00  0.00     0.012 A 
ENDBRANCH  17  18
ENDBRANCH  16  17
ENDBRANCH  14  16
TORSDOF 3
ENDMDL
MODEL 5
REMARK VINA RESULT:      -8.7     13.093     15.648
REMARK  3 active torsions:
REMARK  status: ('A' for Active; 'I' for Inactive)
REMARK    1  A    between atoms: C11_16  and  O2_4 
REMARK    2  A    between atoms: C13_18  and  O2_4 
REMARK    3  A    between atoms: C13_18  and  C14_19 
ROOT
HETATM    1 Cl1  UNK     1      26.133 -10.318  36.808  1.00  0.00    -0.081 Cl
HETATM    2  O1  UNK     1      27.937  -5.232  39.214  1.00  0.00    -0.274 OA
HETATM    3  O3  UNK     1      29.618  -3.759  39.740  1.00  0.00    -0.259 OA
HETATM    4  C1  UNK     1      31.026  -7.679  37.568  1.00  0.00     0.040 C 
HETATM    5  C2  UNK     1      29.859  -6.923  38.104  1.00  0.00    -0.033 A 
HETATM    6  C3  UNK     1      32.214  -6.923  38.177  1.00  0.00     0.009 C 
HETATM    7  C4  UNK     1      31.695  -5.535  38.565  1.00  0.00     0.046 C 
HETATM    8  C5  UNK     1      30.226  -5.760  38.647  1.00  0.00     0.025 A 
HETATM    9  C6  UNK     1      28.469  -7.327  38.068  1.00  0.00     0.007 A 
HETATM   10  C7  UNK     1      27.532  -6.459  38.634  1.00  0.00     0.093 A 
HETATM   11  C8  UNK     1      29.272  -4.824  39.246  1.00  0.00     0.295 A 
HETATM   12  C9  UNK     1      28.019  -8.522  37.503  1.00  0.00     0.041 A 
HETATM   13  C10 UNK     1      26.170  -6.756  38.652  1.00  0.00     0.076 A 
HETATM   14  C11 UNK     1      25.734  -7.951  38.088  1.00  0.00     0.093 A 
HETATM   15  C12 UNK     1      26.654  -8.832  37.515  1.00  0.00     0.068 A 
ENDROOT
BRANCH  14  16
HETATM   16  O2  UNK     1      24.400  -8.236  38.106  1.00  0.00    -0.345 OA
BRANCH  16  17
HETATM   17  C13 UNK     1      23.691  -7.934  39.305  1.00  0.00     0.214 C 
BRANCH  17  18
HETATM   18  C14 UNK     1      22.247  -7.698  38.974  1.00  0.00    -0.034 A 
HETATM   19  C15 UNK     1      21.284  -8.597  39.415  1.00  0.00     0.012 A 
HETATM   20  C17 UNK     1      19.941  -8.377  39.106  1.00  0.00     0.043 A 
HETATM   21  C19 UNK     1      19.571  -7.259  38.359  1.00  0.00     0.116 A 
HETATM   22  C18 UNK     1      20.544  -6.361  37.920  1.00  0.00     0.043 A 
HETATM   23  F1  UNK     1      18.282  -7.048  38.062  1.00  0.00    -0.206 F 
HETATM   24  C16 UNK     1      21.886  -6.581  38.228  1.00  0.00     0.012 A 
ENDBRANCH  17  18
ENDBRANCH  16  17
ENDBRANCH  14  16
TORSDOF 3
ENDMDL
MODEL 6
REMARK VINA RESULT:      -8.6     15.050     17.697
REMARK  3 active torsions:
REMARK  status: ('A' for Active; 'I' for Inactive)
REMARK    1  A    between atoms: C11_16  and  O2_4 
REMARK    2  A    between atoms: C13_18  and  O2_4 
REMARK    3  A    between atoms: C13_18  and  C14_19 
ROOT
HETATM    1 Cl1  UNK     1      20.065  -1.214  13.116  1.00  0.00    -0.081 Cl
HETATM    2  O1  UNK     1      16.976  -5.149  16.262  1.00  0.00    -0.274 OA
HETATM    3  O3  UNK     1      16.067  -7.244  16.495  1.00  0.00    -0.259 OA
HETATM    4  C1  UNK     1      18.317  -6.502  12.439  1.00  0.00     0.040 C 
HETATM    5  C2  UNK     1      17.910  -5.910  13.744  1.00  0.00    -0.033 A 
HETATM    6  C3  UNK     1      17.464  -7.776  12.378  1.00  0.00     0.009 C 
HETATM    7  C4  UNK     1      17.047  -8.091  13.817  1.00  0.00     0.046 C 
HETATM    8  C5  UNK     1      17.218  -6.774  14.489  1.00  0.00     0.025 A 
HETATM    9  C6  UNK     1      18.199  -4.574  14.221  1.00  0.00     0.007 A 
HETATM   10  C7  UNK     1      17.716  -4.224  15.485  1.00  0.00     0.093 A 
HETATM   11  C8  UNK     1      16.699  -6.443  15.818  1.00  0.00     0.295 A 
HETATM   12  C9  UNK     1      18.928  -3.628  13.498  1.00  0.00     0.041 A 
HETATM   13  C10 UNK     1      17.940  -2.962  16.035  1.00  0.00     0.076 A 
HETATM   14  C11 UNK     1      18.667  -2.028  15.302  1.00  0.00     0.093 A 
HETATM   15  C12 UNK     1      19.160  -2.358  14.039  1.00  0.00     0.068 A 
ENDROOT
BRANCH  14  16
HETATM   16  O2  UNK     1      18.884  -0.795  15.846  1.00  0.00    -0.345 OA
BRANCH  16  17
HETATM   17  C13 UNK     1      18.685  -0.663  17.251  1.00  0.00     0.214 C 
BRANCH  17  18
HETATM   18  C14 UNK     1      19.043   0.732  17.668  1.00  0.00    -0.034 A 
HETATM   19  C15 UNK     1      19.198   1.030  19.016  1.00  0.00     0.012 A 
HETATM   20  C17 UNK     1      19.530   2.329  19.402  1.00  0.00     0.043 A 
HETATM   21  C19 UNK     1      19.706   3.321  18.438  1.00  0.00     0.116 A 
HETATM   22  C18 UNK     1      19.549   3.014  17.086  1.00  0.00     0.043 A 
HETATM   23  F1  UNK     1      20.025   4.568  18.809  1.00  0.00    -0.206 F 
HETATM   24  C16 UNK     1      19.216   1.716  16.699  1.00  0.00     0.012 A 
ENDBRANCH  17  18
ENDBRANCH  16  17
ENDBRANCH  14  16
TORSDOF 3
ENDMDL
MODEL 7
REMARK VINA RESULT:      -8.4     15.209     17.387
REMARK  3 active torsions:
REMARK  status: ('A' for Active; 'I' for Inactive)
REMARK    1  A    between atoms: C11_16  and  O2_4 
REMARK    2  A    between atoms: C13_18  and  O2_4 
REMARK    3  A    between atoms: C13_18  and  C14_19 
ROOT
HETATM    1 Cl1  UNK     1      33.463  -7.212  37.888  1.00  0.00    -0.081 Cl
HETATM    2  O1  UNK     1      27.926  -5.189  38.296  1.00  0.00    -0.274 OA
HETATM    3  O3  UNK     1      25.694  -5.550  38.699  1.00  0.00    -0.259 OA
HETATM    4  C1  UNK     1      28.404  -9.376  38.989  1.00  0.00     0.040 C 
HETATM    5  C2  UNK     1      28.373  -7.910  38.726  1.00  0.00    -0.033 A 
HETATM    6  C3  UNK     1      26.918  -9.750  38.933  1.00  0.00     0.009 C 
HETATM    7  C4  UNK     1      26.133  -8.455  39.165  1.00  0.00     0.046 C 
HETATM    8  C5  UNK     1      27.138  -7.413  38.820  1.00  0.00     0.025 A 
HETATM    9  C6  UNK     1      29.501  -7.058  38.412  1.00  0.00     0.007 A 
HETATM   10  C7  UNK     1      29.243  -5.701  38.201  1.00  0.00     0.093 A 
HETATM   11  C8  UNK     1      26.831  -5.997  38.608  1.00  0.00     0.295 A 
HETATM   12  C9  UNK     1      30.818  -7.512  38.313  1.00  0.00     0.041 A 
HETATM   13  C10 UNK     1      30.259  -4.798  37.892  1.00  0.00     0.076 A 
HETATM   14  C11 UNK     1      31.567  -5.264  37.794  1.00  0.00     0.093 A 
HETATM   15  C12 UNK     1      31.846  -6.615  38.004  1.00  0.00     0.068 A 
ENDROOT
BRANCH  14  16
HETATM   16  O2  UNK     1      32.557  -4.375  37.493  1.00  0.00    -0.345 OA
BRANCH  16  17
HETATM   17  C13 UNK     1      32.548  -3.813  36.183  1.00  0.00     0.214 C 
BRANCH  17  18
HETATM   18  C14 UNK     1      33.181  -4.783  35.230  1.00  0.00    -0.034 A 
HETATM   19  C15 UNK     1      34.566  -4.884  35.171  1.00  0.00     0.012 A 
HETATM   20  C17 UNK     1      35.154  -5.786  34.283  1.00  0.00     0.043 A 
HETATM   21  C19 UNK     1      34.354  -6.580  33.461  1.00  0.00     0.116 A 
HETATM   22  C18 UNK     1      32.965  -6.472  33.526  1.00  0.00     0.043 A 
HETATM   23  F1  UNK     1      34.919  -7.445  32.609  1.00  0.00    -0.206 F 
HETATM   24  C16 UNK     1      32.376  -5.570  34.413  1.00  0.00     0.012 A 
ENDBRANCH  17  18
ENDBRANCH  16  17
ENDBRANCH  14  16
TORSDOF 3
ENDMDL
MODEL 8
REMARK VINA RESULT:      -8.4      2.578      3.207
REMARK  3 active torsions:
REMARK  status: ('A' for Active; 'I' for Inactive)
REMARK    1  A    between atoms: C11_16  and  O2_4 
REMARK    2  A    between atoms: C13_18  and  O2_4 
REMARK    3  A    between atoms: C13_18  and  C14_19 
ROOT
HETATM    1 Cl1  UNK     1      17.923   2.397  35.292  1.00  0.00    -0.081 Cl
HETATM    2  O1  UNK     1      19.167   1.304  29.620  1.00  0.00    -0.274 OA
HETATM    3  O3  UNK     1      19.893  -0.126  27.976  1.00  0.00    -0.259 OA
HETATM    4  C1  UNK     1      19.900  -1.928  32.314  1.00  0.00     0.040 C 
HETATM    5  C2  UNK     1      19.602  -0.728  31.483  1.00  0.00    -0.033 A 
HETATM    6  C3  UNK     1      20.702  -2.807  31.346  1.00  0.00     0.009 C 
HETATM    7  C4  UNK     1      20.369  -2.315  29.933  1.00  0.00     0.046 C 
HETATM    8  C5  UNK     1      19.861  -0.940  30.191  1.00  0.00     0.025 A 
HETATM    9  C6  UNK     1      19.086   0.544  31.945  1.00  0.00     0.007 A 
HETATM   10  C7  UNK     1      18.881   1.540  30.987  1.00  0.00     0.093 A 
HETATM   11  C8  UNK     1      19.655   0.079  29.160  1.00  0.00     0.295 A 
HETATM   12  C9  UNK     1      18.782   0.825  33.279  1.00  0.00     0.041 A 
HETATM   13  C10 UNK     1      18.388   2.799  31.328  1.00  0.00     0.076 A 
HETATM   14  C11 UNK     1      18.091   3.067  32.661  1.00  0.00     0.093 A 
HETATM   15  C12 UNK     1      18.287   2.084  33.634  1.00  0.00     0.068 A 
ENDROOT
BRANCH  14  16
HETATM   16  O2  UNK     1      17.608   4.300  32.989  1.00  0.00    -0.345 OA
BRANCH  16  17
HETATM   17  C13 UNK     1      17.824   5.351  32.051  1.00  0.00     0.214 C 
BRANCH  17  18
HETATM   18  C14 UNK     1      17.006   6.542  32.453  1.00  0.00    -0.034 A 
HETATM   19  C15 UNK     1      16.568   7.435  31.482  1.00  0.00     0.012 A 
HETATM   20  C17 UNK     1      15.808   8.543  31.857  1.00  0.00     0.043 A 
HETATM   21  C19 UNK     1      15.491   8.751  33.199  1.00  0.00     0.116 A 
HETATM   22  C18 UNK     1      15.935   7.850  34.168  1.00  0.00     0.043 A 
HETATM   23  F1  UNK     1      14.761   9.815  33.559  1.00  0.00    -0.206 F 
HETATM   24  C16 UNK     1      16.695   6.742  33.794  1.00  0.00     0.012 A 
ENDBRANCH  17  18
ENDBRANCH  16  17
ENDBRANCH  14  16
TORSDOF 3
ENDMDL
MODEL 9
REMARK VINA RESULT:      -8.2      6.191      9.522
REMARK  3 active torsions:
REMARK  status: ('A' for Active; 'I' for Inactive)
REMARK    1  A    between atoms: C11_16  and  O2_4 
REMARK    2  A    between atoms: C13_18  and  O2_4 
REMARK    3  A    between atoms: C13_18  and  C14_19 
ROOT
HETATM    1 Cl1  UNK     1      17.907   0.258  36.519  1.00  0.00    -0.081 Cl
HETATM    2  O1  UNK     1      20.302  -2.153  31.684  1.00  0.00    -0.274 OA
HETATM    3  O3  UNK     1      20.836  -2.040  29.454  1.00  0.00    -0.259 OA
HETATM    4  C1  UNK     1      18.554   1.706  31.136  1.00  0.00     0.040 C 
HETATM    5  C2  UNK     1      19.126   0.368  31.459  1.00  0.00    -0.033 A 
HETATM    6  C3  UNK     1      18.571   1.707  29.603  1.00  0.00     0.009 C 
HETATM    7  C4  UNK     1      19.593   0.649  29.176  1.00  0.00     0.046 C 
HETATM    8  C5  UNK     1      19.686  -0.205  30.392  1.00  0.00     0.025 A 
HETATM    9  C6  UNK     1      19.122  -0.292  32.748  1.00  0.00     0.007 A 
HETATM   10  C7  UNK     1      19.717  -1.554  32.827  1.00  0.00     0.093 A 
HETATM   11  C8  UNK     1      20.322  -1.524  30.438  1.00  0.00     0.295 A 
HETATM   12  C9  UNK     1      18.565   0.258  33.905  1.00  0.00     0.041 A 
HETATM   13  C10 UNK     1      19.765  -2.272  34.020  1.00  0.00     0.076 A 
HETATM   14  C11 UNK     1      19.204  -1.713  35.165  1.00  0.00     0.093 A 
HETATM   15  C12 UNK     1      18.606  -0.453  35.109  1.00  0.00     0.068 A 
ENDROOT
BRANCH  14  16
HETATM   16  O2  UNK     1      19.255  -2.420  36.331  1.00  0.00    -0.345 OA
BRANCH  16  17
HETATM   17  C13 UNK     1      20.398  -3.247  36.538  1.00  0.00     0.214 C 
BRANCH  17  18
HETATM   18  C14 UNK     1      19.949  -4.587  37.040  1.00  0.00    -0.034 A 
HETATM   19  C15 UNK     1      20.633  -5.194  38.087  1.00  0.00     0.012 A 
HETATM   20  C17 UNK     1      20.214  -6.441  38.553  1.00  0.00     0.043 A 
HETATM   21  C19 UNK     1      19.115  -7.071  37.971  1.00  0.00     0.116 A 
HETATM   22  C18 UNK     1      18.434  -6.456  36.921  1.00  0.00     0.043 A 
HETATM   23  F1  UNK     1      18.715  -8.268  38.419  1.00  0.00    -0.206 F 
HETATM   24  C16 UNK     1      18.852  -5.209  36.454  1.00  0.00     0.012 A 
ENDBRANCH  17  18
ENDBRANCH  16  17
ENDBRANCH  14  16
TORSDOF 3
ENDMDL
MODEL 10
REMARK VINA RESULT:      -8.1      5.737      9.379
REMARK  3 active torsions:
REMARK  status: ('A' for Active; 'I' for Inactive)
REMARK    1  A    between atoms: C11_16  and  O2_4 
REMARK    2  A    between atoms: C13_18  and  O2_4 
REMARK    3  A    between atoms: C13_18  and  C14_19 
ROOT
HETATM    1 Cl1  UNK     1      17.746   0.524  37.695  1.00  0.00    -0.081 Cl
HETATM    2  O1  UNK     1      18.888  -0.105  31.932  1.00  0.00    -0.274 OA
HETATM    3  O3  UNK     1      19.172   0.806  29.843  1.00  0.00    -0.259 OA
HETATM    4  C1  UNK     1      18.109   3.891  33.222  1.00  0.00     0.040 C 
HETATM    5  C2  UNK     1      18.361   2.458  32.902  1.00  0.00    -0.033 A 
HETATM    6  C3  UNK     1      17.948   4.514  31.829  1.00  0.00     0.009 C 
HETATM    7  C4  UNK     1      18.617   3.552  30.842  1.00  0.00     0.046 C 
HETATM    8  C5  UNK     1      18.634   2.277  31.609  1.00  0.00     0.025 A 
HETATM    9  C6  UNK     1      18.341   1.344  33.827  1.00  0.00     0.007 A 
HETATM   10  C7  UNK     1      18.607   0.074  33.309  1.00  0.00     0.093 A 
HETATM   11  C8  UNK     1      18.921   0.961  31.032  1.00  0.00     0.295 A 
HETATM   12  C9  UNK     1      18.077   1.468  35.193  1.00  0.00     0.041 A 
HETATM   13  C10 UNK     1      18.611  -1.064  34.115  1.00  0.00     0.076 A 
HETATM   14  C11 UNK     1      18.344  -0.927  35.474  1.00  0.00     0.093 A 
HETATM   15  C12 UNK     1      18.078   0.334  36.012  1.00  0.00     0.068 A 
ENDROOT
BRANCH  14  16
HETATM   16  O2  UNK     1      18.351  -2.043  36.258  1.00  0.00    -0.345 OA
BRANCH  16  17
HETATM   17  C13 UNK     1      19.548  -2.319  36.982  1.00  0.00     0.214 C 
BRANCH  17  18
HETATM   18  C14 UNK     1      19.801  -3.797  36.964  1.00  0.00    -0.034 A 
HETATM   19  C15 UNK     1      18.878  -4.647  36.365  1.00  0.00     0.012 A 
HETATM   20  C17 UNK     1      19.115  -6.022  36.350  1.00  0.00     0.043 A 
HETATM   21  C19 UNK     1      20.272  -6.538  36.932  1.00  0.00     0.116 A 
HETATM   22  C18 UNK     1      21.194  -5.679  37.531  1.00  0.00     0.043 A 
HETATM   23  F1  UNK     1      20.499  -7.858  36.917  1.00  0.00    -0.206 F 
HETATM   24  C16 UNK     1      20.958  -4.304  37.547  1.00  0.00     0.012 A 
ENDBRANCH  17  18
ENDBRANCH  16  17
ENDBRANCH  14  16
TORSDOF 3
ENDMDL
