MODEL 1
REMARK VINA RESULT:      -9.5      0.000      0.000
REMARK  3 active torsions:
REMARK  status: ('A' for Active; 'I' for Inactive)
REMARK    1  A    between atoms: C1_9  and  N1_7 
REMARK       I    between atoms: C7_15  and  N1_7 
REMARK    2  A    between atoms: C10_18  and  N2_8 
REMARK    3  A    between atoms: C4_12  and  C7_15 
ROOT
HETATM    1  O2  UNK     1      17.191  -1.663  17.126  1.00  0.00    -0.267 OA
HETATM    2  N1  UNK     1      19.321  -0.667  16.996  1.00  0.00    -0.322 N 
HETATM    3  C7  UNK     1      18.269  -1.465  16.567  1.00  0.00     0.262 C 
HETATM    4  H2  UNK     1      20.134  -0.600  16.392  1.00  0.00     0.169 HD
ENDROOT
BRANCH   3   5
HETATM    5  C4  UNK     1      18.554  -2.116  15.284  1.00  0.00     0.108 A 
HETATM    6  C12 UNK     1      19.136  -1.376  14.140  1.00  0.00     0.304 A 
HETATM    7  O1  UNK     1      19.361  -2.104  12.975  1.00  0.00    -0.274 OA
HETATM    8  O3  UNK     1      19.407  -0.182  14.210  1.00  0.00    -0.259 OA
HETATM    9  C5  UNK     1      19.052  -3.475  12.883  1.00  0.00     0.089 A 
HETATM   10  C15 UNK     1      19.314  -4.118  11.675  1.00  0.00     0.039 A 
HETATM   11  C3  UNK     1      18.506  -4.151  13.971  1.00  0.00     0.000 A 
HETATM   12  C17 UNK     1      19.020  -5.475  11.555  1.00  0.00     0.022 A 
HETATM   13  C16 UNK     1      18.470  -6.170  12.634  1.00  0.00     0.011 A 
HETATM   14 Br1  UNK     1      18.075  -8.011  12.466  1.00  0.00    -0.051 Br
HETATM   15  C11 UNK     1      18.214  -5.510  13.841  1.00  0.00     0.033 A 
HETATM   16  C6  UNK     1      18.259  -3.418  15.202  1.00  0.00     0.037 A 
ENDBRANCH   3   5
BRANCH   2  17
HETATM   17  C1  UNK     1      19.393   0.105  18.181  1.00  0.00     0.041 A 
HETATM   18  C2  UNK     1      19.298   1.485  18.120  1.00  0.00    -0.033 A 
HETATM   19  C14 UNK     1      19.119   2.207  16.824  1.00  0.00     0.050 C 
HETATM   20  C9  UNK     1      19.371   2.228  19.299  1.00  0.00     0.045 A 
HETATM   21  C10 UNK     1      19.538   1.579  20.522  1.00  0.00     0.103 A 
HETATM   22  C13 UNK     1      19.633   0.188  20.568  1.00  0.00     0.038 A 
HETATM   23  C8  UNK     1      19.560  -0.554  19.389  1.00  0.00     0.032 A 
BRANCH  21  24
HETATM   24  N2  UNK     1      19.615   2.334  21.723  1.00  0.00    -0.116 N 
HETATM   25  O4  UNK     1      18.572   2.868  22.173  1.00  0.00    -0.532 OA
HETATM   26  O5  UNK     1      20.723   2.447  22.300  1.00  0.00    -0.532 OA
ENDBRANCH  21  24
ENDBRANCH   2  17
TORSDOF 3
ENDMDL
MODEL 2
REMARK VINA RESULT:      -9.3     13.458     16.292
REMARK  3 active torsions:
REMARK  status: ('A' for Active; 'I' for Inactive)
REMARK    1  A    between atoms: C1_9  and  N1_7 
REMARK       I    between atoms: C7_15  and  N1_7 
REMARK    2  A    between atoms: C10_18  and  N2_8 
REMARK    3  A    between atoms: C4_12  and  C7_15 
ROOT
HETATM    1  O2  UNK     1      17.597   3.323  32.959  1.00  0.00    -0.267 OA
HETATM    2  N1  UNK     1      18.657   4.842  31.504  1.00  0.00    -0.322 N 
HETATM    3  C7  UNK     1      18.250   3.592  31.952  1.00  0.00     0.262 C 
HETATM    4  H2  UNK     1      19.175   4.880  30.632  1.00  0.00     0.169 HD
ENDROOT
BRANCH   3   5
HETATM    5  C4  UNK     1      18.692   2.513  31.061  1.00  0.00     0.108 A 
HETATM    6  C12 UNK     1      18.651   2.645  29.587  1.00  0.00     0.304 A 
HETATM    7  O1  UNK     1      19.098   1.552  28.850  1.00  0.00    -0.274 OA
HETATM    8  O3  UNK     1      18.245   3.664  29.038  1.00  0.00    -0.259 OA
HETATM    9  C5  UNK     1      19.565   0.378  29.469  1.00  0.00     0.089 A 
HETATM   10  C15 UNK     1      19.992  -0.663  28.647  1.00  0.00     0.039 A 
HETATM   11  C3  UNK     1      19.596   0.275  30.857  1.00  0.00     0.000 A 
HETATM   12  C17 UNK     1      20.461  -1.837  29.232  1.00  0.00     0.022 A 
HETATM   13  C16 UNK     1      20.498  -1.960  30.622  1.00  0.00     0.011 A 
HETATM   14 Br1  UNK     1      21.137  -3.556  31.410  1.00  0.00    -0.051 Br
HETATM   15  C11 UNK     1      20.067  -0.906  31.434  1.00  0.00     0.033 A 
HETATM   16  C6  UNK     1      19.136   1.400  31.656  1.00  0.00     0.037 A 
ENDBRANCH   3   5
BRANCH   2  17
HETATM   17  C1  UNK     1      18.410   6.098  32.108  1.00  0.00     0.041 A 
HETATM   18  C2  UNK     1      19.432   6.773  32.754  1.00  0.00    -0.033 A 
HETATM   19  C14 UNK     1      20.814   6.214  32.841  1.00  0.00     0.050 C 
HETATM   20  C9  UNK     1      19.168   8.011  33.343  1.00  0.00     0.045 A 
HETATM   21  C10 UNK     1      17.886   8.555  33.276  1.00  0.00     0.103 A 
HETATM   22  C13 UNK     1      16.867   7.864  32.622  1.00  0.00     0.038 A 
HETATM   23  C8  UNK     1      17.130   6.627  32.033  1.00  0.00     0.032 A 
BRANCH  21  24
HETATM   24  N2  UNK     1      17.616   9.814  33.877  1.00  0.00    -0.116 N 
HETATM   25  O4  UNK     1      16.711   9.893  34.742  1.00  0.00    -0.532 OA
HETATM   26  O5  UNK     1      18.291  10.812  33.526  1.00  0.00    -0.532 OA
ENDBRANCH  21  24
ENDBRANCH   2  17
TORSDOF 3
ENDMDL
MODEL 3
REMARK VINA RESULT:      -8.8     22.920     24.780
REMARK  3 active torsions:
REMARK  status: ('A' for Active; 'I' for Inactive)
REMARK    1  A    between atoms: C1_9  and  N1_7 
REMARK       I    between atoms: C7_15  and  N1_7 
REMARK    2  A    between atoms: C10_18  and  N2_8 
REMARK    3  A    between atoms: C4_12  and  C7_15 
ROOT
HETATM    1  O2  UNK     1      25.826  -9.140  39.492  1.00  0.00    -0.267 OA
HETATM    2  N1  UNK     1      24.587  -7.698  38.103  1.00  0.00    -0.322 N 
HETATM    3  C7  UNK     1      25.698  -8.116  38.823  1.00  0.00     0.262 C 
HETATM    4  H2  UNK     1      24.666  -6.828  37.585  1.00  0.00     0.169 HD
ENDROOT
BRANCH   3   5
HETATM    5  C4  UNK     1      26.813  -7.168  38.722  1.00  0.00     0.108 A 
HETATM    6  C12 UNK     1      26.613  -5.705  38.833  1.00  0.00     0.304 A 
HETATM    7  O1  UNK     1      27.749  -4.909  38.721  1.00  0.00    -0.274 OA
HETATM    8  O3  UNK     1      25.503  -5.215  39.015  1.00  0.00    -0.259 OA
HETATM    9  C5  UNK     1      29.027  -5.462  38.512  1.00  0.00     0.089 A 
HETATM   10  C15 UNK     1      30.104  -4.583  38.413  1.00  0.00     0.039 A 
HETATM   11  C3  UNK     1      29.193  -6.840  38.410  1.00  0.00     0.000 A 
HETATM   12  C17 UNK     1      31.381  -5.101  38.207  1.00  0.00     0.022 A 
HETATM   13  C16 UNK     1      31.567  -6.481  38.101  1.00  0.00     0.011 A 
HETATM   14 Br1  UNK     1      33.303  -7.178  37.822  1.00  0.00    -0.051 Br
HETATM   15  C11 UNK     1      30.476  -7.350  38.203  1.00  0.00     0.033 A 
HETATM   16  C6  UNK     1      28.025  -7.699  38.523  1.00  0.00     0.037 A 
ENDBRANCH   3   5
BRANCH   2  17
HETATM   17  C1  UNK     1      23.342  -8.359  37.975  1.00  0.00     0.041 A 
HETATM   18  C2  UNK     1      22.346  -8.158  38.916  1.00  0.00    -0.033 A 
HETATM   19  C14 UNK     1      22.540  -7.250  40.087  1.00  0.00     0.050 C 
HETATM   20  C9  UNK     1      21.126  -8.818  38.772  1.00  0.00     0.045 A 
HETATM   21  C10 UNK     1      20.918  -9.671  37.688  1.00  0.00     0.103 A 
HETATM   22  C13 UNK     1      21.930  -9.864  36.748  1.00  0.00     0.038 A 
HETATM   23  C8  UNK     1      23.151  -9.203  36.892  1.00  0.00     0.032 A 
BRANCH  21  24
HETATM   24  N2  UNK     1      19.676 -10.346  37.541  1.00  0.00    -0.116 N 
HETATM   25  O4  UNK     1      19.556 -11.504  38.007  1.00  0.00    -0.532 OA
HETATM   26  O5  UNK     1      18.735  -9.764  36.950  1.00  0.00    -0.532 OA
ENDBRANCH  21  24
ENDBRANCH   2  17
TORSDOF 3
ENDMDL
MODEL 4
REMARK VINA RESULT:      -8.7     19.046     20.950
REMARK  3 active torsions:
REMARK  status: ('A' for Active; 'I' for Inactive)
REMARK    1  A    between atoms: C1_9  and  N1_7 
REMARK       I    between atoms: C7_15  and  N1_7 
REMARK    2  A    between atoms: C10_18  and  N2_8 
REMARK    3  A    between atoms: C4_12  and  C7_15 
ROOT
HETATM    1  O2  UNK     1      20.945  -4.188  37.937  1.00  0.00    -0.267 OA
HETATM    2  N1  UNK     1      19.028  -4.004  36.583  1.00  0.00    -0.322 N 
HETATM    3  C7  UNK     1      20.039  -4.671  37.261  1.00  0.00     0.262 C 
HETATM    4  H2  UNK     1      18.344  -4.568  36.088  1.00  0.00     0.169 HD
ENDROOT
BRANCH   3   5
HETATM    5  C4  UNK     1      19.945  -6.126  37.102  1.00  0.00     0.108 A 
HETATM    6  C12 UNK     1      18.654  -6.846  37.199  1.00  0.00     0.304 A 
HETATM    7  O1  UNK     1      18.694  -8.227  37.031  1.00  0.00    -0.274 OA
HETATM    8  O3  UNK     1      17.599  -6.258  37.417  1.00  0.00    -0.259 OA
HETATM    9  C5  UNK     1      19.899  -8.911  36.781  1.00  0.00     0.089 A 
HETATM   10  C15 UNK     1      19.839 -10.294  36.626  1.00  0.00     0.039 A 
HETATM   11  C3  UNK     1      21.101  -8.215  36.693  1.00  0.00     0.000 A 
HETATM   12  C17 UNK     1      21.015 -10.998  36.376  1.00  0.00     0.022 A 
HETATM   13  C16 UNK     1      22.231 -10.318  36.286  1.00  0.00     0.011 A 
HETATM   14 Br1  UNK     1      23.825 -11.278  35.946  1.00  0.00    -0.051 Br
HETATM   15  C11 UNK     1      22.276  -8.929  36.443  1.00  0.00     0.033 A 
HETATM   16  C6  UNK     1      21.093  -6.771  36.865  1.00  0.00     0.037 A 
ENDBRANCH   3   5
BRANCH   2  17
HETATM   17  C1  UNK     1      18.809  -2.606  36.516  1.00  0.00     0.041 A 
HETATM   18  C2  UNK     1      19.364  -1.863  35.488  1.00  0.00    -0.033 A 
HETATM   19  C14 UNK     1      20.203  -2.492  34.424  1.00  0.00     0.050 C 
HETATM   20  C9  UNK     1      19.136  -0.487  35.439  1.00  0.00     0.045 A 
HETATM   21  C10 UNK     1      18.357   0.126  36.420  1.00  0.00     0.103 A 
HETATM   22  C13 UNK     1      17.804  -0.636  37.449  1.00  0.00     0.038 A 
HETATM   23  C8  UNK     1      18.032  -2.012  37.498  1.00  0.00     0.032 A 
BRANCH  21  24
HETATM   24  N2  UNK     1      18.126   1.527  36.373  1.00  0.00    -0.116 N 
HETATM   25  O4  UNK     1      18.938   2.256  35.755  1.00  0.00    -0.532 OA
HETATM   26  O5  UNK     1      17.116   1.996  36.951  1.00  0.00    -0.532 OA
ENDBRANCH  21  24
ENDBRANCH   2  17
TORSDOF 3
ENDMDL
MODEL 5
REMARK VINA RESULT:      -8.7     16.213     20.070
REMARK  3 active torsions:
REMARK  status: ('A' for Active; 'I' for Inactive)
REMARK    1  A    between atoms: C1_9  and  N1_7 
REMARK       I    between atoms: C7_15  and  N1_7 
REMARK    2  A    between atoms: C10_18  and  N2_8 
REMARK    3  A    between atoms: C4_12  and  C7_15 
ROOT
HETATM    1  O2  UNK     1      21.044  -3.845  36.811  1.00  0.00    -0.267 OA
HETATM    2  N1  UNK     1      19.375  -5.062  35.680  1.00  0.00    -0.322 N 
HETATM    3  C7  UNK     1      20.150  -3.949  35.971  1.00  0.00     0.262 C 
HETATM    4  H2  UNK     1      18.692  -4.975  34.933  1.00  0.00     0.169 HD
ENDROOT
BRANCH   3   5
HETATM    5  C4  UNK     1      19.803  -2.796  35.132  1.00  0.00     0.108 A 
HETATM    6  C12 UNK     1      19.047  -1.639  35.662  1.00  0.00     0.304 A 
HETATM    7  O1  UNK     1      18.777  -0.606  34.768  1.00  0.00    -0.274 OA
HETATM    8  O3  UNK     1      18.674  -1.587  36.830  1.00  0.00    -0.259 OA
HETATM    9  C5  UNK     1      19.200  -0.656  33.426  1.00  0.00     0.089 A 
HETATM   10  C15 UNK     1      18.883   0.426  32.607  1.00  0.00     0.039 A 
HETATM   11  C3  UNK     1      19.909  -1.754  32.949  1.00  0.00     0.000 A 
HETATM   12  C17 UNK     1      19.289   0.406  31.275  1.00  0.00     0.022 A 
HETATM   13  C16 UNK     1      20.001  -0.687  30.776  1.00  0.00     0.011 A 
HETATM   14 Br1  UNK     1      20.550  -0.709  28.967  1.00  0.00    -0.051 Br
HETATM   15  C11 UNK     1      20.311  -1.765  31.611  1.00  0.00     0.033 A 
HETATM   16  C6  UNK     1      20.206  -2.849  33.858  1.00  0.00     0.037 A 
ENDBRANCH   3   5
BRANCH   2  17
HETATM   17  C1  UNK     1      19.435  -6.340  36.287  1.00  0.00     0.041 A 
HETATM   18  C2  UNK     1      19.986  -7.411  35.602  1.00  0.00    -0.033 A 
HETATM   19  C14 UNK     1      20.529  -7.266  34.218  1.00  0.00     0.050 C 
HETATM   20  C9  UNK     1      20.036  -8.662  36.218  1.00  0.00     0.045 A 
HETATM   21  C10 UNK     1      19.536  -8.825  37.509  1.00  0.00     0.103 A 
HETATM   22  C13 UNK     1      18.985  -7.737  38.186  1.00  0.00     0.038 A 
HETATM   23  C8  UNK     1      18.934  -6.486  37.571  1.00  0.00     0.032 A 
BRANCH  21  24
HETATM   24  N2  UNK     1      19.586 -10.099  38.136  1.00  0.00    -0.116 N 
HETATM   25  O4  UNK     1      19.844 -10.163  39.362  1.00  0.00    -0.532 OA
HETATM   26  O5  UNK     1      19.369 -11.124  37.446  1.00  0.00    -0.532 OA
ENDBRANCH  21  24
ENDBRANCH   2  17
TORSDOF 3
ENDMDL
MODEL 6
REMARK VINA RESULT:      -8.7      4.164      8.667
REMARK  3 active torsions:
REMARK  status: ('A' for Active; 'I' for Inactive)
REMARK    1  A    between atoms: C1_9  and  N1_7 
REMARK       I    between atoms: C7_15  and  N1_7 
REMARK    2  A    between atoms: C10_18  and  N2_8 
REMARK    3  A    between atoms: C4_12  and  C7_15 
ROOT
HETATM    1  O2  UNK     1      17.840  -3.511  15.484  1.00  0.00    -0.267 OA
HETATM    2  N1  UNK     1      20.045  -3.355  14.672  1.00  0.00    -0.322 N 
HETATM    3  C7  UNK     1      18.882  -2.892  15.272  1.00  0.00     0.262 C 
HETATM    4  H2  UNK     1      20.823  -2.707  14.598  1.00  0.00     0.169 HD
ENDROOT
BRANCH   3   5
HETATM    5  C4  UNK     1      18.987  -1.485  15.674  1.00  0.00     0.108 A 
HETATM    6  C12 UNK     1      19.132  -0.394  14.684  1.00  0.00     0.304 A 
HETATM    7  O1  UNK     1      19.222   0.900  15.189  1.00  0.00    -0.274 OA
HETATM    8  O3  UNK     1      19.170  -0.614  13.477  1.00  0.00    -0.259 OA
HETATM    9  C5  UNK     1      19.180   1.164  16.571  1.00  0.00     0.089 A 
HETATM   10  C15 UNK     1      19.277   2.492  16.980  1.00  0.00     0.039 A 
HETATM   11  C3  UNK     1      19.043   0.123  17.485  1.00  0.00     0.000 A 
HETATM   12  C17 UNK     1      19.237   2.783  18.342  1.00  0.00     0.022 A 
HETATM   13  C16 UNK     1      19.101   1.753  19.275  1.00  0.00     0.011 A 
HETATM   14 Br1  UNK     1      19.046   2.155  21.122  1.00  0.00    -0.051 Br
HETATM   15  C11 UNK     1      19.004   0.425  18.848  1.00  0.00     0.033 A 
HETATM   16  C6  UNK     1      18.946  -1.241  16.988  1.00  0.00     0.037 A 
ENDBRANCH   3   5
BRANCH   2  17
HETATM   17  C1  UNK     1      20.299  -4.652  14.165  1.00  0.00     0.041 A 
HETATM   18  C2  UNK     1      20.006  -4.954  12.846  1.00  0.00    -0.033 A 
HETATM   19  C14 UNK     1      19.421  -3.942  11.916  1.00  0.00     0.050 C 
HETATM   20  C9  UNK     1      20.264  -6.239  12.366  1.00  0.00     0.045 A 
HETATM   21  C10 UNK     1      20.810  -7.203  13.212  1.00  0.00     0.103 A 
HETATM   22  C13 UNK     1      21.099  -6.884  14.539  1.00  0.00     0.038 A 
HETATM   23  C8  UNK     1      20.842  -5.600  15.019  1.00  0.00     0.032 A 
BRANCH  21  24
HETATM   24  N2  UNK     1      21.071  -8.512  12.725  1.00  0.00    -0.116 N 
HETATM   25  O4  UNK     1      20.343  -8.977  11.815  1.00  0.00    -0.532 OA
HETATM   26  O5  UNK     1      22.022  -9.165  13.217  1.00  0.00    -0.532 OA
ENDBRANCH  21  24
ENDBRANCH   2  17
TORSDOF 3
ENDMDL
MODEL 7
REMARK VINA RESULT:      -8.6      1.929      2.445
REMARK  3 active torsions:
REMARK  status: ('A' for Active; 'I' for Inactive)
REMARK    1  A    between atoms: C1_9  and  N1_7 
REMARK       I    between atoms: C7_15  and  N1_7 
REMARK    2  A    between atoms: C10_18  and  N2_8 
REMARK    3  A    between atoms: C4_12  and  C7_15 
ROOT
HETATM    1  O2  UNK     1      16.954  -1.836  16.929  1.00  0.00    -0.267 OA
HETATM    2  N1  UNK     1      19.193  -1.111  16.848  1.00  0.00    -0.322 N 
HETATM    3  C7  UNK     1      18.077  -1.822  16.428  1.00  0.00     0.262 C 
HETATM    4  H2  UNK     1      20.041  -1.202  16.296  1.00  0.00     0.169 HD
ENDROOT
BRANCH   3   5
HETATM    5  C4  UNK     1      18.352  -2.632  15.236  1.00  0.00     0.108 A 
HETATM    6  C12 UNK     1      17.825  -4.007  15.081  1.00  0.00     0.304 A 
HETATM    7  O1  UNK     1      18.155  -4.673  13.904  1.00  0.00    -0.274 OA
HETATM    8  O3  UNK     1      17.131  -4.536  15.943  1.00  0.00    -0.259 OA
HETATM    9  C5  UNK     1      18.951  -4.075  12.909  1.00  0.00     0.089 A 
HETATM   10  C15 UNK     1      19.227  -4.822  11.765  1.00  0.00     0.039 A 
HETATM   11  C3  UNK     1      19.436  -2.782  13.075  1.00  0.00     0.000 A 
HETATM   12  C17 UNK     1      20.011  -4.256  10.762  1.00  0.00     0.022 A 
HETATM   13  C16 UNK     1      20.509  -2.960  10.911  1.00  0.00     0.011 A 
HETATM   14 Br1  UNK     1      21.572  -2.197   9.546  1.00  0.00    -0.051 Br
HETATM   15  C11 UNK     1      20.222  -2.223  12.064  1.00  0.00     0.033 A 
HETATM   16  C6  UNK     1      19.109  -2.059  14.293  1.00  0.00     0.037 A 
ENDBRANCH   3   5
BRANCH   2  17
HETATM   17  C1  UNK     1      19.292  -0.233  17.954  1.00  0.00     0.041 A 
HETATM   18  C2  UNK     1      19.266   1.138  17.761  1.00  0.00    -0.033 A 
HETATM   19  C14 UNK     1      19.135   1.739  16.400  1.00  0.00     0.050 C 
HETATM   20  C9  UNK     1      19.365   1.986  18.865  1.00  0.00     0.045 A 
HETATM   21  C10 UNK     1      19.488   1.450  20.146  1.00  0.00     0.103 A 
HETATM   22  C13 UNK     1      19.513   0.067  20.326  1.00  0.00     0.038 A 
HETATM   23  C8  UNK     1      19.415  -0.780  19.222  1.00  0.00     0.032 A 
BRANCH  21  24
HETATM   24  N2  UNK     1      19.591   2.313  21.271  1.00  0.00    -0.116 N 
HETATM   25  O4  UNK     1      18.540   2.744  21.803  1.00  0.00    -0.532 OA
HETATM   26  O5  UNK     1      20.729   2.619  21.699  1.00  0.00    -0.532 OA
ENDBRANCH  21  24
ENDBRANCH   2  17
TORSDOF 3
ENDMDL
MODEL 8
REMARK VINA RESULT:      -8.6     18.785     21.409
REMARK  3 active torsions:
REMARK  status: ('A' for Active; 'I' for Inactive)
REMARK    1  A    between atoms: C1_9  and  N1_7 
REMARK       I    between atoms: C7_15  and  N1_7 
REMARK    2  A    between atoms: C10_18  and  N2_8 
REMARK    3  A    between atoms: C4_12  and  C7_15 
ROOT
HETATM    1  O2  UNK     1      21.282  -4.222  37.200  1.00  0.00    -0.267 OA
HETATM    2  N1  UNK     1      19.519  -5.330  36.101  1.00  0.00    -0.322 N 
HETATM    3  C7  UNK     1      20.286  -4.237  36.479  1.00  0.00     0.262 C 
HETATM    4  H2  UNK     1      18.738  -5.160  35.476  1.00  0.00     0.169 HD
ENDROOT
BRANCH   3   5
HETATM    5  C4  UNK     1      19.783  -2.983  35.907  1.00  0.00     0.108 A 
HETATM    6  C12 UNK     1      20.130  -2.551  34.534  1.00  0.00     0.304 A 
HETATM    7  O1  UNK     1      19.591  -1.341  34.104  1.00  0.00    -0.274 OA
HETATM    8  O3  UNK     1      20.856  -3.221  33.807  1.00  0.00    -0.259 OA
HETATM    9  C5  UNK     1      18.757  -0.564  34.930  1.00  0.00     0.089 A 
HETATM   10  C15 UNK     1      18.264   0.632  34.411  1.00  0.00     0.039 A 
HETATM   11  C3  UNK     1      18.443  -0.989  36.218  1.00  0.00     0.000 A 
HETATM   12  C17 UNK     1      17.435   1.421  35.205  1.00  0.00     0.022 A 
HETATM   13  C16 UNK     1      17.110   1.013  36.500  1.00  0.00     0.011 A 
HETATM   14 Br1  UNK     1      15.984   2.089  37.573  1.00  0.00    -0.051 Br
HETATM   15  C11 UNK     1      17.612  -0.190  37.006  1.00  0.00     0.033 A 
HETATM   16  C6  UNK     1      18.991  -2.248  36.696  1.00  0.00     0.037 A 
ENDBRANCH   3   5
BRANCH   2  17
HETATM   17  C1  UNK     1      19.711  -6.686  36.462  1.00  0.00     0.041 A 
HETATM   18  C2  UNK     1      20.195  -7.592  35.533  1.00  0.00    -0.033 A 
HETATM   19  C14 UNK     1      20.529  -7.186  34.135  1.00  0.00     0.050 C 
HETATM   20  C9  UNK     1      20.377  -8.924  35.909  1.00  0.00     0.045 A 
HETATM   21  C10 UNK     1      20.072  -9.330  37.208  1.00  0.00     0.103 A 
HETATM   22  C13 UNK     1      19.586  -8.406  38.132  1.00  0.00     0.038 A 
HETATM   23  C8  UNK     1      19.404  -7.074  37.756  1.00  0.00     0.032 A 
BRANCH  21  24
HETATM   24  N2  UNK     1      20.255 -10.686  37.590  1.00  0.00    -0.116 N 
HETATM   25  O4  UNK     1      19.393 -11.234  38.317  1.00  0.00    -0.532 OA
HETATM   26  O5  UNK     1      21.275 -11.297  37.190  1.00  0.00    -0.532 OA
ENDBRANCH  21  24
ENDBRANCH   2  17
TORSDOF 3
ENDMDL
MODEL 9
REMARK VINA RESULT:      -8.4     15.876     20.476
REMARK  3 active torsions:
REMARK  status: ('A' for Active; 'I' for Inactive)
REMARK    1  A    between atoms: C1_9  and  N1_7 
REMARK       I    between atoms: C7_15  and  N1_7 
REMARK    2  A    between atoms: C10_18  and  N2_8 
REMARK    3  A    between atoms: C4_12  and  C7_15 
ROOT
HETATM    1  O2  UNK     1      19.558   6.746  34.035  1.00  0.00    -0.267 OA
HETATM    2  N1  UNK     1      17.731   6.229  32.642  1.00  0.00    -0.322 N 
HETATM    3  C7  UNK     1      18.459   6.995  33.541  1.00  0.00     0.262 C 
HETATM    4  H2  UNK     1      16.844   6.602  32.319  1.00  0.00     0.169 HD
ENDROOT
BRANCH   3   5
HETATM    5  C4  UNK     1      17.767   8.239  33.897  1.00  0.00     0.108 A 
HETATM    6  C12 UNK     1      16.385   8.245  34.426  1.00  0.00     0.304 A 
HETATM    7  O1  UNK     1      15.836   9.489  34.726  1.00  0.00    -0.274 OA
HETATM    8  O3  UNK     1      15.749   7.209  34.593  1.00  0.00    -0.259 OA
HETATM    9  C5  UNK     1      16.556  10.684  34.538  1.00  0.00     0.089 A 
HETATM   10  C15 UNK     1      15.923  11.880  34.868  1.00  0.00     0.039 A 
HETATM   11  C3  UNK     1      17.855  10.655  34.040  1.00  0.00     0.000 A 
HETATM   12  C17 UNK     1      16.611  13.079  34.694  1.00  0.00     0.022 A 
HETATM   13  C16 UNK     1      17.914  13.072  34.194  1.00  0.00     0.011 A 
HETATM   14 Br1  UNK     1      18.844  14.702  33.960  1.00  0.00    -0.051 Br
HETATM   15  C11 UNK     1      18.537  11.862  33.868  1.00  0.00     0.033 A 
HETATM   16  C6  UNK     1      18.456   9.372  33.716  1.00  0.00     0.037 A 
ENDBRANCH   3   5
BRANCH   2  17
HETATM   17  C1  UNK     1      18.089   4.977  32.085  1.00  0.00     0.041 A 
HETATM   18  C2  UNK     1      18.626   4.911  30.810  1.00  0.00    -0.033 A 
HETATM   19  C14 UNK     1      18.846   6.135  29.982  1.00  0.00     0.050 C 
HETATM   20  C9  UNK     1      18.973   3.668  30.278  1.00  0.00     0.045 A 
HETATM   21  C10 UNK     1      18.778   2.510  31.030  1.00  0.00     0.103 A 
HETATM   22  C13 UNK     1      18.237   2.592  32.313  1.00  0.00     0.038 A 
HETATM   23  C8  UNK     1      17.890   3.835  32.844  1.00  0.00     0.032 A 
BRANCH  21  24
HETATM   24  N2  UNK     1      19.130   1.244  30.489  1.00  0.00    -0.116 N 
HETATM   25  O4  UNK     1      19.053   0.228  31.221  1.00  0.00    -0.532 OA
HETATM   26  O5  UNK     1      19.507   1.177  29.294  1.00  0.00    -0.532 OA
ENDBRANCH  21  24
ENDBRANCH   2  17
TORSDOF 3
ENDMDL
MODEL 10
REMARK VINA RESULT:      -8.3     15.918     19.401
REMARK  3 active torsions:
REMARK  status: ('A' for Active; 'I' for Inactive)
REMARK    1  A    between atoms: C1_9  and  N1_7 
REMARK       I    between atoms: C7_15  and  N1_7 
REMARK    2  A    between atoms: C10_18  and  N2_8 
REMARK    3  A    between atoms: C4_12  and  C7_15 
ROOT
HETATM    1  O2  UNK     1      19.187   5.904  33.203  1.00  0.00    -0.267 OA
HETATM    2  N1  UNK     1      17.479   4.679  32.142  1.00  0.00    -0.322 N 
HETATM    3  C7  UNK     1      18.070   5.805  32.699  1.00  0.00     0.262 C 
HETATM    4  H2  UNK     1      16.550   4.784  31.747  1.00  0.00     0.169 HD
ENDROOT
BRANCH   3   5
HETATM    5  C4  UNK     1      17.191   6.978  32.640  1.00  0.00     0.108 A 
HETATM    6  C12 UNK     1      16.766   7.577  31.355  1.00  0.00     0.304 A 
HETATM    7  O1  UNK     1      15.931   8.688  31.429  1.00  0.00    -0.274 OA
HETATM    8  O3  UNK     1      17.128   7.121  30.275  1.00  0.00    -0.259 OA
HETATM    9  C5  UNK     1      15.509   9.220  32.663  1.00  0.00     0.089 A 
HETATM   10  C15 UNK     1      14.673  10.335  32.636  1.00  0.00     0.039 A 
HETATM   11  C3  UNK     1      15.921   8.641  33.859  1.00  0.00     0.000 A 
HETATM   12  C17 UNK     1      14.239  10.882  33.841  1.00  0.00     0.022 A 
HETATM   13  C16 UNK     1      14.642  10.317  35.052  1.00  0.00     0.011 A 
HETATM   14 Br1  UNK     1      14.049  11.064  36.685  1.00  0.00    -0.051 Br
HETATM   15  C11 UNK     1      15.481   9.198  35.063  1.00  0.00     0.033 A 
HETATM   16  C6  UNK     1      16.794   7.479  33.815  1.00  0.00     0.037 A 
ENDBRANCH   3   5
BRANCH   2  17
HETATM   17  C1  UNK     1      18.033   3.381  32.026  1.00  0.00     0.041 A 
HETATM   18  C2  UNK     1      18.598   2.968  30.831  1.00  0.00    -0.033 A 
HETATM   19  C14 UNK     1      18.647   3.859  29.633  1.00  0.00     0.050 C 
HETATM   20  C9  UNK     1      19.138   1.685  30.738  1.00  0.00     0.045 A 
HETATM   21  C10 UNK     1      19.105   0.832  31.842  1.00  0.00     0.103 A 
HETATM   22  C13 UNK     1      18.533   1.262  33.038  1.00  0.00     0.038 A 
HETATM   23  C8  UNK     1      17.992   2.545  33.132  1.00  0.00     0.032 A 
BRANCH  21  24
HETATM   24  N2  UNK     1      19.653  -0.475  31.747  1.00  0.00    -0.116 N 
HETATM   25  O4  UNK     1      20.825  -0.613  31.322  1.00  0.00    -0.532 OA
HETATM   26  O5  UNK     1      18.950  -1.455  32.092  1.00  0.00    -0.532 OA
ENDBRANCH  21  24
ENDBRANCH   2  17
TORSDOF 3
ENDMDL
