MODEL 1
REMARK VINA RESULT:      -9.3      0.000      0.000
REMARK  5 active torsions:
REMARK  status: ('A' for Active; 'I' for Inactive)
REMARK    1  A    between atoms: C8_15  and  O2_3 
REMARK       I    between atoms: C10_17  and  N1_7 
REMARK    2  A    between atoms: C5_12  and  N1_7 
REMARK    3  A    between atoms: C1_8  and  C3_10 
REMARK    4  A    between atoms: C2_9  and  C8_15 
REMARK    5  A    between atoms: C10_17  and  C9_16 
ROOT
HETATM    1  O4  UNK     1      21.421  -4.335  36.876  1.00  0.00    -0.267 OA
HETATM    2  N1  UNK     1      19.172  -5.008  37.102  1.00  0.00    -0.316 N 
HETATM    3  C10 UNK     1      20.210  -4.130  36.827  1.00  0.00     0.262 C 
HETATM    4  H3  UNK     1      18.210  -4.686  37.035  1.00  0.00     0.169 HD
ENDROOT
BRANCH   2   5
HETATM    5  C5  UNK     1      19.304  -6.343  37.499  1.00  0.00     0.094 A 
HETATM    6  C2  UNK     1      18.973  -7.491  36.855  1.00  0.00     0.080 A 
HETATM    7  C1  UNK     1      19.289  -8.634  37.646  1.00  0.00    -0.027 A 
HETATM    8  C4  UNK     1      19.847  -8.286  38.856  1.00  0.00    -0.012 A 
HETATM    9  S1  UNK     1      19.988  -6.589  39.036  1.00  0.00    -0.076 SA
HETATM   10  C7  UNK     1      20.311  -9.166  39.952  1.00  0.00     0.057 C 
BRANCH   6  11
HETATM   11  C8  UNK     1      18.380  -7.521  35.540  1.00  0.00     0.296 C 
HETATM   12  O3  UNK     1      17.244  -7.957  35.305  1.00  0.00    -0.259 OA
BRANCH  11  13
HETATM   13  O2  UNK     1      19.194  -7.017  34.549  1.00  0.00    -0.322 OA
HETATM   14  C19 UNK     1      20.536  -7.516  34.497  1.00  0.00     0.213 C 
ENDBRANCH  11  13
ENDBRANCH   6  11
BRANCH   7  15
HETATM   15  C3  UNK     1      19.047 -10.035  37.218  1.00  0.00     0.036 C 
HETATM   16  C6  UNK     1      20.324 -10.737  36.757  1.00  0.00     0.010 C 
ENDBRANCH   7  15
ENDBRANCH   2   5
BRANCH   3  17
HETATM   17  C9  UNK     1      19.716  -2.805  36.436  1.00  0.00     0.108 A 
HETATM   18  C12 UNK     1      19.016  -2.137  37.361  1.00  0.00     0.037 A 
HETATM   19  C11 UNK     1      18.484  -0.816  37.067  1.00  0.00    -0.001 A 
HETATM   20  C13 UNK     1      18.716  -0.262  35.812  1.00  0.00     0.089 A 
HETATM   21  C15 UNK     1      17.749  -0.084  38.001  1.00  0.00     0.014 A 
HETATM   22  O1  UNK     1      19.453  -0.969  34.842  1.00  0.00    -0.274 OA
HETATM   23  C16 UNK     1      18.233   0.999  35.466  1.00  0.00     0.038 A 
HETATM   24  C14 UNK     1      19.975  -2.234  35.094  1.00  0.00     0.304 A 
HETATM   25  O5  UNK     1      20.614  -2.843  34.243  1.00  0.00    -0.259 OA
HETATM   26  C18 UNK     1      17.499   1.722  36.405  1.00  0.00     0.003 A 
HETATM   27  C17 UNK     1      17.258   1.182  37.670  1.00  0.00     0.001 A 
ENDBRANCH   3  17
TORSDOF 5
ENDMDL
MODEL 2
REMARK VINA RESULT:      -9.3      1.625      7.669
REMARK  5 active torsions:
REMARK  status: ('A' for Active; 'I' for Inactive)
REMARK    1  A    between atoms: C8_15  and  O2_3 
REMARK       I    between atoms: C10_17  and  N1_7 
REMARK    2  A    between atoms: C5_12  and  N1_7 
REMARK    3  A    between atoms: C1_8  and  C3_10 
REMARK    4  A    between atoms: C2_9  and  C8_15 
REMARK    5  A    between atoms: C10_17  and  C9_16 
ROOT
HETATM    1  O4  UNK     1      21.302  -3.812  37.216  1.00  0.00    -0.267 OA
HETATM    2  N1  UNK     1      19.035  -3.721  36.569  1.00  0.00    -0.316 N 
HETATM    3  C10 UNK     1      20.233  -4.335  36.907  1.00  0.00     0.262 C 
HETATM    4  H3  UNK     1      18.232  -4.291  36.316  1.00  0.00     0.169 HD
ENDROOT
BRANCH   2   5
HETATM    5  C5  UNK     1      18.801  -2.344  36.511  1.00  0.00     0.094 A 
HETATM    6  C2  UNK     1      19.082  -1.442  35.535  1.00  0.00     0.080 A 
HETATM    7  C1  UNK     1      18.662  -0.133  35.909  1.00  0.00    -0.027 A 
HETATM    8  C4  UNK     1      18.082  -0.113  37.158  1.00  0.00    -0.012 A 
HETATM    9  S1  UNK     1      18.045  -1.668  37.875  1.00  0.00    -0.076 SA
HETATM   10  C7  UNK     1      17.520   1.036  37.903  1.00  0.00     0.057 C 
BRANCH   6  11
HETATM   11  C8  UNK     1      19.721  -1.793  34.291  1.00  0.00     0.296 C 
HETATM   12  O3  UNK     1      20.886  -2.206  34.205  1.00  0.00    -0.259 OA
BRANCH  11  13
HETATM   13  O2  UNK     1      18.917  -1.629  33.184  1.00  0.00    -0.322 OA
HETATM   14  C19 UNK     1      19.573  -1.334  31.945  1.00  0.00     0.213 C 
ENDBRANCH  11  13
ENDBRANCH   6  11
BRANCH   7  15
HETATM   15  C3  UNK     1      18.829   1.070  35.055  1.00  0.00     0.036 C 
HETATM   16  C6  UNK     1      17.598   1.353  34.192  1.00  0.00     0.010 C 
ENDBRANCH   7  15
ENDBRANCH   2   5
BRANCH   3  17
HETATM   17  C9  UNK     1      20.128  -5.798  36.868  1.00  0.00     0.108 A 
HETATM   18  C12 UNK     1      20.004  -6.415  38.049  1.00  0.00     0.037 A 
HETATM   19  C11 UNK     1      19.894  -7.863  38.113  1.00  0.00    -0.001 A 
HETATM   20  C13 UNK     1      19.919  -8.593  36.928  1.00  0.00     0.089 A 
HETATM   21  C15 UNK     1      19.762  -8.548  39.323  1.00  0.00     0.014 A 
HETATM   22  O1  UNK     1      20.049  -7.938  35.688  1.00  0.00    -0.274 OA
HETATM   23  C16 UNK     1      19.818  -9.982  36.920  1.00  0.00     0.038 A 
HETATM   24  C14 UNK     1      20.157  -6.554  35.595  1.00  0.00     0.304 A 
HETATM   25  O5  UNK     1      20.272  -5.993  34.510  1.00  0.00    -0.259 OA
HETATM   26  C18 UNK     1      19.689 -10.658  38.132  1.00  0.00     0.003 A 
HETATM   27  C17 UNK     1      19.661  -9.943  39.331  1.00  0.00     0.001 A 
ENDBRANCH   3  17
TORSDOF 5
ENDMDL
MODEL 3
REMARK VINA RESULT:      -9.2      8.747     12.964
REMARK  5 active torsions:
REMARK  status: ('A' for Active; 'I' for Inactive)
REMARK    1  A    between atoms: C8_15  and  O2_3 
REMARK       I    between atoms: C10_17  and  N1_7 
REMARK    2  A    between atoms: C5_12  and  N1_7 
REMARK    3  A    between atoms: C1_8  and  C3_10 
REMARK    4  A    between atoms: C2_9  and  C8_15 
REMARK    5  A    between atoms: C10_17  and  C9_16 
ROOT
HETATM    1  O4  UNK     1      17.570   3.840  32.877  1.00  0.00    -0.267 OA
HETATM    2  N1  UNK     1      19.048   5.213  31.654  1.00  0.00    -0.316 N 
HETATM    3  C10 UNK     1      18.362   4.046  31.960  1.00  0.00     0.262 C 
HETATM    4  H3  UNK     1      19.690   5.227  30.867  1.00  0.00     0.169 HD
ENDROOT
BRANCH   2   5
HETATM    5  C5  UNK     1      18.968   6.423  32.351  1.00  0.00     0.094 A 
HETATM    6  C2  UNK     1      18.000   7.376  32.355  1.00  0.00     0.080 A 
HETATM    7  C1  UNK     1      18.342   8.452  33.223  1.00  0.00    -0.027 A 
HETATM    8  C4  UNK     1      19.560   8.255  33.836  1.00  0.00    -0.012 A 
HETATM    9  S1  UNK     1      20.286   6.778  33.364  1.00  0.00    -0.076 SA
HETATM   10  C7  UNK     1      20.266   9.128  34.800  1.00  0.00     0.057 C 
BRANCH   6  11
HETATM   11  C8  UNK     1      16.792   7.283  31.571  1.00  0.00     0.296 C 
HETATM   12  O3  UNK     1      16.630   7.851  30.482  1.00  0.00    -0.259 OA
BRANCH  11  13
HETATM   13  O2  UNK     1      15.815   6.497  32.142  1.00  0.00    -0.322 OA
HETATM   14  C19 UNK     1      14.516   7.084  32.288  1.00  0.00     0.213 C 
ENDBRANCH  11  13
ENDBRANCH   6  11
BRANCH   7  15
HETATM   15  C3  UNK     1      17.487   9.646  33.444  1.00  0.00     0.036 C 
HETATM   16  C6  UNK     1      16.467   9.439  34.564  1.00  0.00     0.010 C 
ENDBRANCH   7  15
ENDBRANCH   2   5
BRANCH   3  17
HETATM   17  C9  UNK     1      18.680   2.964  31.021  1.00  0.00     0.108 A 
HETATM   18  C12 UNK     1      19.057   1.801  31.564  1.00  0.00     0.037 A 
HETATM   19  C11 UNK     1      19.392   0.669  30.715  1.00  0.00    -0.001 A 
HETATM   20  C13 UNK     1      19.314   0.817  29.334  1.00  0.00     0.089 A 
HETATM   21  C15 UNK     1      19.790  -0.564  31.238  1.00  0.00     0.014 A 
HETATM   22  O1  UNK     1      18.917   2.045  28.767  1.00  0.00    -0.274 OA
HETATM   23  C16 UNK     1      19.623  -0.227  28.464  1.00  0.00     0.038 A 
HETATM   24  C14 UNK     1      18.590   3.145  29.554  1.00  0.00     0.304 A 
HETATM   25  O5  UNK     1      18.246   4.210  29.052  1.00  0.00    -0.259 OA
HETATM   26  C18 UNK     1      20.019  -1.453  28.995  1.00  0.00     0.003 A 
HETATM   27  C17 UNK     1      20.103  -1.621  30.379  1.00  0.00     0.001 A 
ENDBRANCH   3  17
TORSDOF 5
ENDMDL
MODEL 4
REMARK VINA RESULT:      -8.6      7.023      9.980
REMARK  5 active torsions:
REMARK  status: ('A' for Active; 'I' for Inactive)
REMARK    1  A    between atoms: C8_15  and  O2_3 
REMARK       I    between atoms: C10_17  and  N1_7 
REMARK    2  A    between atoms: C5_12  and  N1_7 
REMARK    3  A    between atoms: C1_8  and  C3_10 
REMARK    4  A    between atoms: C2_9  and  C8_15 
REMARK    5  A    between atoms: C10_17  and  C9_16 
ROOT
HETATM    1  O4  UNK     1      19.550   5.012  31.218  1.00  0.00    -0.267 OA
HETATM    2  N1  UNK     1      18.054   3.496  32.233  1.00  0.00    -0.316 N 
HETATM    3  C10 UNK     1      18.605   4.739  31.956  1.00  0.00     0.262 C 
HETATM    4  H3  UNK     1      17.278   3.425  32.886  1.00  0.00     0.169 HD
ENDROOT
BRANCH   2   5
HETATM    5  C5  UNK     1      18.478   2.271  31.710  1.00  0.00     0.094 A 
HETATM    6  C2  UNK     1      18.604   1.056  32.302  1.00  0.00     0.080 A 
HETATM    7  C1  UNK     1      19.076   0.080  31.377  1.00  0.00    -0.027 A 
HETATM    8  C4  UNK     1      19.284   0.613  30.124  1.00  0.00    -0.012 A 
HETATM    9  S1  UNK     1      18.910   2.283  30.066  1.00  0.00    -0.076 SA
HETATM   10  C7  UNK     1      19.764  -0.060  28.897  1.00  0.00     0.057 C 
BRANCH   6  11
HETATM   11  C8  UNK     1      18.292   0.813  33.689  1.00  0.00     0.296 C 
HETATM   12  O3  UNK     1      19.097   0.344  34.506  1.00  0.00    -0.259 OA
BRANCH  11  13
HETATM   13  O2  UNK     1      17.003   1.151  34.039  1.00  0.00    -0.322 OA
HETATM   14  C19 UNK     1      16.327   0.272  34.946  1.00  0.00     0.213 C 
ENDBRANCH  11  13
ENDBRANCH   6  11
BRANCH   7  15
HETATM   15  C3  UNK     1      19.316  -1.345  31.721  1.00  0.00     0.036 C 
HETATM   16  C6  UNK     1      20.803  -1.672  31.861  1.00  0.00     0.010 C 
ENDBRANCH   7  15
ENDBRANCH   2   5
BRANCH   3  17
HETATM   17  C9  UNK     1      17.916   5.816  32.677  1.00  0.00     0.108 A 
HETATM   18  C12 UNK     1      16.701   6.147  32.225  1.00  0.00     0.037 A 
HETATM   19  C11 UNK     1      15.939   7.203  32.873  1.00  0.00    -0.001 A 
HETATM   20  C13 UNK     1      16.495   7.859  33.967  1.00  0.00     0.089 A 
HETATM   21  C15 UNK     1      14.667   7.581  32.436  1.00  0.00     0.014 A 
HETATM   22  O1  UNK     1      17.775   7.506  34.438  1.00  0.00    -0.274 OA
HETATM   23  C16 UNK     1      15.818   8.879  34.632  1.00  0.00     0.038 A 
HETATM   24  C14 UNK     1      18.528   6.501  33.839  1.00  0.00     0.304 A 
HETATM   25  O5  UNK     1      19.641   6.202  34.255  1.00  0.00    -0.259 OA
HETATM   26  C18 UNK     1      14.551   9.251  34.188  1.00  0.00     0.003 A 
HETATM   27  C17 UNK     1      13.976   8.603  33.093  1.00  0.00     0.001 A 
ENDBRANCH   3  17
TORSDOF 5
ENDMDL
MODEL 5
REMARK VINA RESULT:      -8.5     19.739     21.521
REMARK  5 active torsions:
REMARK  status: ('A' for Active; 'I' for Inactive)
REMARK    1  A    between atoms: C8_15  and  O2_3 
REMARK       I    between atoms: C10_17  and  N1_7 
REMARK    2  A    between atoms: C5_12  and  N1_7 
REMARK    3  A    between atoms: C1_8  and  C3_10 
REMARK    4  A    between atoms: C2_9  and  C8_15 
REMARK    5  A    between atoms: C10_17  and  C9_16 
ROOT
HETATM    1  O4  UNK     1      17.792  -2.188  15.938  1.00  0.00    -0.267 OA
HETATM    2  N1  UNK     1      19.738  -1.487  14.803  1.00  0.00    -0.316 N 
HETATM    3  C10 UNK     1      18.766  -1.452  15.793  1.00  0.00     0.262 C 
HETATM    4  H3  UNK     1      20.481  -0.793  14.804  1.00  0.00     0.169 HD
ENDROOT
BRANCH   2   5
HETATM    5  C5  UNK     1      19.802  -2.397  13.743  1.00  0.00     0.094 A 
HETATM    6  C2  UNK     1      20.213  -3.691  13.716  1.00  0.00     0.080 A 
HETATM    7  C1  UNK     1      20.106  -4.237  12.404  1.00  0.00    -0.027 A 
HETATM    8  C4  UNK     1      19.617  -3.319  11.501  1.00  0.00    -0.012 A 
HETATM    9  S1  UNK     1      19.288  -1.807  12.234  1.00  0.00    -0.076 SA
HETATM   10  C7  UNK     1      19.359  -3.487  10.054  1.00  0.00     0.057 C 
BRANCH   6  11
HETATM   11  C8  UNK     1      20.689  -4.397  14.880  1.00  0.00     0.296 C 
HETATM   12  O3  UNK     1      19.974  -5.114  15.594  1.00  0.00    -0.259 OA
BRANCH  11  13
HETATM   13  O2  UNK     1      22.029  -4.207  15.139  1.00  0.00    -0.322 OA
HETATM   14  C19 UNK     1      22.372  -3.680  16.426  1.00  0.00     0.213 C 
ENDBRANCH  11  13
ENDBRANCH   6  11
BRANCH   7  15
HETATM   15  C3  UNK     1      20.478  -5.630  12.050  1.00  0.00     0.036 C 
HETATM   16  C6  UNK     1      19.321  -6.612  12.235  1.00  0.00     0.010 C 
ENDBRANCH   7  15
ENDBRANCH   2   5
BRANCH   3  17
HETATM   17  C9  UNK     1      19.001  -0.366  16.752  1.00  0.00     0.108 A 
HETATM   18  C12 UNK     1      18.985  -0.706  18.046  1.00  0.00     0.037 A 
HETATM   19  C11 UNK     1      19.208   0.300  19.072  1.00  0.00    -0.001 A 
HETATM   20  C13 UNK     1      19.438   1.616  18.685  1.00  0.00     0.089 A 
HETATM   21  C15 UNK     1      19.201  -0.010  20.434  1.00  0.00     0.014 A 
HETATM   22  O1  UNK     1      19.453   1.969  17.321  1.00  0.00    -0.274 OA
HETATM   23  C16 UNK     1      19.658   2.628  19.617  1.00  0.00     0.038 A 
HETATM   24  C14 UNK     1      19.243   1.028  16.317  1.00  0.00     0.304 A 
HETATM   25  O5  UNK     1      19.257   1.345  15.132  1.00  0.00    -0.259 OA
HETATM   26  C18 UNK     1      19.648   2.311  20.974  1.00  0.00     0.003 A 
HETATM   27  C17 UNK     1      19.420   0.994  21.382  1.00  0.00     0.001 A 
ENDBRANCH   3  17
TORSDOF 5
ENDMDL
MODEL 6
REMARK VINA RESULT:      -8.5      1.789      2.470
REMARK  5 active torsions:
REMARK  status: ('A' for Active; 'I' for Inactive)
REMARK    1  A    between atoms: C8_15  and  O2_3 
REMARK       I    between atoms: C10_17  and  N1_7 
REMARK    2  A    between atoms: C5_12  and  N1_7 
REMARK    3  A    between atoms: C1_8  and  C3_10 
REMARK    4  A    between atoms: C2_9  and  C8_15 
REMARK    5  A    between atoms: C10_17  and  C9_16 
ROOT
HETATM    1  O4  UNK     1      21.588  -4.422  37.199  1.00  0.00    -0.267 OA
HETATM    2  N1  UNK     1      19.940  -5.538  35.933  1.00  0.00    -0.316 N 
HETATM    3  C10 UNK     1      20.590  -4.442  36.482  1.00  0.00     0.262 C 
HETATM    4  H3  UNK     1      19.106  -5.397  35.369  1.00  0.00     0.169 HD
ENDROOT
BRANCH   2   5
HETATM    5  C5  UNK     1      20.305  -6.879  36.093  1.00  0.00     0.094 A 
HETATM    6  C2  UNK     1      20.241  -7.685  37.183  1.00  0.00     0.080 A 
HETATM    7  C1  UNK     1      20.726  -8.992  36.885  1.00  0.00    -0.027 A 
HETATM    8  C4  UNK     1      21.135  -9.104  35.574  1.00  0.00    -0.012 A 
HETATM    9  S1  UNK     1      20.933  -7.641  34.709  1.00  0.00    -0.076 SA
HETATM   10  C7  UNK     1      21.694 -10.282  34.874  1.00  0.00     0.057 C 
BRANCH   6  11
HETATM   11  C8  UNK     1      19.741  -7.250  38.464  1.00  0.00     0.296 C 
HETATM   12  O3  UNK     1      18.621  -7.544  38.904  1.00  0.00    -0.259 OA
BRANCH  11  13
HETATM   13  O2  UNK     1      20.627  -6.469  39.173  1.00  0.00    -0.322 OA
HETATM   14  C19 UNK     1      21.904  -7.045  39.471  1.00  0.00     0.213 C 
ENDBRANCH  11  13
ENDBRANCH   6  11
BRANCH   7  15
HETATM   15  C3  UNK     1      20.785 -10.102  37.869  1.00  0.00     0.036 C 
HETATM   16  C6  UNK     1      19.513 -10.950  37.875  1.00  0.00     0.010 C 
ENDBRANCH   7  15
ENDBRANCH   2   5
BRANCH   3  17
HETATM   17  C9  UNK     1      19.940  -3.179  36.112  1.00  0.00     0.108 A 
HETATM   18  C12 UNK     1      19.225  -2.579  37.070  1.00  0.00     0.037 A 
HETATM   19  C11 UNK     1      18.543  -1.323  36.799  1.00  0.00    -0.001 A 
HETATM   20  C13 UNK     1      18.649  -0.760  35.531  1.00  0.00     0.089 A 
HETATM   21  C15 UNK     1      17.787  -0.661  37.769  1.00  0.00     0.014 A 
HETATM   22  O1  UNK     1      19.403  -1.397  34.526  1.00  0.00    -0.274 OA
HETATM   23  C16 UNK     1      18.020   0.440  35.206  1.00  0.00     0.038 A 
HETATM   24  C14 UNK     1      20.066  -2.599  34.755  1.00  0.00     0.304 A 
HETATM   25  O5  UNK     1      20.720  -3.146  33.874  1.00  0.00    -0.259 OA
HETATM   26  C18 UNK     1      17.266   1.093  36.179  1.00  0.00     0.003 A 
HETATM   27  C17 UNK     1      17.149   0.544  37.458  1.00  0.00     0.001 A 
ENDBRANCH   3  17
TORSDOF 5
ENDMDL
MODEL 7
REMARK VINA RESULT:      -8.4      8.358     12.543
REMARK  5 active torsions:
REMARK  status: ('A' for Active; 'I' for Inactive)
REMARK    1  A    between atoms: C8_15  and  O2_3 
REMARK       I    between atoms: C10_17  and  N1_7 
REMARK    2  A    between atoms: C5_12  and  N1_7 
REMARK    3  A    between atoms: C1_8  and  C3_10 
REMARK    4  A    between atoms: C2_9  and  C8_15 
REMARK    5  A    between atoms: C10_17  and  C9_16 
ROOT
HETATM    1  O4  UNK     1      17.778   3.119  33.315  1.00  0.00    -0.267 OA
HETATM    2  N1  UNK     1      18.175   4.710  31.619  1.00  0.00    -0.316 N 
HETATM    3  C10 UNK     1      18.142   3.445  32.188  1.00  0.00     0.262 C 
HETATM    4  H3  UNK     1      18.523   4.827  30.672  1.00  0.00     0.169 HD
ENDROOT
BRANCH   2   5
HETATM    5  C5  UNK     1      17.786   5.902  32.239  1.00  0.00     0.094 A 
HETATM    6  C2  UNK     1      18.419   6.657  33.173  1.00  0.00     0.080 A 
HETATM    7  C1  UNK     1      17.644   7.801  33.520  1.00  0.00    -0.027 A 
HETATM    8  C4  UNK     1      16.457   7.852  32.824  1.00  0.00    -0.012 A 
HETATM    9  S1  UNK     1      16.279   6.525  31.758  1.00  0.00    -0.076 SA
HETATM   10  C7  UNK     1      15.383   8.868  32.893  1.00  0.00     0.057 C 
BRANCH   6  11
HETATM   11  C8  UNK     1      19.708   6.320  33.725  1.00  0.00     0.296 C 
HETATM   12  O3  UNK     1      19.877   5.490  34.630  1.00  0.00    -0.259 OA
BRANCH  11  13
HETATM   13  O2  UNK     1      20.757   7.008  33.155  1.00  0.00    -0.322 OA
HETATM   14  C19 UNK     1      21.722   6.234  32.431  1.00  0.00     0.213 C 
ENDBRANCH  11  13
ENDBRANCH   6  11
BRANCH   7  15
HETATM   15  C3  UNK     1      18.066   8.820  34.515  1.00  0.00     0.036 C 
HETATM   16  C6  UNK     1      18.770  10.015  33.870  1.00  0.00     0.010 C 
ENDBRANCH   7  15
ENDBRANCH   2   5
BRANCH   3  17
HETATM   17  C9  UNK     1      18.621   2.415  31.257  1.00  0.00     0.108 A 
HETATM   18  C12 UNK     1      18.972   1.244  31.800  1.00  0.00     0.037 A 
HETATM   19  C11 UNK     1      19.459   0.162  30.960  1.00  0.00    -0.001 A 
HETATM   20  C13 UNK     1      19.553   0.367  29.587  1.00  0.00     0.089 A 
HETATM   21  C15 UNK     1      19.836  -1.077  31.483  1.00  0.00     0.014 A 
HETATM   22  O1  UNK     1      19.183   1.602  29.021  1.00  0.00    -0.274 OA
HETATM   23  C16 UNK     1      20.013  -0.628  28.726  1.00  0.00     0.038 A 
HETATM   24  C14 UNK     1      18.713   2.656  29.799  1.00  0.00     0.304 A 
HETATM   25  O5  UNK     1      18.394   3.728  29.297  1.00  0.00    -0.259 OA
HETATM   26  C18 UNK     1      20.388  -1.861  29.257  1.00  0.00     0.003 A 
HETATM   27  C17 UNK     1      20.300  -2.085  30.633  1.00  0.00     0.001 A 
ENDBRANCH   3  17
TORSDOF 5
ENDMDL
MODEL 8
REMARK VINA RESULT:      -8.0      6.529      8.769
REMARK  5 active torsions:
REMARK  status: ('A' for Active; 'I' for Inactive)
REMARK    1  A    between atoms: C8_15  and  O2_3 
REMARK       I    between atoms: C10_17  and  N1_7 
REMARK    2  A    between atoms: C5_12  and  N1_7 
REMARK    3  A    between atoms: C1_8  and  C3_10 
REMARK    4  A    between atoms: C2_9  and  C8_15 
REMARK    5  A    between atoms: C10_17  and  C9_16 
ROOT
HETATM    1  O4  UNK     1      25.818  -9.031  39.520  1.00  0.00    -0.267 OA
HETATM    2  N1  UNK     1      24.759  -7.711  37.877  1.00  0.00    -0.316 N 
HETATM    3  C10 UNK     1      25.771  -8.069  38.756  1.00  0.00     0.262 C 
HETATM    4  H3  UNK     1      24.855  -6.868  37.317  1.00  0.00     0.169 HD
ENDROOT
BRANCH   2   5
HETATM    5  C5  UNK     1      23.556  -8.397  37.682  1.00  0.00     0.094 A 
HETATM    6  C2  UNK     1      22.343  -8.234  38.270  1.00  0.00     0.080 A 
HETATM    7  C1  UNK     1      21.394  -9.165  37.756  1.00  0.00    -0.027 A 
HETATM    8  C4  UNK     1      21.944  -9.989  36.799  1.00  0.00    -0.012 A 
HETATM    9  S1  UNK     1      23.597  -9.639  36.522  1.00  0.00    -0.076 SA
HETATM   10  C7  UNK     1      21.300 -11.076  36.029  1.00  0.00     0.057 C 
BRANCH   6  11
HETATM   11  C8  UNK     1      22.078  -7.240  39.280  1.00  0.00     0.296 C 
HETATM   12  O3  UNK     1      22.620  -7.226  40.395  1.00  0.00    -0.259 OA
BRANCH  11  13
HETATM   13  O2  UNK     1      21.156  -6.289  38.900  1.00  0.00    -0.322 OA
HETATM   14  C19 UNK     1      21.621  -5.251  38.028  1.00  0.00     0.213 C 
ENDBRANCH  11  13
ENDBRANCH   6  11
BRANCH   7  15
HETATM   15  C3  UNK     1      19.979  -9.240  38.200  1.00  0.00     0.036 C 
HETATM   16  C6  UNK     1      19.029  -8.496  37.260  1.00  0.00     0.010 C 
ENDBRANCH   7  15
ENDBRANCH   2   5
BRANCH   3  17
HETATM   17  C9  UNK     1      26.895  -7.127  38.709  1.00  0.00     0.108 A 
HETATM   18  C12 UNK     1      28.113  -7.665  38.582  1.00  0.00     0.037 A 
HETATM   19  C11 UNK     1      29.290  -6.813  38.526  1.00  0.00    -0.001 A 
HETATM   20  C13 UNK     1      29.126  -5.434  38.606  1.00  0.00     0.089 A 
HETATM   21  C15 UNK     1      30.581  -7.331  38.394  1.00  0.00     0.014 A 
HETATM   22  O1  UNK     1      27.841  -4.872  38.740  1.00  0.00    -0.274 OA
HETATM   23  C16 UNK     1      30.212  -4.561  38.560  1.00  0.00     0.038 A 
HETATM   24  C14 UNK     1      26.697  -5.662  38.796  1.00  0.00     0.304 A 
HETATM   25  O5  UNK     1      25.582  -5.165  38.914  1.00  0.00    -0.259 OA
HETATM   26  C18 UNK     1      31.496  -5.087  38.429  1.00  0.00     0.003 A 
HETATM   27  C17 UNK     1      31.680  -6.469  38.346  1.00  0.00     0.001 A 
ENDBRANCH   3  17
TORSDOF 5
ENDMDL
MODEL 9
REMARK VINA RESULT:      -7.9     12.052     15.211
REMARK  5 active torsions:
REMARK  status: ('A' for Active; 'I' for Inactive)
REMARK    1  A    between atoms: C8_15  and  O2_3 
REMARK       I    between atoms: C10_17  and  N1_7 
REMARK    2  A    between atoms: C5_12  and  N1_7 
REMARK    3  A    between atoms: C1_8  and  C3_10 
REMARK    4  A    between atoms: C2_9  and  C8_15 
REMARK    5  A    between atoms: C10_17  and  C9_16 
ROOT
HETATM    1  O4  UNK     1      17.727  11.334  33.462  1.00  0.00    -0.267 OA
HETATM    2  N1  UNK     1      16.959   9.239  34.226  1.00  0.00    -0.316 N 
HETATM    3  C10 UNK     1      16.983  10.623  34.133  1.00  0.00     0.262 C 
HETATM    4  H3  UNK     1      16.290   8.788  34.845  1.00  0.00     0.169 HD
ENDROOT
BRANCH   2   5
HETATM    5  C5  UNK     1      17.805   8.352  33.551  1.00  0.00     0.094 A 
HETATM    6  C2  UNK     1      17.600   7.626  32.423  1.00  0.00     0.080 A 
HETATM    7  C1  UNK     1      18.750   6.851  32.095  1.00  0.00    -0.027 A 
HETATM    8  C4  UNK     1      19.771   7.033  33.000  1.00  0.00    -0.012 A 
HETATM    9  S1  UNK     1      19.344   8.135  34.239  1.00  0.00    -0.076 SA
HETATM   10  C7  UNK     1      21.117   6.418  33.017  1.00  0.00     0.057 C 
BRANCH   6  11
HETATM   11  C8  UNK     1      16.369   7.656  31.672  1.00  0.00     0.296 C 
HETATM   12  O3  UNK     1      16.155   8.427  30.725  1.00  0.00    -0.259 OA
BRANCH  11  13
HETATM   13  O2  UNK     1      15.432   6.740  32.100  1.00  0.00    -0.322 OA
HETATM   14  C19 UNK     1      14.065   7.171  32.113  1.00  0.00     0.213 C 
ENDBRANCH  11  13
ENDBRANCH   6  11
BRANCH   7  15
HETATM   15  C3  UNK     1      18.838   5.951  30.916  1.00  0.00     0.036 C 
HETATM   16  C6  UNK     1      18.511   4.498  31.261  1.00  0.00     0.010 C 
ENDBRANCH   7  15
ENDBRANCH   2   5
BRANCH   3  17
HETATM   17  C9  UNK     1      15.956  11.245  34.977  1.00  0.00     0.108 A 
HETATM   18  C12 UNK     1      16.278  12.417  35.535  1.00  0.00     0.037 A 
HETATM   19  C11 UNK     1      15.327  13.111  36.388  1.00  0.00    -0.001 A 
HETATM   20  C13 UNK     1      14.080  12.536  36.612  1.00  0.00     0.089 A 
HETATM   21  C15 UNK     1      15.621  14.337  36.991  1.00  0.00     0.014 A 
HETATM   22  O1  UNK     1      13.746  11.301  36.022  1.00  0.00    -0.274 OA
HETATM   23  C16 UNK     1      13.123  13.148  37.419  1.00  0.00     0.038 A 
HETATM   24  C14 UNK     1      14.635  10.614  35.201  1.00  0.00     0.304 A 
HETATM   25  O5  UNK     1      14.335   9.539  34.693  1.00  0.00    -0.259 OA
HETATM   26  C18 UNK     1      13.425  14.370  38.017  1.00  0.00     0.003 A 
HETATM   27  C17 UNK     1      14.671  14.963  37.803  1.00  0.00     0.001 A 
ENDBRANCH   3  17
TORSDOF 5
ENDMDL
MODEL 10
REMARK VINA RESULT:      -7.9      1.350      2.279
REMARK  5 active torsions:
REMARK  status: ('A' for Active; 'I' for Inactive)
REMARK    1  A    between atoms: C8_15  and  O2_3 
REMARK       I    between atoms: C10_17  and  N1_7 
REMARK    2  A    between atoms: C5_12  and  N1_7 
REMARK    3  A    between atoms: C1_8  and  C3_10 
REMARK    4  A    between atoms: C2_9  and  C8_15 
REMARK    5  A    between atoms: C10_17  and  C9_16 
ROOT
HETATM    1  O4  UNK     1      21.323  -3.973  36.727  1.00  0.00    -0.267 OA
HETATM    2  N1  UNK     1      19.128  -4.813  36.923  1.00  0.00    -0.316 N 
HETATM    3  C10 UNK     1      20.101  -3.855  36.678  1.00  0.00     0.262 C 
HETATM    4  H3  UNK     1      18.145  -4.559  36.860  1.00  0.00     0.169 HD
ENDROOT
BRANCH   2   5
HETATM    5  C5  UNK     1      19.354  -6.145  37.283  1.00  0.00     0.094 A 
HETATM    6  C2  UNK     1      19.217  -7.288  36.563  1.00  0.00     0.080 A 
HETATM    7  C1  UNK     1      19.563  -8.430  37.342  1.00  0.00    -0.027 A 
HETATM    8  C4  UNK     1      19.946  -8.088  38.620  1.00  0.00    -0.012 A 
HETATM    9  S1  UNK     1      19.889  -6.396  38.877  1.00  0.00    -0.076 SA
HETATM   10  C7  UNK     1      20.377  -8.969  39.728  1.00  0.00     0.057 C 
BRANCH   6  11
HETATM   11  C8  UNK     1      18.777  -7.314  35.190  1.00  0.00     0.296 C 
HETATM   12  O3  UNK     1      19.481  -6.959  34.233  1.00  0.00    -0.259 OA
BRANCH  11  13
HETATM   13  O2  UNK     1      17.489  -7.773  35.024  1.00  0.00    -0.322 OA
HETATM   14  C19 UNK     1      16.435  -6.937  35.516  1.00  0.00     0.213 C 
ENDBRANCH  11  13
ENDBRANCH   6  11
BRANCH   7  15
HETATM   15  C3  UNK     1      19.516  -9.826  36.838  1.00  0.00     0.036 C 
HETATM   16  C6  UNK     1      20.878 -10.320  36.349  1.00  0.00     0.010 C 
ENDBRANCH   7  15
ENDBRANCH   2   5
BRANCH   3  17
HETATM   17  C9  UNK     1      19.514  -2.558  36.322  1.00  0.00     0.108 A 
HETATM   18  C12 UNK     1      19.560  -2.223  35.028  1.00  0.00     0.037 A 
HETATM   19  C11 UNK     1      19.004  -0.957  34.577  1.00  0.00    -0.001 A 
HETATM   20  C13 UNK     1      18.426  -0.105  35.512  1.00  0.00     0.089 A 
HETATM   21  C15 UNK     1      19.029  -0.567  33.236  1.00  0.00     0.014 A 
HETATM   22  O1  UNK     1      18.380  -0.462  36.874  1.00  0.00    -0.274 OA
HETATM   23  C16 UNK     1      17.876   1.123  35.147  1.00  0.00     0.038 A 
HETATM   24  C14 UNK     1      18.904  -1.666  37.336  1.00  0.00     0.304 A 
HETATM   25  O5  UNK     1      18.861  -1.969  38.523  1.00  0.00    -0.259 OA
HETATM   26  C18 UNK     1      17.907   1.504  33.807  1.00  0.00     0.003 A 
HETATM   27  C17 UNK     1      18.482   0.662  32.853  1.00  0.00     0.001 A 
ENDBRANCH   3  17
TORSDOF 5
ENDMDL
