MODEL 1
REMARK VINA RESULT:      -9.5      0.000      0.000
REMARK  4 active torsions:
REMARK  status: ('A' for Active; 'I' for Inactive)
REMARK    1  A    between atoms: C13_25  and  C14_26 
REMARK    2  A    between atoms: C14_26  and  C15_27 
REMARK    3  A    between atoms: C15_27  and  C18_30 
REMARK    4  A    between atoms: C18_30  and  C19_31 
ROOT
HETATM    1  O1  UNK     1      30.749  -4.201  38.075  1.00  0.00    -0.274 OA
HETATM    2  O2  UNK     1      29.612  -3.492  39.928  1.00  0.00    -0.260 OA
HETATM    3  N1  UNK     1      33.256  -5.715  34.201  1.00  0.00    -0.380 N 
HETATM    4  C1  UNK     1      32.140  -5.809  35.036  1.00  0.00     0.045 A 
HETATM    5  C2  UNK     1      31.971  -4.933  36.131  1.00  0.00     0.004 A 
HETATM    6  C3  UNK     1      31.126  -6.763  34.785  1.00  0.00    -0.030 A 
HETATM    7  C4  UNK     1      34.382  -4.881  34.609  1.00  0.00     0.123 C 
HETATM    8  C5  UNK     1      33.501  -6.762  33.213  1.00  0.00     0.123 C 
HETATM    9  C6  UNK     1      33.014  -3.883  36.436  1.00  0.00     0.045 C 
HETATM   10  C7  UNK     1      33.882  -3.582  35.220  1.00  0.00     0.025 C 
HETATM   11  C8  UNK     1      31.239  -7.722  33.624  1.00  0.00     0.042 C 
HETATM   12  C9  UNK     1      32.195  -7.195  32.561  1.00  0.00     0.024 C 
HETATM   13  C10 UNK     1      30.848  -5.077  36.968  1.00  0.00     0.099 A 
HETATM   14  C11 UNK     1      29.859  -6.034  36.745  1.00  0.00     0.012 A 
HETATM   15  C12 UNK     1      30.013  -6.874  35.640  1.00  0.00     0.024 A 
HETATM   16  C13 UNK     1      28.719  -6.112  37.671  1.00  0.00     0.038 A 
HETATM   17  C16 UNK     1      28.660  -5.266  38.708  1.00  0.00     0.097 A 
HETATM   18  C17 UNK     1      29.691  -4.251  38.969  1.00  0.00     0.288 A 
ENDROOT
BRANCH  16  19
HETATM   19  C14 UNK     1      27.640  -7.132  37.445  1.00  0.00     0.343 C 
HETATM   20  F1  UNK     1      27.368  -7.229  36.120  1.00  0.00    -0.194 F 
HETATM   21  F2  UNK     1      26.492  -6.695  38.028  1.00  0.00    -0.194 F 
BRANCH  19  22
HETATM   22  C15 UNK     1      27.966  -8.501  38.008  1.00  0.00     0.385 C 
HETATM   23  F3  UNK     1      27.499  -9.446  37.140  1.00  0.00    -0.192 F 
HETATM   24  F4  UNK     1      29.323  -8.631  38.002  1.00  0.00    -0.192 F 
BRANCH  22  25
HETATM   25  C18 UNK     1      27.457  -8.860  39.397  1.00  0.00     0.409 C 
HETATM   26  F5  UNK     1      26.093  -8.862  39.346  1.00  0.00    -0.189 F 
HETATM   27  F6  UNK     1      27.797  -7.885  40.278  1.00  0.00    -0.189 F 
BRANCH  25  28
HETATM   28  C19 UNK     1      27.896 -10.191  39.952  1.00  0.00     0.461 C 
HETATM   29  F7  UNK     1      27.905 -10.197  41.301  1.00  0.00    -0.165 F 
HETATM   30  F8  UNK     1      27.051 -11.168  39.554  1.00  0.00    -0.165 F 
HETATM   31  F9  UNK     1      29.132 -10.520  39.525  1.00  0.00    -0.165 F 
ENDBRANCH  25  28
ENDBRANCH  22  25
ENDBRANCH  19  22
ENDBRANCH  16  19
TORSDOF 4
ENDMDL
MODEL 2
REMARK VINA RESULT:      -9.5     15.112     17.323
REMARK  4 active torsions:
REMARK  status: ('A' for Active; 'I' for Inactive)
REMARK    1  A    between atoms: C13_25  and  C14_26 
REMARK    2  A    between atoms: C14_26  and  C15_27 
REMARK    3  A    between atoms: C15_27  and  C18_30 
REMARK    4  A    between atoms: C18_30  and  C19_31 
ROOT
HETATM    1  O1  UNK     1      18.664   2.157  30.683  1.00  0.00    -0.274 OA
HETATM    2  O2  UNK     1      18.679   3.335  28.722  1.00  0.00    -0.260 OA
HETATM    3  N1  UNK     1      18.731  -0.383  34.821  1.00  0.00    -0.380 N 
HETATM    4  C1  UNK     1      18.543   0.823  34.141  1.00  0.00     0.045 A 
HETATM    5  C2  UNK     1      18.661   0.894  32.736  1.00  0.00     0.004 A 
HETATM    6  C3  UNK     1      18.193   2.001  34.840  1.00  0.00    -0.030 A 
HETATM    7  C4  UNK     1      19.305  -1.520  34.109  1.00  0.00     0.123 C 
HETATM    8  C5  UNK     1      18.808  -0.378  36.279  1.00  0.00     0.123 C 
HETATM    9  C6  UNK     1      19.016  -0.337  31.935  1.00  0.00     0.045 C 
HETATM   10  C7  UNK     1      18.719  -1.616  32.709  1.00  0.00     0.025 C 
HETATM   11  C8  UNK     1      18.040   1.991  36.342  1.00  0.00     0.042 C 
HETATM   12  C9  UNK     1      17.781   0.583  36.863  1.00  0.00     0.024 C 
HETATM   13  C10 UNK     1      18.494   2.134  32.088  1.00  0.00     0.099 A 
HETATM   14  C11 UNK     1      18.178   3.306  32.772  1.00  0.00     0.012 A 
HETATM   15  C12 UNK     1      18.027   3.221  34.158  1.00  0.00     0.024 A 
HETATM   16  C13 UNK     1      18.021   4.556  32.014  1.00  0.00     0.038 A 
HETATM   17  C16 UNK     1      18.190   4.539  30.685  1.00  0.00     0.097 A 
HETATM   18  C17 UNK     1      18.528   3.318  29.939  1.00  0.00     0.288 A 
ENDROOT
BRANCH  16  19
HETATM   19  C14 UNK     1      17.674   5.829  32.731  1.00  0.00     0.343 C 
HETATM   20  F1  UNK     1      17.386   5.562  34.029  1.00  0.00    -0.194 F 
HETATM   21  F2  UNK     1      16.534   6.340  32.195  1.00  0.00    -0.194 F 
BRANCH  19  22
HETATM   22  C15 UNK     1      18.754   6.890  32.649  1.00  0.00     0.385 C 
HETATM   23  F3  UNK     1      19.509   6.651  31.537  1.00  0.00    -0.192 F 
HETATM   24  F4  UNK     1      18.135   8.084  32.427  1.00  0.00    -0.192 F 
BRANCH  22  25
HETATM   25  C18 UNK     1      19.705   7.055  33.826  1.00  0.00     0.409 C 
HETATM   26  F5  UNK     1      20.906   7.469  33.327  1.00  0.00    -0.189 F 
HETATM   27  F6  UNK     1      19.936   5.849  34.404  1.00  0.00    -0.189 F 
BRANCH  25  28
HETATM   28  C19 UNK     1      19.291   8.036  34.894  1.00  0.00     0.461 C 
HETATM   29  F7  UNK     1      17.952   8.191  34.946  1.00  0.00    -0.165 F 
HETATM   30  F8  UNK     1      19.691   7.601  36.111  1.00  0.00    -0.165 F 
HETATM   31  F9  UNK     1      19.845   9.248  34.691  1.00  0.00    -0.165 F 
ENDBRANCH  25  28
ENDBRANCH  22  25
ENDBRANCH  19  22
ENDBRANCH  16  19
TORSDOF 4
ENDMDL
MODEL 3
REMARK VINA RESULT:      -9.3     19.253     21.216
REMARK  4 active torsions:
REMARK  status: ('A' for Active; 'I' for Inactive)
REMARK    1  A    between atoms: C13_25  and  C14_26 
REMARK    2  A    between atoms: C14_26  and  C15_27 
REMARK    3  A    between atoms: C15_27  and  C18_30 
REMARK    4  A    between atoms: C18_30  and  C19_31 
ROOT
HETATM    1  O1  UNK     1      19.260  10.790  34.423  1.00  0.00    -0.274 OA
HETATM    2  O2  UNK     1      21.315   9.825  34.698  1.00  0.00    -0.260 OA
HETATM    3  N1  UNK     1      14.941  12.913  33.771  1.00  0.00    -0.380 N 
HETATM    4  C1  UNK     1      15.733  11.762  33.812  1.00  0.00     0.045 A 
HETATM    5  C2  UNK     1      17.107  11.834  34.133  1.00  0.00     0.004 A 
HETATM    6  C3  UNK     1      15.173  10.487  33.569  1.00  0.00    -0.030 A 
HETATM    7  C4  UNK     1      15.584  14.222  33.804  1.00  0.00     0.123 C 
HETATM    8  C5  UNK     1      13.585  12.828  33.235  1.00  0.00     0.123 C 
HETATM    9  C6  UNK     1      17.756  13.168  34.420  1.00  0.00     0.045 C 
HETATM   10  C7  UNK     1      16.726  14.223  34.807  1.00  0.00     0.025 C 
HETATM   11  C8  UNK     1      13.708  10.339  33.231  1.00  0.00     0.042 C 
HETATM   12  C9  UNK     1      12.907  11.547  33.702  1.00  0.00     0.024 C 
HETATM   13  C10 UNK     1      17.881  10.657  34.136  1.00  0.00     0.099 A 
HETATM   14  C11 UNK     1      17.342   9.399  33.868  1.00  0.00     0.012 A 
HETATM   15  C12 UNK     1      15.975   9.331  33.587  1.00  0.00     0.024 A 
HETATM   16  C13 UNK     1      18.225   8.224  33.895  1.00  0.00     0.038 A 
HETATM   17  C16 UNK     1      19.525   8.390  34.170  1.00  0.00     0.097 A 
HETATM   18  C17 UNK     1      20.120   9.705  34.451  1.00  0.00     0.288 A 
ENDROOT
BRANCH  16  19
HETATM   19  C14 UNK     1      17.663   6.859  33.615  1.00  0.00     0.343 C 
HETATM   20  F1  UNK     1      16.382   6.790  34.054  1.00  0.00    -0.194 F 
HETATM   21  F2  UNK     1      18.354   5.941  34.342  1.00  0.00    -0.194 F 
BRANCH  19  22
HETATM   22  C15 UNK     1      17.732   6.458  32.155  1.00  0.00     0.385 C 
HETATM   23  F3  UNK     1      16.598   5.764  31.845  1.00  0.00    -0.192 F 
HETATM   24  F4  UNK     1      17.679   7.602  31.415  1.00  0.00    -0.192 F 
BRANCH  22  25
HETATM   25  C18 UNK     1      18.921   5.635  31.680  1.00  0.00     0.409 C 
HETATM   26  F5  UNK     1      18.743   4.359  32.129  1.00  0.00    -0.189 F 
HETATM   27  F6  UNK     1      20.057   6.084  32.270  1.00  0.00    -0.189 F 
BRANCH  25  28
HETATM   28  C19 UNK     1      19.141   5.568  30.189  1.00  0.00     0.461 C 
HETATM   29  F7  UNK     1      18.302   6.384  29.518  1.00  0.00    -0.165 F 
HETATM   30  F8  UNK     1      20.401   5.949  29.883  1.00  0.00    -0.165 F 
HETATM   31  F9  UNK     1      18.967   4.315  29.722  1.00  0.00    -0.165 F 
ENDBRANCH  25  28
ENDBRANCH  22  25
ENDBRANCH  19  22
ENDBRANCH  16  19
TORSDOF 4
ENDMDL
MODEL 4
REMARK VINA RESULT:      -9.3      1.594      2.399
REMARK  4 active torsions:
REMARK  status: ('A' for Active; 'I' for Inactive)
REMARK    1  A    between atoms: C13_25  and  C14_26 
REMARK    2  A    between atoms: C14_26  and  C15_27 
REMARK    3  A    between atoms: C15_27  and  C18_30 
REMARK    4  A    between atoms: C18_30  and  C19_31 
ROOT
HETATM    1  O1  UNK     1      30.368  -4.551  38.113  1.00  0.00    -0.274 OA
HETATM    2  O2  UNK     1      28.752  -3.718  39.500  1.00  0.00    -0.260 OA
HETATM    3  N1  UNK     1      33.875  -6.268  35.225  1.00  0.00    -0.380 N 
HETATM    4  C1  UNK     1      32.744  -6.481  36.018  1.00  0.00     0.045 A 
HETATM    5  C2  UNK     1      32.085  -5.404  36.652  1.00  0.00     0.004 A 
HETATM    6  C3  UNK     1      32.204  -7.778  36.178  1.00  0.00    -0.030 A 
HETATM    7  C4  UNK     1      34.534  -4.967  35.259  1.00  0.00     0.123 C 
HETATM    8  C5  UNK     1      34.648  -7.417  34.760  1.00  0.00     0.123 C 
HETATM    9  C6  UNK     1      32.606  -3.994  36.502  1.00  0.00     0.045 C 
HETATM   10  C7  UNK     1      33.500  -3.852  35.276  1.00  0.00     0.025 C 
HETATM   11  C8  UNK     1      32.854  -8.970  35.517  1.00  0.00     0.042 C 
HETATM   12  C9  UNK     1      33.720  -8.547  34.337  1.00  0.00     0.024 C 
HETATM   13  C10 UNK     1      30.965  -5.660  37.467  1.00  0.00     0.099 A 
HETATM   14  C11 UNK     1      30.445  -6.940  37.654  1.00  0.00     0.012 A 
HETATM   15  C12 UNK     1      31.079  -7.995  36.995  1.00  0.00     0.024 A 
HETATM   16  C13 UNK     1      29.271  -7.114  38.522  1.00  0.00     0.038 A 
HETATM   17  C16 UNK     1      28.733  -6.040  39.117  1.00  0.00     0.097 A 
HETATM   18  C17 UNK     1      29.264  -4.681  38.941  1.00  0.00     0.288 A 
ENDROOT
BRANCH  16  19
HETATM   19  C14 UNK     1      28.691  -8.483  38.732  1.00  0.00     0.343 C 
HETATM   20  F1  UNK     1      27.952  -8.500  39.869  1.00  0.00    -0.194 F 
HETATM   21  F2  UNK     1      29.705  -9.365  38.935  1.00  0.00    -0.194 F 
BRANCH  19  22
HETATM   22  C15 UNK     1      27.857  -8.978  37.566  1.00  0.00     0.385 C 
HETATM   23  F3  UNK     1      27.428  -7.897  36.853  1.00  0.00    -0.192 F 
HETATM   24  F4  UNK     1      28.690  -9.664  36.733  1.00  0.00    -0.192 F 
BRANCH  22  25
HETATM   25  C18 UNK     1      26.644  -9.851  37.855  1.00  0.00     0.409 C 
HETATM   26  F5  UNK     1      25.683  -9.050  38.400  1.00  0.00    -0.189 F 
HETATM   27  F6  UNK     1      26.952 -10.767  38.809  1.00  0.00    -0.189 F 
BRANCH  25  28
HETATM   28  C19 UNK     1      26.032 -10.565  36.677  1.00  0.00     0.461 C 
HETATM   29  F7  UNK     1      25.806 -11.869  36.938  1.00  0.00    -0.165 F 
HETATM   30  F8  UNK     1      24.841 -10.009  36.358  1.00  0.00    -0.165 F 
HETATM   31  F9  UNK     1      26.824 -10.488  35.588  1.00  0.00    -0.165 F 
ENDBRANCH  25  28
ENDBRANCH  22  25
ENDBRANCH  19  22
ENDBRANCH  16  19
TORSDOF 4
ENDMDL
MODEL 5
REMARK VINA RESULT:      -9.2     19.629     21.598
REMARK  4 active torsions:
REMARK  status: ('A' for Active; 'I' for Inactive)
REMARK    1  A    between atoms: C13_25  and  C14_26 
REMARK    2  A    between atoms: C14_26  and  C15_27 
REMARK    3  A    between atoms: C15_27  and  C18_30 
REMARK    4  A    between atoms: C18_30  and  C19_31 
ROOT
HETATM    1  O1  UNK     1      13.989   9.003  32.895  1.00  0.00    -0.274 OA
HETATM    2  O2  UNK     1      13.151   6.937  32.383  1.00  0.00    -0.260 OA
HETATM    3  N1  UNK     1      15.680  13.407  34.048  1.00  0.00    -0.380 N 
HETATM    4  C1  UNK     1      15.878  12.032  33.901  1.00  0.00     0.045 A 
HETATM    5  C2  UNK     1      14.844  11.191  33.434  1.00  0.00     0.004 A 
HETATM    6  C3  UNK     1      17.135  11.447  34.180  1.00  0.00    -0.030 A 
HETATM    7  C4  UNK     1      14.325  13.943  33.968  1.00  0.00     0.123 C 
HETATM    8  C5  UNK     1      16.696  14.207  34.726  1.00  0.00     0.123 C 
HETATM    9  C6  UNK     1      13.485  11.763  33.103  1.00  0.00     0.045 C 
HETATM   10  C7  UNK     1      13.554  13.264  32.848  1.00  0.00     0.025 C 
HETATM   11  C8  UNK     1      18.287  12.291  34.671  1.00  0.00     0.042 C 
HETATM   12  C9  UNK     1      18.091  13.759  34.312  1.00  0.00     0.024 C 
HETATM   13  C10 UNK     1      15.072   9.805  33.327  1.00  0.00     0.099 A 
HETATM   14  C11 UNK     1      16.299   9.217  33.629  1.00  0.00     0.012 A 
HETATM   15  C12 UNK     1      17.329  10.059  34.055  1.00  0.00     0.024 A 
HETATM   16  C13 UNK     1      16.447   7.761  33.486  1.00  0.00     0.038 A 
HETATM   17  C16 UNK     1      15.399   7.035  33.075  1.00  0.00     0.097 A 
HETATM   18  C17 UNK     1      14.093   7.629  32.755  1.00  0.00     0.288 A 
ENDROOT
BRANCH  16  19
HETATM   19  C14 UNK     1      17.763   7.108  33.801  1.00  0.00     0.343 C 
HETATM   20  F1  UNK     1      17.550   5.903  34.385  1.00  0.00    -0.194 F 
HETATM   21  F2  UNK     1      18.417   7.859  34.726  1.00  0.00    -0.194 F 
BRANCH  19  22
HETATM   22  C15 UNK     1      18.667   6.945  32.595  1.00  0.00     0.385 C 
HETATM   23  F3  UNK     1      18.279   7.841  31.641  1.00  0.00    -0.192 F 
HETATM   24  F4  UNK     1      19.921   7.326  32.973  1.00  0.00    -0.192 F 
BRANCH  22  25
HETATM   25  C18 UNK     1      18.762   5.578  31.933  1.00  0.00     0.409 C 
HETATM   26  F5  UNK     1      17.489   5.125  31.743  1.00  0.00    -0.189 F 
HETATM   27  F6  UNK     1      19.350   4.696  32.780  1.00  0.00    -0.189 F 
BRANCH  25  28
HETATM   28  C19 UNK     1      19.471   5.522  30.603  1.00  0.00     0.461 C 
HETATM   29  F7  UNK     1      20.772   5.863  30.709  1.00  0.00    -0.165 F 
HETATM   30  F8  UNK     1      19.427   4.267  30.100  1.00  0.00    -0.165 F 
HETATM   31  F9  UNK     1      18.896   6.344  29.703  1.00  0.00    -0.165 F 
ENDBRANCH  25  28
ENDBRANCH  22  25
ENDBRANCH  19  22
ENDBRANCH  16  19
TORSDOF 4
ENDMDL
MODEL 6
REMARK VINA RESULT:      -9.1     12.518     14.325
REMARK  4 active torsions:
REMARK  status: ('A' for Active; 'I' for Inactive)
REMARK    1  A    between atoms: C13_25  and  C14_26 
REMARK    2  A    between atoms: C14_26  and  C15_27 
REMARK    3  A    between atoms: C15_27  and  C18_30 
REMARK    4  A    between atoms: C18_30  and  C19_31 
ROOT
HETATM    1  O1  UNK     1      20.227  -2.718  32.840  1.00  0.00    -0.274 OA
HETATM    2  O2  UNK     1      20.657  -4.446  34.277  1.00  0.00    -0.260 OA
HETATM    3  N1  UNK     1      19.266   0.878  29.723  1.00  0.00    -0.380 N 
HETATM    4  C1  UNK     1      19.247   0.360  31.020  1.00  0.00     0.045 A 
HETATM    5  C2  UNK     1      19.780  -0.916  31.304  1.00  0.00     0.004 A 
HETATM    6  C3  UNK     1      18.726   1.118  32.095  1.00  0.00    -0.030 A 
HETATM    7  C4  UNK     1      19.600  -0.003  28.609  1.00  0.00     0.123 C 
HETATM    8  C5  UNK     1      18.523   2.101  29.430  1.00  0.00     0.123 C 
HETATM    9  C6  UNK     1      20.366  -1.762  30.198  1.00  0.00     0.045 C 
HETATM   10  C7  UNK     1      20.752  -0.919  28.989  1.00  0.00     0.025 C 
HETATM   11  C8  UNK     1      18.151   2.495  31.862  1.00  0.00     0.042 C 
HETATM   12  C9  UNK     1      18.677   3.102  30.567  1.00  0.00     0.024 C 
HETATM   13  C10 UNK     1      19.717  -1.417  32.619  1.00  0.00     0.099 A 
HETATM   14  C11 UNK     1      19.178  -0.689  33.679  1.00  0.00     0.012 A 
HETATM   15  C12 UNK     1      18.686   0.587  33.398  1.00  0.00     0.024 A 
HETATM   16  C13 UNK     1      19.155  -1.291  35.020  1.00  0.00     0.038 A 
HETATM   17  C16 UNK     1      19.646  -2.526  35.191  1.00  0.00     0.097 A 
HETATM   18  C17 UNK     1      20.216  -3.317  34.090  1.00  0.00     0.288 A 
ENDROOT
BRANCH  16  19
HETATM   19  C14 UNK     1      18.584  -0.522  36.177  1.00  0.00     0.343 C 
HETATM   20  F1  UNK     1      18.942   0.783  36.082  1.00  0.00    -0.194 F 
HETATM   21  F2  UNK     1      19.144  -0.978  37.328  1.00  0.00    -0.194 F 
BRANCH  19  22
HETATM   22  C15 UNK     1      17.078  -0.637  36.303  1.00  0.00     0.385 C 
HETATM   23  F3  UNK     1      16.628  -1.490  35.337  1.00  0.00    -0.192 F 
HETATM   24  F4  UNK     1      16.815  -1.252  37.491  1.00  0.00    -0.192 F 
BRANCH  22  25
HETATM   25  C18 UNK     1      16.240   0.631  36.225  1.00  0.00     0.409 C 
HETATM   26  F5  UNK     1      14.935   0.273  36.404  1.00  0.00    -0.189 F 
HETATM   27  F6  UNK     1      16.315   1.157  34.976  1.00  0.00    -0.189 F 
BRANCH  25  28
HETATM   28  C19 UNK     1      16.559   1.712  37.228  1.00  0.00     0.461 C 
HETATM   29  F7  UNK     1      17.151   1.216  38.334  1.00  0.00    -0.165 F 
HETATM   30  F8  UNK     1      17.409   2.616  36.690  1.00  0.00    -0.165 F 
HETATM   31  F9  UNK     1      15.447   2.373  37.610  1.00  0.00    -0.165 F 
ENDBRANCH  25  28
ENDBRANCH  22  25
ENDBRANCH  19  22
ENDBRANCH  16  19
TORSDOF 4
ENDMDL
MODEL 7
REMARK VINA RESULT:      -9.1     16.053     18.257
REMARK  4 active torsions:
REMARK  status: ('A' for Active; 'I' for Inactive)
REMARK    1  A    between atoms: C13_25  and  C14_26 
REMARK    2  A    between atoms: C14_26  and  C15_27 
REMARK    3  A    between atoms: C15_27  and  C18_30 
REMARK    4  A    between atoms: C18_30  and  C19_31 
ROOT
HETATM    1  O1  UNK     1      18.707   2.524  30.793  1.00  0.00    -0.274 OA
HETATM    2  O2  UNK     1      18.847   3.748  28.865  1.00  0.00    -0.260 OA
HETATM    3  N1  UNK     1      18.501  -0.126  34.857  1.00  0.00    -0.380 N 
HETATM    4  C1  UNK     1      18.467   1.115  34.214  1.00  0.00     0.045 A 
HETATM    5  C2  UNK     1      18.568   1.212  32.809  1.00  0.00     0.004 A 
HETATM    6  C3  UNK     1      18.290   2.308  34.953  1.00  0.00    -0.030 A 
HETATM    7  C4  UNK     1      18.904  -1.307  34.101  1.00  0.00     0.123 C 
HETATM    8  C5  UNK     1      18.604  -0.174  36.313  1.00  0.00     0.123 C 
HETATM    9  C6  UNK     1      18.740  -0.031  31.968  1.00  0.00     0.045 C 
HETATM   10  C7  UNK     1      18.287  -1.281  32.712  1.00  0.00     0.025 C 
HETATM   11  C8  UNK     1      18.163   2.273  36.457  1.00  0.00     0.042 C 
HETATM   12  C9  UNK     1      17.726   0.897  36.944  1.00  0.00     0.024 C 
HETATM   13  C10 UNK     1      18.559   2.482  32.199  1.00  0.00     0.099 A 
HETATM   14  C11 UNK     1      18.415   3.665  32.922  1.00  0.00     0.012 A 
HETATM   15  C12 UNK     1      18.279   3.559  34.308  1.00  0.00     0.024 A 
HETATM   16  C13 UNK     1      18.415   4.947  32.202  1.00  0.00     0.038 A 
HETATM   17  C16 UNK     1      18.558   4.947  30.870  1.00  0.00     0.097 A 
HETATM   18  C17 UNK     1      18.715   3.715  30.083  1.00  0.00     0.288 A 
ENDROOT
BRANCH  16  19
HETATM   19  C14 UNK     1      18.256   6.232  32.961  1.00  0.00     0.343 C 
HETATM   20  F1  UNK     1      19.025   7.197  32.399  1.00  0.00    -0.194 F 
HETATM   21  F2  UNK     1      18.736   6.062  34.222  1.00  0.00    -0.194 F 
BRANCH  19  22
HETATM   22  C15 UNK     1      16.820   6.709  33.061  1.00  0.00     0.385 C 
HETATM   23  F3  UNK     1      16.030   5.846  32.358  1.00  0.00    -0.192 F 
HETATM   24  F4  UNK     1      16.439   6.582  34.364  1.00  0.00    -0.192 F 
BRANCH  22  25
HETATM   25  C18 UNK     1      16.486   8.121  32.600  1.00  0.00     0.409 C 
HETATM   26  F5  UNK     1      16.692   8.171  31.252  1.00  0.00    -0.189 F 
HETATM   27  F6  UNK     1      17.363   9.003  33.145  1.00  0.00    -0.189 F 
BRANCH  25  28
HETATM   28  C19 UNK     1      15.082   8.602  32.867  1.00  0.00     0.461 C 
HETATM   29  F7  UNK     1      14.791   8.602  34.184  1.00  0.00    -0.165 F 
HETATM   30  F8  UNK     1      14.928   9.870  32.423  1.00  0.00    -0.165 F 
HETATM   31  F9  UNK     1      14.170   7.834  32.237  1.00  0.00    -0.165 F 
ENDBRANCH  25  28
ENDBRANCH  22  25
ENDBRANCH  19  22
ENDBRANCH  16  19
TORSDOF 4
ENDMDL
MODEL 8
REMARK VINA RESULT:      -9.1      6.095      8.479
REMARK  4 active torsions:
REMARK  status: ('A' for Active; 'I' for Inactive)
REMARK    1  A    between atoms: C13_25  and  C14_26 
REMARK    2  A    between atoms: C14_26  and  C15_27 
REMARK    3  A    between atoms: C15_27  and  C18_30 
REMARK    4  A    between atoms: C18_30  and  C19_31 
ROOT
HETATM    1  O1  UNK     1      35.596  -7.438  30.525  1.00  0.00    -0.274 OA
HETATM    2  O2  UNK     1      36.084  -7.699  28.305  1.00  0.00    -0.260 OA
HETATM    3  N1  UNK     1      34.629  -6.801  35.241  1.00  0.00    -0.380 N 
HETATM    4  C1  UNK     1      34.191  -6.979  33.925  1.00  0.00     0.045 A 
HETATM    5  C2  UNK     1      35.110  -7.158  32.868  1.00  0.00     0.004 A 
HETATM    6  C3  UNK     1      32.810  -7.022  33.622  1.00  0.00    -0.030 A 
HETATM    7  C4  UNK     1      36.043  -6.539  35.491  1.00  0.00     0.123 C 
HETATM    8  C5  UNK     1      33.667  -6.412  36.268  1.00  0.00     0.123 C 
HETATM    9  C6  UNK     1      36.597  -7.139  33.137  1.00  0.00     0.045 C 
HETATM   10  C7  UNK     1      36.907  -7.419  34.602  1.00  0.00     0.025 C 
HETATM   11  C8  UNK     1      31.775  -6.849  34.707  1.00  0.00     0.042 C 
HETATM   12  C9  UNK     1      32.356  -7.163  36.081  1.00  0.00     0.024 C 
HETATM   13  C10 UNK     1      34.632  -7.305  31.551  1.00  0.00     0.099 A 
HETATM   14  C11 UNK     1      33.273  -7.319  31.239  1.00  0.00     0.012 A 
HETATM   15  C12 UNK     1      32.369  -7.178  32.294  1.00  0.00     0.024 A 
HETATM   16  C13 UNK     1      32.865  -7.479  29.836  1.00  0.00     0.038 A 
HETATM   17  C16 UNK     1      33.806  -7.602  28.891  1.00  0.00     0.097 A 
HETATM   18  C17 UNK     1      35.246  -7.586  29.192  1.00  0.00     0.288 A 
ENDROOT
BRANCH  16  19
HETATM   19  C14 UNK     1      31.406  -7.502  29.479  1.00  0.00     0.343 C 
HETATM   20  F1  UNK     1      31.202  -6.804  28.334  1.00  0.00    -0.194 F 
HETATM   21  F2  UNK     1      30.706  -6.849  30.443  1.00  0.00    -0.194 F 
BRANCH  19  22
HETATM   22  C15 UNK     1      30.833  -8.899  29.341  1.00  0.00     0.385 C 
HETATM   23  F3  UNK     1      31.320  -9.453  28.192  1.00  0.00    -0.192 F 
HETATM   24  F4  UNK     1      31.343  -9.650  30.359  1.00  0.00    -0.192 F 
BRANCH  22  25
HETATM   25  C18 UNK     1      29.321  -9.070  29.331  1.00  0.00     0.409 C 
HETATM   26  F5  UNK     1      28.777  -7.886  28.925  1.00  0.00    -0.189 F 
HETATM   27  F6  UNK     1      28.872  -9.275  30.595  1.00  0.00    -0.189 F 
BRANCH  25  28
HETATM   28  C19 UNK     1      28.772 -10.155  28.439  1.00  0.00     0.461 C 
HETATM   29  F7  UNK     1      29.227 -11.376  28.790  1.00  0.00    -0.165 F 
HETATM   30  F8  UNK     1      27.423 -10.192  28.520  1.00  0.00    -0.165 F 
HETATM   31  F9  UNK     1      29.098  -9.944  27.147  1.00  0.00    -0.165 F 
ENDBRANCH  25  28
ENDBRANCH  22  25
ENDBRANCH  19  22
ENDBRANCH  16  19
TORSDOF 4
ENDMDL
MODEL 9
REMARK VINA RESULT:      -8.9      5.865      8.086
REMARK  4 active torsions:
REMARK  status: ('A' for Active; 'I' for Inactive)
REMARK    1  A    between atoms: C13_25  and  C14_26 
REMARK    2  A    between atoms: C14_26  and  C15_27 
REMARK    3  A    between atoms: C15_27  and  C18_30 
REMARK    4  A    between atoms: C18_30  and  C19_31 
ROOT
HETATM    1  O1  UNK     1      35.432  -7.453  30.551  1.00  0.00    -0.274 OA
HETATM    2  O2  UNK     1      35.741  -7.512  28.286  1.00  0.00    -0.260 OA
HETATM    3  N1  UNK     1      34.822  -7.229  35.364  1.00  0.00    -0.380 N 
HETATM    4  C1  UNK     1      34.308  -7.464  34.085  1.00  0.00     0.045 A 
HETATM    5  C2  UNK     1      35.132  -7.379  32.941  1.00  0.00     0.004 A 
HETATM    6  C3  UNK     1      32.955  -7.832  33.905  1.00  0.00    -0.030 A 
HETATM    7  C4  UNK     1      36.150  -6.640  35.500  1.00  0.00     0.123 C 
HETATM    8  C5  UNK     1      33.904  -7.121  36.494  1.00  0.00     0.123 C 
HETATM    9  C6  UNK     1      36.590  -7.007  33.076  1.00  0.00     0.045 C 
HETATM   10  C7  UNK     1      37.105  -7.252  34.489  1.00  0.00     0.025 C 
HETATM   11  C8  UNK     1      32.023  -7.953  35.087  1.00  0.00     0.042 C 
HETATM   12  C9  UNK     1      32.797  -8.161  36.383  1.00  0.00     0.024 C 
HETATM   13  C10 UNK     1      34.572  -7.593  31.666  1.00  0.00     0.099 A 
HETATM   14  C11 UNK     1      33.232  -7.927  31.477  1.00  0.00     0.012 A 
HETATM   15  C12 UNK     1      32.432  -8.046  32.616  1.00  0.00     0.024 A 
HETATM   16  C13 UNK     1      32.734  -8.134  30.110  1.00  0.00     0.038 A 
HETATM   17  C16 UNK     1      33.577  -7.993  29.079  1.00  0.00     0.097 A 
HETATM   18  C17 UNK     1      34.994  -7.637  29.249  1.00  0.00     0.288 A 
ENDROOT
BRANCH  16  19
HETATM   19  C14 UNK     1      31.295  -8.500  29.884  1.00  0.00     0.343 C 
HETATM   20  F1  UNK     1      30.845  -9.254  30.917  1.00  0.00    -0.194 F 
HETATM   21  F2  UNK     1      31.209  -9.291  28.782  1.00  0.00    -0.194 F 
BRANCH  19  22
HETATM   22  C15 UNK     1      30.385  -7.304  29.682  1.00  0.00     0.385 C 
HETATM   23  F3  UNK     1      31.098  -6.171  29.947  1.00  0.00    -0.192 F 
HETATM   24  F4  UNK     1      30.078  -7.246  28.355  1.00  0.00    -0.192 F 
BRANCH  22  25
HETATM   25  C18 UNK     1      29.089  -7.231  30.477  1.00  0.00     0.409 C 
HETATM   26  F5  UNK     1      28.530  -6.009  30.239  1.00  0.00    -0.189 F 
HETATM   27  F6  UNK     1      29.362  -7.265  31.806  1.00  0.00    -0.189 F 
BRANCH  25  28
HETATM   28  C19 UNK     1      28.048  -8.278  30.167  1.00  0.00     0.461 C 
HETATM   29  F7  UNK     1      28.322  -8.939  29.023  1.00  0.00    -0.165 F 
HETATM   30  F8  UNK     1      27.997  -9.196  31.158  1.00  0.00    -0.165 F 
HETATM   31  F9  UNK     1      26.821  -7.732  30.051  1.00  0.00    -0.165 F 
ENDBRANCH  25  28
ENDBRANCH  22  25
ENDBRANCH  19  22
ENDBRANCH  16  19
TORSDOF 4
ENDMDL
MODEL 10
REMARK VINA RESULT:      -8.9      4.678      7.438
REMARK  4 active torsions:
REMARK  status: ('A' for Active; 'I' for Inactive)
REMARK    1  A    between atoms: C13_25  and  C14_26 
REMARK    2  A    between atoms: C14_26  and  C15_27 
REMARK    3  A    between atoms: C15_27  and  C18_30 
REMARK    4  A    between atoms: C18_30  and  C19_31 
ROOT
HETATM    1  O1  UNK     1      30.891  -4.042  37.224  1.00  0.00    -0.274 OA
HETATM    2  O2  UNK     1      31.759  -2.045  36.522  1.00  0.00    -0.260 OA
HETATM    3  N1  UNK     1      28.960  -8.260  38.656  1.00  0.00    -0.380 N 
HETATM    4  C1  UNK     1      30.028  -7.534  38.123  1.00  0.00     0.045 A 
HETATM    5  C2  UNK     1      29.952  -6.133  37.966  1.00  0.00     0.004 A 
HETATM    6  C3  UNK     1      31.233  -8.180  37.759  1.00  0.00    -0.030 A 
HETATM    7  C4  UNK     1      27.663  -7.609  38.812  1.00  0.00     0.123 C 
HETATM    8  C5  UNK     1      28.993  -9.720  38.610  1.00  0.00     0.123 C 
HETATM    9  C6  UNK     1      28.695  -5.388  38.354  1.00  0.00     0.045 C 
HETATM   10  C7  UNK     1      27.844  -6.192  39.330  1.00  0.00     0.025 C 
HETATM   11  C8  UNK     1      31.385  -9.674  37.913  1.00  0.00     0.042 C 
HETATM   12  C9  UNK     1      30.392 -10.231  38.926  1.00  0.00     0.024 C 
HETATM   13  C10 UNK     1      31.037  -5.438  37.398  1.00  0.00     0.099 A 
HETATM   14  C11 UNK     1      32.217  -6.071  37.009  1.00  0.00     0.012 A 
HETATM   15  C12 UNK     1      32.300  -7.452  37.201  1.00  0.00     0.024 A 
HETATM   16  C13 UNK     1      33.300  -5.266  36.425  1.00  0.00     0.038 A 
HETATM   17  C16 UNK     1      33.126  -3.946  36.276  1.00  0.00     0.097 A 
HETATM   18  C17 UNK     1      31.890  -3.254  36.673  1.00  0.00     0.288 A 
ENDROOT
BRANCH  16  19
HETATM   19  C14 UNK     1      34.582  -5.927  36.006  1.00  0.00     0.343 C 
HETATM   20  F1  UNK     1      34.760  -7.072  36.709  1.00  0.00    -0.194 F 
HETATM   21  F2  UNK     1      35.623  -5.120  36.340  1.00  0.00    -0.194 F 
BRANCH  19  22
HETATM   22  C15 UNK     1      34.662  -6.214  34.519  1.00  0.00     0.385 C 
HETATM   23  F3  UNK     1      33.416  -6.552  34.078  1.00  0.00    -0.192 F 
HETATM   24  F4  UNK     1      34.972  -5.043  33.894  1.00  0.00    -0.192 F 
BRANCH  22  25
HETATM   25  C18 UNK     1      35.629  -7.285  34.035  1.00  0.00     0.409 C 
HETATM   26  F5  UNK     1      35.066  -8.499  34.305  1.00  0.00    -0.189 F 
HETATM   27  F6  UNK     1      36.775  -7.234  34.761  1.00  0.00    -0.189 F 
BRANCH  25  28
HETATM   28  C19 UNK     1      35.982  -7.261  32.568  1.00  0.00     0.461 C 
HETATM   29  F7  UNK     1      36.740  -6.192  32.249  1.00  0.00    -0.165 F 
HETATM   30  F8  UNK     1      36.687  -8.366  32.237  1.00  0.00    -0.165 F 
HETATM   31  F9  UNK     1      34.876  -7.234  31.796  1.00  0.00    -0.165 F 
ENDBRANCH  25  28
ENDBRANCH  22  25
ENDBRANCH  19  22
ENDBRANCH  16  19
TORSDOF 4
ENDMDL
