MODEL 1
REMARK VINA RESULT:     -10.1      0.000      0.000
REMARK  6 active torsions:
REMARK  status: ('A' for Active; 'I' for Inactive)
REMARK    1  A    between atoms: C3_7  and  N1_4 
REMARK       I    between atoms: C4_8  and  N1_4 
REMARK    2  A    between atoms: C1_5  and  C2_6 
REMARK    3  A    between atoms: C1_5  and  C4_8 
REMARK    4  A    between atoms: C12_16  and  C5_9 
REMARK    5  A    between atoms: C12_16  and  C16_20 
REMARK    6  A    between atoms: C15_19  and  C18_22 
ROOT
HETATM    1  C3  UNK     1      19.195   4.693  31.574  1.00  0.00     0.034 A 
HETATM    2  C5  UNK     1      19.147   6.694  33.517  1.00  0.00     0.014 A 
HETATM    3  C6  UNK     1      18.323   4.592  32.657  1.00  0.00     0.030 A 
HETATM    4  C7  UNK     1      20.044   5.794  31.462  1.00  0.00     0.030 A 
HETATM    5  C8  UNK     1      18.299   5.592  33.628  1.00  0.00     0.018 A 
HETATM    6  C9  UNK     1      20.021   6.794  32.433  1.00  0.00     0.018 A 
ENDROOT
BRANCH   1   7
HETATM    7  N1  UNK     1      19.221   3.691  30.603  1.00  0.00    -0.327 N 
HETATM    8  C4  UNK     1      18.220   2.754  30.294  1.00  0.00     0.226 C 
HETATM    9  O1  UNK     1      17.126   2.646  30.837  1.00  0.00    -0.273 OA
HETATM   10  H3  UNK     1      20.078   3.652  30.057  1.00  0.00     0.169 HD
BRANCH   8  11
HETATM   11  C1  UNK     1      18.659   1.839  29.162  1.00  0.00     0.141 C 
BRANCH  11  12
HETATM   12  C2  UNK     1      19.297   0.560  29.637  1.00  0.00    -0.050 A 
HETATM   13  C10 UNK     1      19.869  -0.318  28.717  1.00  0.00     0.007 A 
HETATM   14  C13 UNK     1      20.460  -1.503  29.159  1.00  0.00     0.001 A 
HETATM   15  C17 UNK     1      20.479  -1.808  30.519  1.00  0.00     0.000 A 
HETATM   16  C14 UNK     1      19.906  -0.929  31.439  1.00  0.00     0.001 A 
HETATM   17  C11 UNK     1      19.314   0.254  30.998  1.00  0.00     0.007 A 
ENDBRANCH  11  12
ENDBRANCH   8  11
ENDBRANCH   1   7
BRANCH   2  18
HETATM   18  C12 UNK     1      19.123   7.758  34.549  1.00  0.00     0.182 C 
HETATM   19  O2  UNK     1      19.112   7.452  35.736  1.00  0.00    -0.288 OA
BRANCH  18  20
HETATM   20  C16 UNK     1      19.080   9.173  34.083  1.00  0.00     0.056 C 
HETATM   21  C18 UNK     1      17.957   9.672  33.520  1.00  0.00     0.015 C 
BRANCH  21  22
HETATM   22  C15 UNK     1      16.723   8.931  33.311  1.00  0.00    -0.036 A 
HETATM   23  C19 UNK     1      15.785   8.832  34.340  1.00  0.00     0.014 A 
HETATM   24  C21 UNK     1      14.602   8.122  34.139  1.00  0.00     0.043 A 
HETATM   25  C23 UNK     1      14.357   7.509  32.909  1.00  0.00     0.116 A 
HETATM   26  C22 UNK     1      15.294   7.608  31.882  1.00  0.00     0.043 A 
HETATM   27  F1  UNK     1      13.220   6.827  32.716  1.00  0.00    -0.206 F 
HETATM   28  C20 UNK     1      16.478   8.318  32.083  1.00  0.00     0.014 A 
ENDBRANCH  21  22
ENDBRANCH  18  20
ENDBRANCH   2  18
TORSDOF 6
ENDMDL
MODEL 2
REMARK VINA RESULT:      -8.9     15.034     17.739
REMARK  6 active torsions:
REMARK  status: ('A' for Active; 'I' for Inactive)
REMARK    1  A    between atoms: C3_7  and  N1_4 
REMARK       I    between atoms: C4_8  and  N1_4 
REMARK    2  A    between atoms: C1_5  and  C2_6 
REMARK    3  A    between atoms: C1_5  and  C4_8 
REMARK    4  A    between atoms: C12_16  and  C5_9 
REMARK    5  A    between atoms: C12_16  and  C16_20 
REMARK    6  A    between atoms: C15_19  and  C18_22 
ROOT
HETATM    1  C3  UNK     1      25.956  -8.695  38.661  1.00  0.00     0.034 A 
HETATM    2  C5  UNK     1      28.508  -8.724  37.535  1.00  0.00     0.014 A 
HETATM    3  C6  UNK     1      26.112  -8.919  37.293  1.00  0.00     0.030 A 
HETATM    4  C7  UNK     1      27.076  -8.485  39.466  1.00  0.00     0.030 A 
HETATM    5  C8  UNK     1      27.387  -8.933  36.730  1.00  0.00     0.018 A 
HETATM    6  C9  UNK     1      28.351  -8.499  38.903  1.00  0.00     0.018 A 
ENDROOT
BRANCH   1   7
HETATM    7  N1  UNK     1      24.679  -8.679  39.224  1.00  0.00    -0.327 N 
HETATM    8  C4  UNK     1      23.716  -7.657  39.167  1.00  0.00     0.226 C 
HETATM    9  O1  UNK     1      23.830  -6.575  38.603  1.00  0.00    -0.273 OA
HETATM   10  H3  UNK     1      24.431  -9.524  39.733  1.00  0.00     0.169 HD
BRANCH   8  11
HETATM   11  C1  UNK     1      22.455  -8.053  39.919  1.00  0.00     0.141 C 
BRANCH  11  12
HETATM   12  C2  UNK     1      21.272  -8.294  39.019  1.00  0.00    -0.050 A 
HETATM   13  C10 UNK     1      20.140  -7.486  39.123  1.00  0.00     0.007 A 
HETATM   14  C13 UNK     1      19.044  -7.711  38.288  1.00  0.00     0.001 A 
HETATM   15  C17 UNK     1      19.082  -8.741  37.350  1.00  0.00     0.000 A 
HETATM   16  C14 UNK     1      20.214  -9.550  37.247  1.00  0.00     0.001 A 
HETATM   17  C11 UNK     1      21.309  -9.326  38.081  1.00  0.00     0.007 A 
ENDBRANCH  11  12
ENDBRANCH   8  11
ENDBRANCH   1   7
BRANCH   2  18
HETATM   18  C12 UNK     1      29.864  -8.738  36.937  1.00  0.00     0.182 C 
HETATM   19  O2  UNK     1      29.998  -8.579  35.729  1.00  0.00    -0.288 OA
BRANCH  18  20
HETATM   20  C16 UNK     1      31.019  -8.982  37.848  1.00  0.00     0.056 C 
HETATM   21  C18 UNK     1      31.786  -7.950  38.268  1.00  0.00     0.015 C 
BRANCH  21  22
HETATM   22  C15 UNK     1      31.590  -6.556  37.903  1.00  0.00    -0.036 A 
HETATM   23  C19 UNK     1      32.342  -5.991  36.873  1.00  0.00     0.014 A 
HETATM   24  C21 UNK     1      32.153  -4.655  36.523  1.00  0.00     0.043 A 
HETATM   25  C23 UNK     1      31.213  -3.882  37.206  1.00  0.00     0.116 A 
HETATM   26  C22 UNK     1      30.461  -4.446  38.235  1.00  0.00     0.043 A 
HETATM   27  F1  UNK     1      31.031  -2.598  36.870  1.00  0.00    -0.206 F 
HETATM   28  C20 UNK     1      30.650  -5.784  38.585  1.00  0.00     0.014 A 
ENDBRANCH  21  22
ENDBRANCH  18  20
ENDBRANCH   2  18
TORSDOF 6
ENDMDL
MODEL 3
REMARK VINA RESULT:      -8.8     15.174     17.758
REMARK  6 active torsions:
REMARK  status: ('A' for Active; 'I' for Inactive)
REMARK    1  A    between atoms: C3_7  and  N1_4 
REMARK       I    between atoms: C4_8  and  N1_4 
REMARK    2  A    between atoms: C1_5  and  C2_6 
REMARK    3  A    between atoms: C1_5  and  C4_8 
REMARK    4  A    between atoms: C12_16  and  C5_9 
REMARK    5  A    between atoms: C12_16  and  C16_20 
REMARK    6  A    between atoms: C15_19  and  C18_22 
ROOT
HETATM    1  C3  UNK     1      25.954  -8.693  38.679  1.00  0.00     0.034 A 
HETATM    2  C5  UNK     1      28.499  -8.737  37.538  1.00  0.00     0.014 A 
HETATM    3  C6  UNK     1      27.075  -8.437  39.467  1.00  0.00     0.030 A 
HETATM    4  C7  UNK     1      26.104  -8.972  37.320  1.00  0.00     0.030 A 
HETATM    5  C8  UNK     1      28.347  -8.459  38.897  1.00  0.00     0.018 A 
HETATM    6  C9  UNK     1      27.377  -8.994  36.750  1.00  0.00     0.018 A 
ENDROOT
BRANCH   1   7
HETATM    7  N1  UNK     1      24.680  -8.673  39.249  1.00  0.00    -0.327 N 
HETATM    8  C4  UNK     1      23.698  -7.673  39.147  1.00  0.00     0.226 C 
HETATM    9  O1  UNK     1      23.789  -6.618  38.528  1.00  0.00    -0.273 OA
HETATM   10  H3  UNK     1      24.451  -9.495  39.802  1.00  0.00     0.169 HD
BRANCH   8  11
HETATM   11  C1  UNK     1      22.448  -8.053  39.926  1.00  0.00     0.141 C 
BRANCH  11  12
HETATM   12  C2  UNK     1      21.263  -8.352  39.048  1.00  0.00    -0.050 A 
HETATM   13  C10 UNK     1      21.329  -9.385  38.113  1.00  0.00     0.007 A 
HETATM   14  C13 UNK     1      20.229  -9.661  37.299  1.00  0.00     0.001 A 
HETATM   15  C17 UNK     1      19.064  -8.905  37.422  1.00  0.00     0.000 A 
HETATM   16  C14 UNK     1      18.998  -7.872  38.357  1.00  0.00     0.001 A 
HETATM   17  C11 UNK     1      20.097  -7.595  39.169  1.00  0.00     0.007 A 
ENDBRANCH  11  12
ENDBRANCH   8  11
ENDBRANCH   1   7
BRANCH   2  18
HETATM   18  C12 UNK     1      29.852  -8.761  36.932  1.00  0.00     0.182 C 
HETATM   19  O2  UNK     1      29.979  -8.599  35.724  1.00  0.00    -0.288 OA
BRANCH  18  20
HETATM   20  C16 UNK     1      31.009  -9.020  37.834  1.00  0.00     0.056 C 
HETATM   21  C18 UNK     1      31.792  -7.999  38.249  1.00  0.00     0.015 C 
BRANCH  21  22
HETATM   22  C15 UNK     1      31.612  -6.602  37.886  1.00  0.00    -0.036 A 
HETATM   23  C19 UNK     1      32.339  -6.056  36.828  1.00  0.00     0.014 A 
HETATM   24  C21 UNK     1      32.165  -4.717  36.480  1.00  0.00     0.043 A 
HETATM   25  C23 UNK     1      31.264  -3.923  37.191  1.00  0.00     0.116 A 
HETATM   26  C22 UNK     1      30.537  -4.469  38.248  1.00  0.00     0.043 A 
HETATM   27  F1  UNK     1      31.096  -2.637  36.856  1.00  0.00    -0.206 F 
HETATM   28  C20 UNK     1      30.711  -5.809  38.596  1.00  0.00     0.014 A 
ENDBRANCH  21  22
ENDBRANCH  18  20
ENDBRANCH   2  18
TORSDOF 6
ENDMDL
MODEL 4
REMARK VINA RESULT:      -8.7     23.609     25.851
REMARK  6 active torsions:
REMARK  status: ('A' for Active; 'I' for Inactive)
REMARK    1  A    between atoms: C3_7  and  N1_4 
REMARK       I    between atoms: C4_8  and  N1_4 
REMARK    2  A    between atoms: C1_5  and  C2_6 
REMARK    3  A    between atoms: C1_5  and  C4_8 
REMARK    4  A    between atoms: C12_16  and  C5_9 
REMARK    5  A    between atoms: C12_16  and  C16_20 
REMARK    6  A    between atoms: C15_19  and  C18_22 
ROOT
HETATM    1  C3  UNK     1      16.429  10.551   8.912  1.00  0.00     0.034 A 
HETATM    2  C5  UNK     1      14.893   8.332   9.618  1.00  0.00     0.014 A 
HETATM    3  C6  UNK     1      16.855   9.705   9.935  1.00  0.00     0.030 A 
HETATM    4  C7  UNK     1      15.234  10.288   8.241  1.00  0.00     0.030 A 
HETATM    5  C8  UNK     1      16.088   8.596  10.288  1.00  0.00     0.018 A 
HETATM    6  C9  UNK     1      14.466   9.180   8.595  1.00  0.00     0.018 A 
ENDROOT
BRANCH   1   7
HETATM    7  N1  UNK     1      17.197  11.662   8.559  1.00  0.00    -0.327 N 
HETATM    8  C4  UNK     1      18.497  11.687   8.027  1.00  0.00     0.226 C 
HETATM    9  O1  UNK     1      19.203  10.717   7.775  1.00  0.00    -0.273 OA
HETATM   10  H3  UNK     1      16.739  12.558   8.711  1.00  0.00     0.169 HD
BRANCH   8  11
HETATM   11  C1  UNK     1      18.962  13.115   7.786  1.00  0.00     0.141 C 
BRANCH  11  12
HETATM   12  C2  UNK     1      19.671  13.300   6.471  1.00  0.00    -0.050 A 
HETATM   13  C10 UNK     1      19.049  12.917   5.283  1.00  0.00     0.007 A 
HETATM   14  C13 UNK     1      19.707  13.090   4.064  1.00  0.00     0.001 A 
HETATM   15  C17 UNK     1      20.985  13.646   4.035  1.00  0.00     0.000 A 
HETATM   16  C14 UNK     1      21.607  14.029   5.223  1.00  0.00     0.001 A 
HETATM   17  C11 UNK     1      20.950  13.855   6.441  1.00  0.00     0.007 A 
ENDBRANCH  11  12
ENDBRANCH   8  11
ENDBRANCH   1   7
BRANCH   2  18
HETATM   18  C12 UNK     1      14.075   7.154   9.993  1.00  0.00     0.182 C 
HETATM   19  O2  UNK     1      13.093   7.300  10.712  1.00  0.00    -0.288 OA
BRANCH  18  20
HETATM   20  C16 UNK     1      14.515   5.820   9.495  1.00  0.00     0.056 C 
HETATM   21  C18 UNK     1      13.766   5.148   8.592  1.00  0.00     0.015 C 
BRANCH  21  22
HETATM   22  C15 UNK     1      12.510   5.617   8.029  1.00  0.00    -0.036 A 
HETATM   23  C19 UNK     1      11.304   5.321   8.667  1.00  0.00     0.014 A 
HETATM   24  C21 UNK     1      10.100   5.771   8.127  1.00  0.00     0.043 A 
HETATM   25  C23 UNK     1      10.101   6.518   6.948  1.00  0.00     0.116 A 
HETATM   26  C22 UNK     1      11.305   6.815   6.311  1.00  0.00     0.043 A 
HETATM   27  F1  UNK     1       8.945   6.952   6.430  1.00  0.00    -0.206 F 
HETATM   28  C20 UNK     1      12.510   6.364   6.852  1.00  0.00     0.014 A 
ENDBRANCH  21  22
ENDBRANCH  18  20
ENDBRANCH   2  18
TORSDOF 6
ENDMDL
MODEL 5
REMARK VINA RESULT:      -8.6     15.201     17.588
REMARK  6 active torsions:
REMARK  status: ('A' for Active; 'I' for Inactive)
REMARK    1  A    between atoms: C3_7  and  N1_4 
REMARK       I    between atoms: C4_8  and  N1_4 
REMARK    2  A    between atoms: C1_5  and  C2_6 
REMARK    3  A    between atoms: C1_5  and  C4_8 
REMARK    4  A    between atoms: C12_16  and  C5_9 
REMARK    5  A    between atoms: C12_16  and  C16_20 
REMARK    6  A    between atoms: C15_19  and  C18_22 
ROOT
HETATM    1  C3  UNK     1      25.911  -8.730  38.647  1.00  0.00     0.034 A 
HETATM    2  C5  UNK     1      28.539  -9.152  37.814  1.00  0.00     0.014 A 
HETATM    3  C6  UNK     1      26.177  -9.051  37.317  1.00  0.00     0.030 A 
HETATM    4  C7  UNK     1      26.958  -8.621  39.562  1.00  0.00     0.030 A 
HETATM    5  C8  UNK     1      27.491  -9.261  36.900  1.00  0.00     0.018 A 
HETATM    6  C9  UNK     1      28.272  -8.830  39.145  1.00  0.00     0.018 A 
ENDROOT
BRANCH   1   7
HETATM    7  N1  UNK     1      24.596  -8.518  39.064  1.00  0.00    -0.327 N 
HETATM    8  C4  UNK     1      23.880  -7.310  39.102  1.00  0.00     0.226 C 
HETATM    9  O1  UNK     1      24.292  -6.204  38.769  1.00  0.00    -0.273 OA
HETATM   10  H3  UNK     1      24.110  -9.357  39.374  1.00  0.00     0.169 HD
BRANCH   8  11
HETATM   11  C1  UNK     1      22.469  -7.527  39.626  1.00  0.00     0.141 C 
BRANCH  11  12
HETATM   12  C2  UNK     1      21.596  -8.318  38.688  1.00  0.00    -0.050 A 
HETATM   13  C10 UNK     1      21.569  -8.006  37.328  1.00  0.00     0.007 A 
HETATM   14  C13 UNK     1      20.760  -8.740  36.460  1.00  0.00     0.001 A 
HETATM   15  C17 UNK     1      19.980  -9.786  36.951  1.00  0.00     0.000 A 
HETATM   16  C14 UNK     1      20.007 -10.099  38.310  1.00  0.00     0.001 A 
HETATM   17  C11 UNK     1      20.815  -9.365  39.178  1.00  0.00     0.007 A 
ENDBRANCH  11  12
ENDBRANCH   8  11
ENDBRANCH   1   7
BRANCH   2  18
HETATM   18  C12 UNK     1      29.936  -9.374  37.372  1.00  0.00     0.182 C 
HETATM   19  O2  UNK     1      30.722  -9.959  38.109  1.00  0.00    -0.288 OA
BRANCH  18  20
HETATM   20  C16 UNK     1      30.334  -8.837  36.040  1.00  0.00     0.056 C 
HETATM   21  C18 UNK     1      30.496  -7.507  35.862  1.00  0.00     0.015 C 
BRANCH  21  22
HETATM   22  C15 UNK     1      30.313  -6.494  36.890  1.00  0.00    -0.036 A 
HETATM   23  C19 UNK     1      31.386  -6.116  37.697  1.00  0.00     0.014 A 
HETATM   24  C21 UNK     1      31.210  -5.146  38.683  1.00  0.00     0.043 A 
HETATM   25  C23 UNK     1      29.959  -4.553  38.862  1.00  0.00     0.116 A 
HETATM   26  C22 UNK     1      28.887  -4.930  38.055  1.00  0.00     0.043 A 
HETATM   27  F1  UNK     1      29.790  -3.620  39.807  1.00  0.00    -0.206 F 
HETATM   28  C20 UNK     1      29.063  -5.902  37.069  1.00  0.00     0.014 A 
ENDBRANCH  21  22
ENDBRANCH  18  20
ENDBRANCH   2  18
TORSDOF 6
ENDMDL
MODEL 6
REMARK VINA RESULT:      -8.5      8.519     13.231
REMARK  6 active torsions:
REMARK  status: ('A' for Active; 'I' for Inactive)
REMARK    1  A    between atoms: C3_7  and  N1_4 
REMARK       I    between atoms: C4_8  and  N1_4 
REMARK    2  A    between atoms: C1_5  and  C2_6 
REMARK    3  A    between atoms: C1_5  and  C4_8 
REMARK    4  A    between atoms: C12_16  and  C5_9 
REMARK    5  A    between atoms: C12_16  and  C16_20 
REMARK    6  A    between atoms: C15_19  and  C18_22 
ROOT
HETATM    1  C3  UNK     1      19.911  -3.709  35.824  1.00  0.00     0.034 A 
HETATM    2  C5  UNK     1      20.918  -5.454  37.754  1.00  0.00     0.014 A 
HETATM    3  C6  UNK     1      19.812  -5.088  35.637  1.00  0.00     0.030 A 
HETATM    4  C7  UNK     1      20.513  -3.203  36.976  1.00  0.00     0.030 A 
HETATM    5  C8  UNK     1      20.315  -5.960  36.601  1.00  0.00     0.018 A 
HETATM    6  C9  UNK     1      21.017  -4.075  37.940  1.00  0.00     0.018 A 
ENDROOT
BRANCH   1   7
HETATM    7  N1  UNK     1      19.409  -2.836  34.859  1.00  0.00    -0.327 N 
HETATM    8  C4  UNK     1      20.104  -2.195  33.820  1.00  0.00     0.226 C 
HETATM    9  O1  UNK     1      21.302  -2.289  33.574  1.00  0.00    -0.273 OA
HETATM   10  H3  UNK     1      18.410  -2.655  34.930  1.00  0.00     0.169 HD
BRANCH   8  11
HETATM   11  C1  UNK     1      19.171  -1.326  32.992  1.00  0.00     0.141 C 
BRANCH  11  12
HETATM   12  C2  UNK     1      19.648  -1.109  31.580  1.00  0.00    -0.050 A 
HETATM   13  C10 UNK     1      19.653   0.174  31.034  1.00  0.00     0.007 A 
HETATM   14  C13 UNK     1      20.096   0.373  29.726  1.00  0.00     0.001 A 
HETATM   15  C17 UNK     1      20.534  -0.710  28.965  1.00  0.00     0.000 A 
HETATM   16  C14 UNK     1      20.529  -1.993  29.512  1.00  0.00     0.001 A 
HETATM   17  C11 UNK     1      20.085  -2.193  30.819  1.00  0.00     0.007 A 
ENDBRANCH  11  12
ENDBRANCH   8  11
ENDBRANCH   1   7
BRANCH   2  18
HETATM   18  C12 UNK     1      21.454  -6.381  38.779  1.00  0.00     0.182 C 
HETATM   19  O2  UNK     1      22.652  -6.638  38.799  1.00  0.00    -0.288 OA
BRANCH  18  20
HETATM   20  C16 UNK     1      20.486  -6.992  39.733  1.00  0.00     0.056 C 
HETATM   21  C18 UNK     1      19.993  -8.230  39.507  1.00  0.00     0.015 C 
BRANCH  21  22
HETATM   22  C15 UNK     1      20.328  -9.070  38.368  1.00  0.00    -0.036 A 
HETATM   23  C19 UNK     1      19.321  -9.744  37.677  1.00  0.00     0.014 A 
HETATM   24  C21 UNK     1      19.642 -10.550  36.585  1.00  0.00     0.043 A 
HETATM   25  C23 UNK     1      20.972 -10.682  36.184  1.00  0.00     0.116 A 
HETATM   26  C22 UNK     1      21.979 -10.008  36.874  1.00  0.00     0.043 A 
HETATM   27  F1  UNK     1      21.282 -11.455  35.135  1.00  0.00    -0.206 F 
HETATM   28  C20 UNK     1      21.657  -9.202  37.967  1.00  0.00     0.014 A 
ENDBRANCH  21  22
ENDBRANCH  18  20
ENDBRANCH   2  18
TORSDOF 6
ENDMDL
MODEL 7
REMARK VINA RESULT:      -8.5     14.704     17.277
REMARK  6 active torsions:
REMARK  status: ('A' for Active; 'I' for Inactive)
REMARK    1  A    between atoms: C3_7  and  N1_4 
REMARK       I    between atoms: C4_8  and  N1_4 
REMARK    2  A    between atoms: C1_5  and  C2_6 
REMARK    3  A    between atoms: C1_5  and  C4_8 
REMARK    4  A    between atoms: C12_16  and  C5_9 
REMARK    5  A    between atoms: C12_16  and  C16_20 
REMARK    6  A    between atoms: C15_19  and  C18_22 
ROOT
HETATM    1  C3  UNK     1      25.693  -9.827  37.034  1.00  0.00     0.034 A 
HETATM    2  C5  UNK     1      23.065 -10.134  36.150  1.00  0.00     0.014 A 
HETATM    3  C6  UNK     1      25.322 -10.976  36.336  1.00  0.00     0.030 A 
HETATM    4  C7  UNK     1      24.750  -8.832  37.291  1.00  0.00     0.030 A 
HETATM    5  C8  UNK     1      24.009 -11.129  35.893  1.00  0.00     0.018 A 
HETATM    6  C9  UNK     1      23.436  -8.985  36.850  1.00  0.00     0.018 A 
ENDROOT
BRANCH   1   7
HETATM    7  N1  UNK     1      27.007  -9.674  37.478  1.00  0.00    -0.327 N 
HETATM    8  C4  UNK     1      27.513  -9.859  38.776  1.00  0.00     0.226 C 
HETATM    9  O1  UNK     1      26.877 -10.192  39.770  1.00  0.00    -0.273 OA
HETATM   10  H3  UNK     1      27.668  -9.396  36.756  1.00  0.00     0.169 HD
BRANCH   8  11
HETATM   11  C1  UNK     1      29.009  -9.586  38.823  1.00  0.00     0.141 C 
BRANCH  11  12
HETATM   12  C2  UNK     1      29.356  -8.126  38.698  1.00  0.00    -0.050 A 
HETATM   13  C10 UNK     1      28.483  -7.156  39.191  1.00  0.00     0.007 A 
HETATM   14  C13 UNK     1      28.807  -5.804  39.075  1.00  0.00     0.001 A 
HETATM   15  C17 UNK     1      30.002  -5.422  38.468  1.00  0.00     0.000 A 
HETATM   16  C14 UNK     1      30.875  -6.392  37.975  1.00  0.00     0.001 A 
HETATM   17  C11 UNK     1      30.552  -7.744  38.089  1.00  0.00     0.007 A 
ENDBRANCH  11  12
ENDBRANCH   8  11
ENDBRANCH   1   7
BRANCH   2  18
HETATM   18  C12 UNK     1      21.668 -10.296  35.681  1.00  0.00     0.182 C 
HETATM   19  O2  UNK     1      21.240  -9.578  34.785  1.00  0.00    -0.288 OA
BRANCH  18  20
HETATM   20  C16 UNK     1      20.827 -11.324  36.358  1.00  0.00     0.056 C 
HETATM   21  C18 UNK     1      20.082 -10.993  37.436  1.00  0.00     0.015 C 
BRANCH  21  22
HETATM   22  C15 UNK     1      20.015  -9.669  38.035  1.00  0.00    -0.036 A 
HETATM   23  C19 UNK     1      19.103  -8.730  37.552  1.00  0.00     0.014 A 
HETATM   24  C21 UNK     1      19.039  -7.461  38.126  1.00  0.00     0.043 A 
HETATM   25  C23 UNK     1      19.887  -7.130  39.184  1.00  0.00     0.116 A 
HETATM   26  C22 UNK     1      20.798  -8.069  39.667  1.00  0.00     0.043 A 
HETATM   27  F1  UNK     1      19.825  -5.912  39.736  1.00  0.00    -0.206 F 
HETATM   28  C20 UNK     1      20.862  -9.338  39.092  1.00  0.00     0.014 A 
ENDBRANCH  21  22
ENDBRANCH  18  20
ENDBRANCH   2  18
TORSDOF 6
ENDMDL
MODEL 8
REMARK VINA RESULT:      -8.3     16.021     18.047
REMARK  6 active torsions:
REMARK  status: ('A' for Active; 'I' for Inactive)
REMARK    1  A    between atoms: C3_7  and  N1_4 
REMARK       I    between atoms: C4_8  and  N1_4 
REMARK    2  A    between atoms: C1_5  and  C2_6 
REMARK    3  A    between atoms: C1_5  and  C4_8 
REMARK    4  A    between atoms: C12_16  and  C5_9 
REMARK    5  A    between atoms: C12_16  and  C16_20 
REMARK    6  A    between atoms: C15_19  and  C18_22 
ROOT
HETATM    1  C3  UNK     1      29.068  -7.632  34.182  1.00  0.00     0.034 A 
HETATM    2  C5  UNK     1      30.428  -7.529  36.616  1.00  0.00     0.014 A 
HETATM    3  C6  UNK     1      30.407  -8.015  34.249  1.00  0.00     0.030 A 
HETATM    4  C7  UNK     1      28.408  -7.198  35.332  1.00  0.00     0.030 A 
HETATM    5  C8  UNK     1      31.087  -7.963  35.465  1.00  0.00     0.018 A 
HETATM    6  C9  UNK     1      29.089  -7.146  36.548  1.00  0.00     0.018 A 
ENDROOT
BRANCH   1   7
HETATM    7  N1  UNK     1      28.387  -7.683  32.965  1.00  0.00    -0.327 N 
HETATM    8  C4  UNK     1      28.123  -6.630  32.072  1.00  0.00     0.226 C 
HETATM    9  O1  UNK     1      28.449  -5.456  32.208  1.00  0.00    -0.273 OA
HETATM   10  H3  UNK     1      28.050  -8.607  32.707  1.00  0.00     0.169 HD
BRANCH   8  11
HETATM   11  C1  UNK     1      27.350  -7.124  30.859  1.00  0.00     0.141 C 
BRANCH  11  12
HETATM   12  C2  UNK     1      28.174  -7.975  29.930  1.00  0.00    -0.050 A 
HETATM   13  C10 UNK     1      27.654  -9.172  29.435  1.00  0.00     0.007 A 
HETATM   14  C13 UNK     1      28.418  -9.960  28.573  1.00  0.00     0.001 A 
HETATM   15  C17 UNK     1      29.700  -9.551  28.207  1.00  0.00     0.000 A 
HETATM   16  C14 UNK     1      30.219  -8.355  28.702  1.00  0.00     0.001 A 
HETATM   17  C11 UNK     1      29.457  -7.568  29.564  1.00  0.00     0.007 A 
ENDBRANCH  11  12
ENDBRANCH   8  11
ENDBRANCH   1   7
BRANCH   2  18
HETATM   18  C12 UNK     1      31.151  -7.473  37.908  1.00  0.00     0.182 C 
HETATM   19  O2  UNK     1      31.771  -8.454  38.302  1.00  0.00    -0.288 OA
BRANCH  18  20
HETATM   20  C16 UNK     1      31.059  -6.212  38.697  1.00  0.00     0.056 C 
HETATM   21  C18 UNK     1      31.763  -5.120  38.323  1.00  0.00     0.015 C 
BRANCH  21  22
HETATM   22  C15 UNK     1      32.647  -5.047  37.170  1.00  0.00    -0.036 A 
HETATM   23  C19 UNK     1      33.916  -5.624  37.225  1.00  0.00     0.014 A 
HETATM   24  C21 UNK     1      34.763  -5.553  36.120  1.00  0.00     0.043 A 
HETATM   25  C23 UNK     1      34.341  -4.905  34.958  1.00  0.00     0.116 A 
HETATM   26  C22 UNK     1      33.072  -4.330  34.903  1.00  0.00     0.043 A 
HETATM   27  F1  UNK     1      35.154  -4.838  33.896  1.00  0.00    -0.206 F 
HETATM   28  C20 UNK     1      32.226  -4.400  36.010  1.00  0.00     0.014 A 
ENDBRANCH  21  22
ENDBRANCH  18  20
ENDBRANCH   2  18
TORSDOF 6
ENDMDL
MODEL 9
REMARK VINA RESULT:      -8.2     23.189     24.996
REMARK  6 active torsions:
REMARK  status: ('A' for Active; 'I' for Inactive)
REMARK    1  A    between atoms: C3_7  and  N1_4 
REMARK       I    between atoms: C4_8  and  N1_4 
REMARK    2  A    between atoms: C1_5  and  C2_6 
REMARK    3  A    between atoms: C1_5  and  C4_8 
REMARK    4  A    between atoms: C12_16  and  C5_9 
REMARK    5  A    between atoms: C12_16  and  C16_20 
REMARK    6  A    between atoms: C15_19  and  C18_22 
ROOT
HETATM    1  C3  UNK     1      14.903   8.318   9.105  1.00  0.00     0.034 A 
HETATM    2  C5  UNK     1      16.384  10.548   9.891  1.00  0.00     0.014 A 
HETATM    3  C6  UNK     1      16.011   8.162   9.938  1.00  0.00     0.030 A 
HETATM    4  C7  UNK     1      14.535   9.590   8.665  1.00  0.00     0.030 A 
HETATM    5  C8  UNK     1      16.751   9.276  10.330  1.00  0.00     0.018 A 
HETATM    6  C9  UNK     1      15.276  10.704   9.057  1.00  0.00     0.018 A 
ENDROOT
BRANCH   1   7
HETATM    7  N1  UNK     1      14.163   7.203   8.712  1.00  0.00    -0.327 N 
HETATM    8  C4  UNK     1      13.169   6.520   9.433  1.00  0.00     0.226 C 
HETATM    9  O1  UNK     1      12.769   6.788  10.561  1.00  0.00    -0.273 OA
HETATM   10  H3  UNK     1      14.382   6.857   7.780  1.00  0.00     0.169 HD
BRANCH   8  11
HETATM   11  C1  UNK     1      12.613   5.355   8.629  1.00  0.00     0.141 C 
BRANCH  11  12
HETATM   12  C2  UNK     1      11.409   5.717   7.802  1.00  0.00    -0.050 A 
HETATM   13  C10 UNK     1      11.557   6.020   6.449  1.00  0.00     0.007 A 
HETATM   14  C13 UNK     1      10.439   6.355   5.683  1.00  0.00     0.001 A 
HETATM   15  C17 UNK     1       9.175   6.387   6.271  1.00  0.00     0.000 A 
HETATM   16  C14 UNK     1       9.027   6.084   7.624  1.00  0.00     0.001 A 
HETATM   17  C11 UNK     1      10.144   5.750   8.390  1.00  0.00     0.007 A 
ENDBRANCH  11  12
ENDBRANCH   8  11
ENDBRANCH   1   7
BRANCH   2  18
HETATM   18  C12 UNK     1      17.171  11.733  10.306  1.00  0.00     0.182 C 
HETATM   19  O2  UNK     1      16.632  12.833  10.363  1.00  0.00    -0.288 OA
BRANCH  18  20
HETATM   20  C16 UNK     1      18.617  11.532  10.610  1.00  0.00     0.056 C 
HETATM   21  C18 UNK     1      19.558  11.863   9.697  1.00  0.00     0.015 C 
BRANCH  21  22
HETATM   22  C15 UNK     1      19.290  12.424   8.382  1.00  0.00    -0.036 A 
HETATM   23  C19 UNK     1      19.023  11.579   7.304  1.00  0.00     0.014 A 
HETATM   24  C21 UNK     1      18.767  12.118   6.043  1.00  0.00     0.043 A 
HETATM   25  C23 UNK     1      18.778  13.501   5.861  1.00  0.00     0.116 A 
HETATM   26  C22 UNK     1      19.044  14.345   6.938  1.00  0.00     0.043 A 
HETATM   27  F1  UNK     1      18.531  14.018   4.650  1.00  0.00    -0.206 F 
HETATM   28  C20 UNK     1      19.301  13.806   8.199  1.00  0.00     0.014 A 
ENDBRANCH  21  22
ENDBRANCH  18  20
ENDBRANCH   2  18
TORSDOF 6
ENDMDL
MODEL 10
REMARK VINA RESULT:      -8.2      9.256     14.075
REMARK  6 active torsions:
REMARK  status: ('A' for Active; 'I' for Inactive)
REMARK    1  A    between atoms: C3_7  and  N1_4 
REMARK       I    between atoms: C4_8  and  N1_4 
REMARK    2  A    between atoms: C1_5  and  C2_6 
REMARK    3  A    between atoms: C1_5  and  C4_8 
REMARK    4  A    between atoms: C12_16  and  C5_9 
REMARK    5  A    between atoms: C12_16  and  C16_20 
REMARK    6  A    between atoms: C15_19  and  C18_22 
ROOT
HETATM    1  C3  UNK     1      19.505  -5.263  36.051  1.00  0.00     0.034 A 
HETATM    2  C5  UNK     1      19.562  -7.961  36.754  1.00  0.00     0.014 A 
HETATM    3  C6  UNK     1      18.422  -5.832  36.721  1.00  0.00     0.030 A 
HETATM    4  C7  UNK     1      20.617  -6.043  35.732  1.00  0.00     0.030 A 
HETATM    5  C8  UNK     1      18.450  -7.180  37.072  1.00  0.00     0.018 A 
HETATM    6  C9  UNK     1      20.645  -7.392  36.083  1.00  0.00     0.018 A 
ENDROOT
BRANCH   1   7
HETATM    7  N1  UNK     1      19.476  -3.913  35.698  1.00  0.00    -0.327 N 
HETATM    8  C4  UNK     1      19.723  -2.795  36.513  1.00  0.00     0.226 C 
HETATM    9  O1  UNK     1      20.013  -2.808  37.705  1.00  0.00    -0.273 OA
HETATM   10  H3  UNK     1      19.248  -3.735  34.722  1.00  0.00     0.169 HD
BRANCH   8  11
HETATM   11  C1  UNK     1      19.586  -1.502  35.724  1.00  0.00     0.141 C 
BRANCH  11  12
HETATM   12  C2  UNK     1      18.266  -0.809  35.935  1.00  0.00    -0.050 A 
HETATM   13  C10 UNK     1      18.036  -0.088  37.107  1.00  0.00     0.007 A 
HETATM   14  C13 UNK     1      16.812   0.555  37.300  1.00  0.00     0.001 A 
HETATM   15  C17 UNK     1      15.821   0.477  36.323  1.00  0.00     0.000 A 
HETATM   16  C14 UNK     1      16.052  -0.244  35.151  1.00  0.00     0.001 A 
HETATM   17  C11 UNK     1      17.274  -0.888  34.957  1.00  0.00     0.007 A 
ENDBRANCH  11  12
ENDBRANCH   8  11
ENDBRANCH   1   7
BRANCH   2  18
HETATM   18  C12 UNK     1      19.593  -9.396  37.127  1.00  0.00     0.182 C 
HETATM   19  O2  UNK     1      19.877 -10.237  36.282  1.00  0.00    -0.288 OA
BRANCH  18  20
HETATM   20  C16 UNK     1      19.238  -9.754  38.529  1.00  0.00     0.056 C 
HETATM   21  C18 UNK     1      19.944  -9.244  39.563  1.00  0.00     0.015 C 
BRANCH  21  22
HETATM   22  C15 UNK     1      21.074  -8.336  39.441  1.00  0.00    -0.036 A 
HETATM   23  C19 UNK     1      22.352  -8.840  39.199  1.00  0.00     0.014 A 
HETATM   24  C21 UNK     1      23.435  -7.969  39.081  1.00  0.00     0.043 A 
HETATM   25  C23 UNK     1      23.239  -6.593  39.206  1.00  0.00     0.116 A 
HETATM   26  C22 UNK     1      21.962  -6.089  39.446  1.00  0.00     0.043 A 
HETATM   27  F1  UNK     1      24.279  -5.756  39.092  1.00  0.00    -0.206 F 
HETATM   28  C20 UNK     1      20.879  -6.961  39.565  1.00  0.00     0.014 A 
ENDBRANCH  21  22
ENDBRANCH  18  20
ENDBRANCH   2  18
TORSDOF 6
ENDMDL
