MODEL 1
REMARK VINA RESULT:      -9.1      0.000      0.000
REMARK  3 active torsions:
REMARK  status: ('A' for Active; 'I' for Inactive)
REMARK    1  A    between atoms: C14_17  and  O2_2 
REMARK    2  A    between atoms: C1_4  and  C2_5 
REMARK    3  A    between atoms: C11_14  and  C8_11 
ROOT
HETATM    1  O1  UNK     1      19.496   1.140  31.493  1.00  0.00    -0.306 OA
HETATM    2  O3  UNK     1      18.907   0.150  27.585  1.00  0.00    -0.284 OA
HETATM    3  C11 UNK     1      18.945   2.040  30.595  1.00  0.00     0.123 A 
HETATM    4  C12 UNK     1      19.833  -0.111  31.043  1.00  0.00     0.091 A 
HETATM    5  C13 UNK     1      19.655  -0.512  29.721  1.00  0.00     0.051 A 
HETATM    6  C14 UNK     1      18.730   1.782  29.291  1.00  0.00     0.152 A 
HETATM    7  C15 UNK     1      19.082   0.443  28.759  1.00  0.00     0.220 A 
HETATM    8  C16 UNK     1      20.377  -0.996  31.974  1.00  0.00     0.045 A 
HETATM    9  C17 UNK     1      20.741  -2.283  31.576  1.00  0.00    -0.059 A 
HETATM   10  C18 UNK     1      20.018  -1.799  29.319  1.00  0.00     0.019 A 
HETATM   11  C19 UNK     1      20.562  -2.684  30.251  1.00  0.00     0.008 A 
HETATM   12  C20 UNK     1      21.323  -3.233  32.569  1.00  0.00     0.048 C 
ENDROOT
BRANCH   3  13
HETATM   13  C8  UNK     1      18.630   3.343  31.207  1.00  0.00     0.001 A 
HETATM   14  C10 UNK     1      18.088   3.398  32.490  1.00  0.00     0.015 A 
HETATM   15  C7  UNK     1      17.791   4.633  33.070  1.00  0.00     0.009 A 
HETATM   16  C2  UNK     1      18.035   5.811  32.365  1.00  0.00    -0.051 A 
HETATM   17  C6  UNK     1      18.577   5.756  31.081  1.00  0.00     0.009 A 
HETATM   18  C9  UNK     1      18.875   4.522  30.502  1.00  0.00     0.015 A 
BRANCH  16  19
HETATM   19  C1  UNK     1      17.718   7.130  32.985  1.00  0.00    -0.024 C 
HETATM   20  C3  UNK     1      16.848   6.957  34.269  1.00  0.00     0.019 C 
HETATM   21  C4  UNK     1      16.925   8.043  31.999  1.00  0.00     0.019 C 
HETATM   22  C5  UNK     1      18.956   7.976  33.433  1.00  0.00     0.019 C 
ENDBRANCH  16  19
ENDBRANCH   3  13
BRANCH   6  23
HETATM   23  O2  UNK     1      18.210   2.711  28.416  1.00  0.00    -0.355 OA
HETATM   24  H20 UNK     1      17.436   3.141  28.813  1.00  0.00     0.218 HD
ENDBRANCH   6  23
TORSDOF 3
ENDMDL
MODEL 2
REMARK VINA RESULT:      -8.8      5.225     10.423
REMARK  3 active torsions:
REMARK  status: ('A' for Active; 'I' for Inactive)
REMARK    1  A    between atoms: C14_17  and  O2_2 
REMARK    2  A    between atoms: C1_4  and  C2_5 
REMARK    3  A    between atoms: C11_14  and  C8_11 
ROOT
HETATM    1  O1  UNK     1      20.145  -3.193  34.519  1.00  0.00    -0.306 OA
HETATM    2  O3  UNK     1      17.800  -0.170  35.918  1.00  0.00    -0.284 OA
HETATM    3  C11 UNK     1      19.658  -3.198  35.816  1.00  0.00     0.123 A 
HETATM    4  C12 UNK     1      19.811  -2.147  33.698  1.00  0.00     0.091 A 
HETATM    5  C13 UNK     1      19.013  -1.085  34.114  1.00  0.00     0.051 A 
HETATM    6  C14 UNK     1      18.885  -2.230  36.344  1.00  0.00     0.152 A 
HETATM    7  C15 UNK     1      18.502  -1.077  35.494  1.00  0.00     0.220 A 
HETATM    8  C16 UNK     1      20.311  -2.176  32.396  1.00  0.00     0.045 A 
HETATM    9  C17 UNK     1      20.008  -1.139  31.513  1.00  0.00    -0.059 A 
HETATM   10  C18 UNK     1      18.706  -0.045  33.234  1.00  0.00     0.019 A 
HETATM   11  C19 UNK     1      19.207  -0.075  31.931  1.00  0.00     0.008 A 
HETATM   12  C20 UNK     1      20.540  -1.166  30.119  1.00  0.00     0.048 C 
ENDROOT
BRANCH   3  13
HETATM   13  C8  UNK     1      20.091  -4.376  36.589  1.00  0.00     0.001 A 
HETATM   14  C10 UNK     1      19.386  -5.575  36.486  1.00  0.00     0.015 A 
HETATM   15  C7  UNK     1      19.797  -6.691  37.217  1.00  0.00     0.009 A 
HETATM   16  C2  UNK     1      20.911  -6.607  38.051  1.00  0.00    -0.051 A 
HETATM   17  C6  UNK     1      21.616  -5.407  38.154  1.00  0.00     0.009 A 
HETATM   18  C9  UNK     1      21.206  -4.292  37.422  1.00  0.00     0.015 A 
BRANCH  16  19
HETATM   19  C1  UNK     1      21.350  -7.799  38.832  1.00  0.00    -0.024 C 
HETATM   20  C3  UNK     1      21.952  -8.895  37.898  1.00  0.00     0.019 C 
HETATM   21  C4  UNK     1      20.157  -8.442  39.604  1.00  0.00     0.019 C 
HETATM   22  C5  UNK     1      22.448  -7.526  39.913  1.00  0.00     0.019 C 
ENDBRANCH  16  19
ENDBRANCH   3  13
BRANCH   6  23
HETATM   23  O2  UNK     1      18.443  -2.249  37.649  1.00  0.00    -0.355 OA
HETATM   24  H20 UNK     1      19.189  -2.414  38.247  1.00  0.00     0.218 HD
ENDBRANCH   6  23
TORSDOF 3
ENDMDL
MODEL 3
REMARK VINA RESULT:      -8.8      5.728     10.897
REMARK  3 active torsions:
REMARK  status: ('A' for Active; 'I' for Inactive)
REMARK    1  A    between atoms: C14_17  and  O2_2 
REMARK    2  A    between atoms: C1_4  and  C2_5 
REMARK    3  A    between atoms: C11_14  and  C8_11 
ROOT
HETATM    1  O1  UNK     1      18.925  -2.326  37.054  1.00  0.00    -0.306 OA
HETATM    2  O3  UNK     1      19.639  -1.343  33.165  1.00  0.00    -0.284 OA
HETATM    3  C11 UNK     1      19.596  -3.189  36.202  1.00  0.00     0.123 A 
HETATM    4  C12 UNK     1      18.511  -1.114  36.565  1.00  0.00     0.091 A 
HETATM    5  C13 UNK     1      18.726  -0.717  35.248  1.00  0.00     0.051 A 
HETATM    6  C14 UNK     1      19.859  -2.931  34.907  1.00  0.00     0.152 A 
HETATM    7  C15 UNK     1      19.426  -1.634  34.334  1.00  0.00     0.220 A 
HETATM    8  C16 UNK     1      17.846  -0.265  37.450  1.00  0.00     0.045 A 
HETATM    9  C17 UNK     1      17.399   0.982  37.012  1.00  0.00    -0.059 A 
HETATM   10  C18 UNK     1      18.279   0.530  34.805  1.00  0.00     0.019 A 
HETATM   11  C19 UNK     1      17.615   1.378  35.691  1.00  0.00     0.008 A 
HETATM   12  C20 UNK     1      16.687   1.893  37.955  1.00  0.00     0.048 C 
ENDROOT
BRANCH   3  13
HETATM   13  C8  UNK     1      19.985  -4.453  36.853  1.00  0.00     0.001 A 
HETATM   14  C10 UNK     1      19.177  -5.582  36.721  1.00  0.00     0.015 A 
HETATM   15  C7  UNK     1      19.546  -6.779  37.336  1.00  0.00     0.009 A 
HETATM   16  C2  UNK     1      20.721  -6.847  38.084  1.00  0.00    -0.051 A 
HETATM   17  C6  UNK     1      21.529  -5.717  38.216  1.00  0.00     0.009 A 
HETATM   18  C9  UNK     1      21.161  -4.520  37.600  1.00  0.00     0.015 A 
BRANCH  16  19
HETATM   19  C1  UNK     1      21.115  -8.126  38.740  1.00  0.00    -0.024 C 
HETATM   20  C3  UNK     1      21.695  -9.139  37.703  1.00  0.00     0.019 C 
HETATM   21  C4  UNK     1      19.894  -8.808  39.431  1.00  0.00     0.019 C 
HETATM   22  C5  UNK     1      22.208  -8.000  39.853  1.00  0.00     0.019 C 
ENDBRANCH  16  19
ENDBRANCH   3  13
BRANCH   6  23
HETATM   23  O2  UNK     1      20.500  -3.825  34.078  1.00  0.00    -0.355 OA
HETATM   24  H20 UNK     1      21.210  -4.274  34.563  1.00  0.00     0.218 HD
ENDBRANCH   6  23
TORSDOF 3
ENDMDL
MODEL 4
REMARK VINA RESULT:      -8.3     13.059     15.301
REMARK  3 active torsions:
REMARK  status: ('A' for Active; 'I' for Inactive)
REMARK    1  A    between atoms: C14_17  and  O2_2 
REMARK    2  A    between atoms: C1_4  and  C2_5 
REMARK    3  A    between atoms: C11_14  and  C8_11 
ROOT
HETATM    1  O1  UNK     1      26.618  -7.002  38.155  1.00  0.00    -0.306 OA
HETATM    2  O3  UNK     1      29.161 -10.092  38.917  1.00  0.00    -0.284 OA
HETATM    3  C11 UNK     1      26.148  -8.286  38.380  1.00  0.00     0.123 A 
HETATM    4  C12 UNK     1      27.970  -6.782  38.206  1.00  0.00     0.091 A 
HETATM    5  C13 UNK     1      28.891  -7.794  38.464  1.00  0.00     0.051 A 
HETATM    6  C14 UNK     1      26.931  -9.352  38.630  1.00  0.00     0.152 A 
HETATM    7  C15 UNK     1      28.400  -9.162  38.691  1.00  0.00     0.220 A 
HETATM    8  C16 UNK     1      28.410  -5.477  37.984  1.00  0.00     0.045 A 
HETATM    9  C17 UNK     1      29.775  -5.189  38.021  1.00  0.00    -0.059 A 
HETATM   10  C18 UNK     1      30.258  -7.510  38.502  1.00  0.00     0.019 A 
HETATM   11  C19 UNK     1      30.697  -6.204  38.280  1.00  0.00     0.008 A 
HETATM   12  C20 UNK     1      30.250  -3.795  37.784  1.00  0.00     0.048 C 
ENDROOT
BRANCH   3  13
HETATM   13  C8  UNK     1      24.680  -8.384  38.296  1.00  0.00     0.001 A 
HETATM   14  C10 UNK     1      23.890  -7.952  39.361  1.00  0.00     0.015 A 
HETATM   15  C7  UNK     1      22.499  -8.044  39.282  1.00  0.00     0.009 A 
HETATM   16  C2  UNK     1      21.900  -8.569  38.137  1.00  0.00    -0.051 A 
HETATM   17  C6  UNK     1      22.690  -9.002  37.072  1.00  0.00     0.009 A 
HETATM   18  C9  UNK     1      24.079  -8.909  37.152  1.00  0.00     0.015 A 
BRANCH  16  19
HETATM   19  C1  UNK     1      20.414  -8.666  38.052  1.00  0.00    -0.024 C 
HETATM   20  C3  UNK     1      19.925  -8.560  36.573  1.00  0.00     0.019 C 
HETATM   21  C4  UNK     1      19.724  -7.524  38.859  1.00  0.00     0.019 C 
HETATM   22  C5  UNK     1      19.796  -9.996  38.599  1.00  0.00     0.019 C 
ENDBRANCH  16  19
ENDBRANCH   3  13
BRANCH   6  23
HETATM   23  O2  UNK     1      26.434 -10.624  38.817  1.00  0.00    -0.355 OA
HETATM   24  H20 UNK     1      25.488 -10.579  39.033  1.00  0.00     0.218 HD
ENDBRANCH   6  23
TORSDOF 3
ENDMDL
MODEL 5
REMARK VINA RESULT:      -8.2     13.383     15.137
REMARK  3 active torsions:
REMARK  status: ('A' for Active; 'I' for Inactive)
REMARK    1  A    between atoms: C14_17  and  O2_2 
REMARK    2  A    between atoms: C1_4  and  C2_5 
REMARK    3  A    between atoms: C11_14  and  C8_11 
ROOT
HETATM    1  O1  UNK     1      26.307  -8.569  38.389  1.00  0.00    -0.306 OA
HETATM    2  O3  UNK     1      27.356  -4.667  38.913  1.00  0.00    -0.284 OA
HETATM    3  C11 UNK     1      25.351  -7.577  38.532  1.00  0.00     0.123 A 
HETATM    4  C12 UNK     1      27.630  -8.211  38.414  1.00  0.00     0.091 A 
HETATM    5  C13 UNK     1      28.055  -6.896  38.587  1.00  0.00     0.051 A 
HETATM    6  C14 UNK     1      25.627  -6.272  38.715  1.00  0.00     0.152 A 
HETATM    7  C15 UNK     1      27.045  -5.839  38.753  1.00  0.00     0.220 A 
HETATM    8  C16 UNK     1      28.568  -9.233  38.259  1.00  0.00     0.045 A 
HETATM    9  C17 UNK     1      29.931  -8.932  38.276  1.00  0.00    -0.059 A 
HETATM   10  C18 UNK     1      29.417  -6.591  38.605  1.00  0.00     0.019 A 
HETATM   11  C19 UNK     1      30.354  -7.613  38.450  1.00  0.00     0.008 A 
HETATM   12  C20 UNK     1      30.937 -10.021  38.110  1.00  0.00     0.048 C 
ENDROOT
BRANCH   3  13
HETATM   13  C8  UNK     1      23.972  -8.096  38.487  1.00  0.00     0.001 A 
HETATM   14  C10 UNK     1      23.170  -8.045  39.627  1.00  0.00     0.015 A 
HETATM   15  C7  UNK     1      21.864  -8.536  39.584  1.00  0.00     0.009 A 
HETATM   16  C2  UNK     1      21.361  -9.077  38.402  1.00  0.00    -0.051 A 
HETATM   17  C6  UNK     1      22.163  -9.128  37.262  1.00  0.00     0.009 A 
HETATM   18  C9  UNK     1      23.468  -8.637  37.304  1.00  0.00     0.015 A 
BRANCH  16  19
HETATM   19  C1  UNK     1      19.966  -9.601  38.356  1.00  0.00    -0.024 C 
HETATM   20  C3  UNK     1      18.949  -8.469  38.005  1.00  0.00     0.019 C 
HETATM   21  C4  UNK     1      19.541 -10.204  39.731  1.00  0.00     0.019 C 
HETATM   22  C5  UNK     1      19.707 -10.732  37.306  1.00  0.00     0.019 C 
ENDBRANCH  16  19
ENDBRANCH   3  13
BRANCH   6  23
HETATM   23  O2  UNK     1      24.652  -5.314  38.887  1.00  0.00    -0.355 OA
HETATM   24  H20 UNK     1      25.024  -4.432  38.728  1.00  0.00     0.218 HD
ENDBRANCH   6  23
TORSDOF 3
ENDMDL
MODEL 6
REMARK VINA RESULT:      -8.2     21.785     23.154
REMARK  3 active torsions:
REMARK  status: ('A' for Active; 'I' for Inactive)
REMARK    1  A    between atoms: C14_17  and  O2_2 
REMARK    2  A    between atoms: C1_4  and  C2_5 
REMARK    3  A    between atoms: C11_14  and  C8_11 
ROOT
HETATM    1  O1  UNK     1      14.269   8.331   8.906  1.00  0.00    -0.306 OA
HETATM    2  O3  UNK     1      15.684   4.587   9.666  1.00  0.00    -0.284 OA
HETATM    3  C11 UNK     1      15.465   8.133   9.578  1.00  0.00     0.123 A 
HETATM    4  C12 UNK     1      13.566   7.232   8.484  1.00  0.00     0.091 A 
HETATM    5  C13 UNK     1      13.996   5.927   8.710  1.00  0.00     0.051 A 
HETATM    6  C14 UNK     1      15.986   6.926   9.868  1.00  0.00     0.152 A 
HETATM    7  C15 UNK     1      15.258   5.710   9.434  1.00  0.00     0.220 A 
HETATM    8  C16 UNK     1      12.370   7.465   7.803  1.00  0.00     0.045 A 
HETATM    9  C17 UNK     1      11.609   6.388   7.350  1.00  0.00    -0.059 A 
HETATM   10  C18 UNK     1      13.237   4.846   8.257  1.00  0.00     0.019 A 
HETATM   11  C19 UNK     1      12.041   5.080   7.577  1.00  0.00     0.008 A 
HETATM   12  C20 UNK     1      10.330   6.633   6.621  1.00  0.00     0.048 C 
ENDROOT
BRANCH   3  13
HETATM   13  C8  UNK     1      16.117   9.394   9.975  1.00  0.00     0.001 A 
HETATM   14  C10 UNK     1      15.498  10.241  10.894  1.00  0.00     0.015 A 
HETATM   15  C7  UNK     1      16.116  11.434  11.270  1.00  0.00     0.009 A 
HETATM   16  C2  UNK     1      17.353  11.780  10.727  1.00  0.00    -0.051 A 
HETATM   17  C6  UNK     1      17.972  10.933   9.808  1.00  0.00     0.009 A 
HETATM   18  C9  UNK     1      17.355   9.740   9.432  1.00  0.00     0.015 A 
BRANCH  16  19
HETATM   19  C1  UNK     1      18.014  13.054  11.130  1.00  0.00    -0.024 C 
HETATM   20  C3  UNK     1      18.059  14.068   9.943  1.00  0.00     0.019 C 
HETATM   21  C4  UNK     1      19.483  12.808  11.594  1.00  0.00     0.019 C 
HETATM   22  C5  UNK     1      17.327  13.823  12.307  1.00  0.00     0.019 C 
ENDBRANCH  16  19
ENDBRANCH   3  13
BRANCH   6  23
HETATM   23  O2  UNK     1      17.163   6.763  10.566  1.00  0.00    -0.355 OA
HETATM   24  H20 UNK     1      17.720   6.103  10.124  1.00  0.00     0.218 HD
ENDBRANCH   6  23
TORSDOF 3
ENDMDL
MODEL 7
REMARK VINA RESULT:      -8.0     12.550     15.153
REMARK  3 active torsions:
REMARK  status: ('A' for Active; 'I' for Inactive)
REMARK    1  A    between atoms: C14_17  and  O2_2 
REMARK    2  A    between atoms: C1_4  and  C2_5 
REMARK    3  A    between atoms: C11_14  and  C8_11 
ROOT
HETATM    1  O1  UNK     1      26.854  -7.603  37.257  1.00  0.00    -0.306 OA
HETATM    2  O3  UNK     1      29.018 -10.267  39.453  1.00  0.00    -0.284 OA
HETATM    3  C11 UNK     1      26.246  -8.449  38.170  1.00  0.00     0.123 A 
HETATM    4  C12 UNK     1      28.216  -7.668  37.111  1.00  0.00     0.091 A 
HETATM    5  C13 UNK     1      29.012  -8.553  37.832  1.00  0.00     0.051 A 
HETATM    6  C14 UNK     1      26.898  -9.356  38.921  1.00  0.00     0.152 A 
HETATM    7  C15 UNK     1      28.372  -9.464  38.794  1.00  0.00     0.220 A 
HETATM    8  C16 UNK     1      28.799  -6.797  36.190  1.00  0.00     0.045 A 
HETATM    9  C17 UNK     1      30.181  -6.816  35.995  1.00  0.00    -0.059 A 
HETATM   10  C18 UNK     1      30.396  -8.576  37.641  1.00  0.00     0.019 A 
HETATM   11  C19 UNK     1      30.977  -7.704  36.719  1.00  0.00     0.008 A 
HETATM   12  C20 UNK     1      30.808  -5.886  35.011  1.00  0.00     0.048 C 
ENDROOT
BRANCH   3  13
HETATM   13  C8  UNK     1      24.784  -8.277  38.227  1.00  0.00     0.001 A 
HETATM   14  C10 UNK     1      23.967  -8.932  37.305  1.00  0.00     0.015 A 
HETATM   15  C7  UNK     1      22.582  -8.770  37.361  1.00  0.00     0.009 A 
HETATM   16  C2  UNK     1      22.014  -7.953  38.338  1.00  0.00    -0.051 A 
HETATM   17  C6  UNK     1      22.830  -7.298  39.260  1.00  0.00     0.009 A 
HETATM   18  C9  UNK     1      24.215  -7.461  39.205  1.00  0.00     0.015 A 
BRANCH  16  19
HETATM   19  C1  UNK     1      20.534  -7.781  38.398  1.00  0.00    -0.024 C 
HETATM   20  C3  UNK     1      19.930  -7.580  36.972  1.00  0.00     0.019 C 
HETATM   21  C4  UNK     1      20.143  -6.536  39.253  1.00  0.00     0.019 C 
HETATM   22  C5  UNK     1      19.744  -8.979  39.019  1.00  0.00     0.019 C 
ENDBRANCH  16  19
ENDBRANCH   3  13
BRANCH   6  23
HETATM   23  O2  UNK     1      26.259 -10.206  39.798  1.00  0.00    -0.355 OA
HETATM   24  H20 UNK     1      26.748 -11.042  39.862  1.00  0.00     0.218 HD
ENDBRANCH   6  23
TORSDOF 3
ENDMDL
MODEL 8
REMARK VINA RESULT:      -8.0     14.446     16.356
REMARK  3 active torsions:
REMARK  status: ('A' for Active; 'I' for Inactive)
REMARK    1  A    between atoms: C14_17  and  O2_2 
REMARK    2  A    between atoms: C1_4  and  C2_5 
REMARK    3  A    between atoms: C11_14  and  C8_11 
ROOT
HETATM    1  O1  UNK     1      28.495  -8.720  35.567  1.00  0.00    -0.306 OA
HETATM    2  O3  UNK     1      29.833  -5.099  36.871  1.00  0.00    -0.284 OA
HETATM    3  C11 UNK     1      29.092  -7.817  34.703  1.00  0.00     0.123 A 
HETATM    4  C12 UNK     1      28.371  -8.377  36.889  1.00  0.00     0.091 A 
HETATM    5  C13 UNK     1      28.810  -7.158  37.398  1.00  0.00     0.051 A 
HETATM    6  C14 UNK     1      29.549  -6.603  35.065  1.00  0.00     0.152 A 
HETATM    7  C15 UNK     1      29.433  -6.188  36.483  1.00  0.00     0.220 A 
HETATM    8  C16 UNK     1      27.774  -9.312  37.735  1.00  0.00     0.045 A 
HETATM    9  C17 UNK     1      27.618  -9.022  39.091  1.00  0.00    -0.059 A 
HETATM   10  C18 UNK     1      28.656  -6.863  38.755  1.00  0.00     0.019 A 
HETATM   11  C19 UNK     1      28.059  -7.799  39.599  1.00  0.00     0.008 A 
HETATM   12  C20 UNK     1      26.980 -10.019  39.999  1.00  0.00     0.048 C 
ENDROOT
BRANCH   3  13
HETATM   13  C8  UNK     1      29.162  -8.308  33.315  1.00  0.00     0.001 A 
HETATM   14  C10 UNK     1      30.230  -9.110  32.912  1.00  0.00     0.015 A 
HETATM   15  C7  UNK     1      30.295  -9.576  31.598  1.00  0.00     0.009 A 
HETATM   16  C2  UNK     1      29.293  -9.240  30.688  1.00  0.00    -0.051 A 
HETATM   17  C6  UNK     1      28.226  -8.438  31.091  1.00  0.00     0.009 A 
HETATM   18  C9  UNK     1      28.160  -7.973  32.405  1.00  0.00     0.015 A 
BRANCH  16  19
HETATM   19  C1  UNK     1      29.363  -9.739  29.285  1.00  0.00    -0.024 C 
HETATM   20  C3  UNK     1      29.981 -11.171  29.224  1.00  0.00     0.019 C 
HETATM   21  C4  UNK     1      30.244  -8.808  28.396  1.00  0.00     0.019 C 
HETATM   22  C5  UNK     1      27.990  -9.846  28.542  1.00  0.00     0.019 C 
ENDBRANCH  16  19
ENDBRANCH   3  13
BRANCH   6  23
HETATM   23  O2  UNK     1      30.109  -5.714  34.173  1.00  0.00    -0.355 OA
HETATM   24  H20 UNK     1      29.918  -4.804  34.451  1.00  0.00     0.218 HD
ENDBRANCH   6  23
TORSDOF 3
ENDMDL
MODEL 9
REMARK VINA RESULT:      -8.0     22.167     24.342
REMARK  3 active torsions:
REMARK  status: ('A' for Active; 'I' for Inactive)
REMARK    1  A    between atoms: C14_17  and  O2_2 
REMARK    2  A    between atoms: C1_4  and  C2_5 
REMARK    3  A    between atoms: C11_14  and  C8_11 
ROOT
HETATM    1  O1  UNK     1       7.034   5.044  11.603  1.00  0.00    -0.306 OA
HETATM    2  O3  UNK     1       4.626   2.089  10.166  1.00  0.00    -0.284 OA
HETATM    3  C11 UNK     1       7.306   4.412  10.401  1.00  0.00     0.123 A 
HETATM    4  C12 UNK     1       5.920   4.664  12.306  1.00  0.00     0.091 A 
HETATM    5  C13 UNK     1       5.056   3.664  11.869  1.00  0.00     0.051 A 
HETATM    6  C14 UNK     1       6.557   3.426   9.872  1.00  0.00     0.152 A 
HETATM    7  C15 UNK     1       5.345   2.979  10.599  1.00  0.00     0.220 A 
HETATM    8  C16 UNK     1       5.670   5.326  13.509  1.00  0.00     0.045 A 
HETATM    9  C17 UNK     1       4.553   4.983  14.270  1.00  0.00    -0.059 A 
HETATM   10  C18 UNK     1       3.936   3.317  12.628  1.00  0.00     0.019 A 
HETATM   11  C19 UNK     1       3.687   3.980  13.831  1.00  0.00     0.008 A 
HETATM   12  C20 UNK     1       4.282   5.688  15.557  1.00  0.00     0.048 C 
ENDROOT
BRANCH   3  13
HETATM   13  C8  UNK     1       8.529   4.915   9.750  1.00  0.00     0.001 A 
HETATM   14  C10 UNK     1       9.767   4.355  10.065  1.00  0.00     0.015 A 
HETATM   15  C7  UNK     1      10.925   4.831   9.448  1.00  0.00     0.009 A 
HETATM   16  C2  UNK     1      10.844   5.865   8.516  1.00  0.00    -0.051 A 
HETATM   17  C6  UNK     1       9.606   6.425   8.201  1.00  0.00     0.009 A 
HETATM   18  C9  UNK     1       8.448   5.949   8.817  1.00  0.00     0.015 A 
BRANCH  16  19
HETATM   19  C1  UNK     1      12.081   6.372   7.856  1.00  0.00    -0.024 C 
HETATM   20  C3  UNK     1      11.891   6.488   6.311  1.00  0.00     0.019 C 
HETATM   21  C4  UNK     1      13.290   5.420   8.111  1.00  0.00     0.019 C 
HETATM   22  C5  UNK     1      12.560   7.787   8.323  1.00  0.00     0.019 C 
ENDBRANCH  16  19
ENDBRANCH   3  13
BRANCH   6  23
HETATM   23  O2  UNK     1       6.873   2.794   8.688  1.00  0.00    -0.355 OA
HETATM   24  H20 UNK     1       7.814   2.923   8.487  1.00  0.00     0.218 HD
ENDBRANCH   6  23
TORSDOF 3
ENDMDL
MODEL 10
REMARK VINA RESULT:      -8.0     14.806     16.584
REMARK  3 active torsions:
REMARK  status: ('A' for Active; 'I' for Inactive)
REMARK    1  A    between atoms: C14_17  and  O2_2 
REMARK    2  A    between atoms: C1_4  and  C2_5 
REMARK    3  A    between atoms: C11_14  and  C8_11 
ROOT
HETATM    1  O1  UNK     1      31.788  -6.449  35.720  1.00  0.00    -0.306 OA
HETATM    2  O3  UNK     1      32.197  -2.462  36.452  1.00  0.00    -0.284 OA
HETATM    3  C11 UNK     1      30.858  -5.754  36.476  1.00  0.00     0.123 A 
HETATM    4  C12 UNK     1      32.857  -5.762  35.205  1.00  0.00     0.091 A 
HETATM    5  C13 UNK     1      33.053  -4.400  35.416  1.00  0.00     0.051 A 
HETATM    6  C14 UNK     1      30.935  -4.441  36.761  1.00  0.00     0.152 A 
HETATM    7  C15 UNK     1      32.076  -3.658  36.228  1.00  0.00     0.220 A 
HETATM    8  C16 UNK     1      33.772  -6.489  34.441  1.00  0.00     0.045 A 
HETATM    9  C17 UNK     1      34.881  -5.847  33.891  1.00  0.00    -0.059 A 
HETATM   10  C18 UNK     1      34.162  -3.753  34.866  1.00  0.00     0.019 A 
HETATM   11  C19 UNK     1      35.076  -4.481  34.103  1.00  0.00     0.008 A 
HETATM   12  C20 UNK     1      35.861  -6.620  33.074  1.00  0.00     0.048 C 
ENDROOT
BRANCH   3  13
HETATM   13  C8  UNK     1      29.763  -6.609  36.968  1.00  0.00     0.001 A 
HETATM   14  C10 UNK     1      29.827  -7.156  38.249  1.00  0.00     0.015 A 
HETATM   15  C7  UNK     1      28.790  -7.965  38.715  1.00  0.00     0.009 A 
HETATM   16  C2  UNK     1      27.688  -8.226  37.901  1.00  0.00    -0.051 A 
HETATM   17  C6  UNK     1      27.624  -7.678  36.620  1.00  0.00     0.009 A 
HETATM   18  C9  UNK     1      28.661  -6.869  36.153  1.00  0.00     0.015 A 
BRANCH  16  19
HETATM   19  C1  UNK     1      26.580  -9.089  38.399  1.00  0.00    -0.024 C 
HETATM   20  C3  UNK     1      26.132 -10.118  37.314  1.00  0.00     0.019 C 
HETATM   21  C4  UNK     1      25.330  -8.238  38.784  1.00  0.00     0.019 C 
HETATM   22  C5  UNK     1      26.911  -9.941  39.669  1.00  0.00     0.019 C 
ENDBRANCH  16  19
ENDBRANCH   3  13
BRANCH   6  23
HETATM   23  O2  UNK     1      30.009  -3.785  37.544  1.00  0.00    -0.355 OA
HETATM   24  H20 UNK     1      29.225  -4.344  37.664  1.00  0.00     0.218 HD
ENDBRANCH   6  23
TORSDOF 3
ENDMDL
