MODEL 1
REMARK VINA RESULT:      -7.1      0.000      0.000
REMARK  7 active torsions:
REMARK  status: ('A' for Active; 'I' for Inactive)
REMARK    1  A    between atoms: C14_17  and  O3_3 
REMARK    2  A    between atoms: C16_19  and  O3_3 
REMARK    3  A    between atoms: C1_4  and  C2_5 
REMARK    4  A    between atoms: C1_4  and  C3_6 
REMARK    5  A    between atoms: C2_5  and  C4_7 
REMARK    6  A    between atoms: C4_7  and  C7_10 
REMARK    7  A    between atoms: C16_19  and  C17_20 
ROOT
HETATM    1  O1  UNK     1      18.100   3.092  33.451  1.00  0.00    -0.274 OA
HETATM    2  O2  UNK     1      18.204   0.850  33.111  1.00  0.00    -0.259 OA
HETATM    3  C3  UNK     1      18.584   2.225  31.203  1.00  0.00     0.024 A 
HETATM    4  C5  UNK     1      18.635   3.475  30.696  1.00  0.00    -0.037 A 
HETATM    5  C6  UNK     1      18.449   4.631  31.598  1.00  0.00     0.005 A 
HETATM    6  C8  UNK     1      18.186   4.398  32.945  1.00  0.00     0.092 A 
HETATM    7  C9  UNK     1      18.288   1.982  32.645  1.00  0.00     0.295 A 
HETATM    8  C10 UNK     1      18.861   3.779  29.237  1.00  0.00     0.050 C 
HETATM    9  C11 UNK     1      18.530   5.969  31.185  1.00  0.00     0.017 A 
HETATM   10  C13 UNK     1      17.997   5.434  33.865  1.00  0.00     0.075 A 
HETATM   11  C14 UNK     1      18.076   6.751  33.432  1.00  0.00     0.071 A 
HETATM   12  C15 UNK     1      18.344   7.020  32.093  1.00  0.00     0.038 A 
ENDROOT
BRANCH   3  13
HETATM   13  C1  UNK     1      18.819   0.964  30.410  1.00  0.00     0.045 C 
BRANCH  13  14
HETATM   14  C2  UNK     1      20.267   0.490  30.461  1.00  0.00     0.005 C 
BRANCH  14  15
HETATM   15  C4  UNK     1      20.625  -0.484  29.334  1.00  0.00    -0.000 C 
BRANCH  15  16
HETATM   16  C7  UNK     1      20.275  -1.923  29.714  1.00  0.00    -0.005 C 
HETATM   17  C12 UNK     1      20.586  -2.206  31.175  1.00  0.00     0.005 C 
ENDBRANCH  15  16
ENDBRANCH  14  15
ENDBRANCH  13  14
ENDBRANCH   3  13
BRANCH  11  18
HETATM   18  O3  UNK     1      17.895   7.773  34.311  1.00  0.00    -0.347 OA
BRANCH  18  19
HETATM   19  C16 UNK     1      16.671   7.792  35.044  1.00  0.00     0.202 C 
BRANCH  19  20
HETATM   20  C17 UNK     1      15.578   8.260  34.141  1.00  0.00    -0.011 C 
HETATM   21  C18 UNK     1      14.452   7.576  33.913  1.00  0.00     0.009 C 
ENDBRANCH  19  20
ENDBRANCH  18  19
ENDBRANCH  11  18
TORSDOF 7
ENDMDL
MODEL 2
REMARK VINA RESULT:      -7.0      1.481      2.058
REMARK  7 active torsions:
REMARK  status: ('A' for Active; 'I' for Inactive)
REMARK    1  A    between atoms: C14_17  and  O3_3 
REMARK    2  A    between atoms: C16_19  and  O3_3 
REMARK    3  A    between atoms: C1_4  and  C2_5 
REMARK    4  A    between atoms: C1_4  and  C3_6 
REMARK    5  A    between atoms: C2_5  and  C4_7 
REMARK    6  A    between atoms: C4_7  and  C7_10 
REMARK    7  A    between atoms: C16_19  and  C17_20 
ROOT
HETATM    1  O1  UNK     1      17.594   4.240  33.377  1.00  0.00    -0.274 OA
HETATM    2  O2  UNK     1      18.058   2.142  32.649  1.00  0.00    -0.259 OA
HETATM    3  C3  UNK     1      18.572   3.917  31.146  1.00  0.00     0.024 A 
HETATM    4  C5  UNK     1      18.540   5.245  30.904  1.00  0.00    -0.037 A 
HETATM    5  C6  UNK     1      18.045   6.161  31.953  1.00  0.00     0.005 A 
HETATM    6  C8  UNK     1      17.588   5.626  33.153  1.00  0.00     0.092 A 
HETATM    7  C9  UNK     1      18.067   3.349  32.430  1.00  0.00     0.295 A 
HETATM    8  C10 UNK     1      18.971   5.870  29.601  1.00  0.00     0.050 C 
HETATM    9  C11 UNK     1      18.013   7.558  31.823  1.00  0.00     0.017 A 
HETATM   10  C13 UNK     1      17.103   6.421  34.196  1.00  0.00     0.075 A 
HETATM   11  C14 UNK     1      17.076   7.801  34.043  1.00  0.00     0.071 A 
HETATM   12  C15 UNK     1      17.532   8.371  32.857  1.00  0.00     0.038 A 
ENDROOT
BRANCH   3  13
HETATM   13  C1  UNK     1      19.110   2.881  30.192  1.00  0.00     0.045 C 
BRANCH  13  14
HETATM   14  C2  UNK     1      18.029   2.264  29.311  1.00  0.00     0.005 C 
BRANCH  14  15
HETATM   15  C4  UNK     1      18.470   0.963  28.634  1.00  0.00    -0.000 C 
BRANCH  15  16
HETATM   16  C7  UNK     1      19.769   0.435  29.243  1.00  0.00    -0.005 C 
HETATM   17  C12 UNK     1      20.086  -0.969  28.752  1.00  0.00     0.005 C 
ENDBRANCH  15  16
ENDBRANCH  14  15
ENDBRANCH  13  14
ENDBRANCH   3  13
BRANCH  11  18
HETATM   18  O3  UNK     1      16.608   8.593  35.045  1.00  0.00    -0.347 OA
BRANCH  18  19
HETATM   19  C16 UNK     1      16.109   9.879  34.680  1.00  0.00     0.202 C 
BRANCH  19  20
HETATM   20  C17 UNK     1      14.639   9.913  34.935  1.00  0.00    -0.011 C 
HETATM   21  C18 UNK     1      13.828  10.884  34.500  1.00  0.00     0.009 C 
ENDBRANCH  19  20
ENDBRANCH  18  19
ENDBRANCH  11  18
TORSDOF 7
ENDMDL
MODEL 3
REMARK VINA RESULT:      -6.7     21.953     24.429
REMARK  7 active torsions:
REMARK  status: ('A' for Active; 'I' for Inactive)
REMARK    1  A    between atoms: C14_17  and  O3_3 
REMARK    2  A    between atoms: C16_19  and  O3_3 
REMARK    3  A    between atoms: C1_4  and  C2_5 
REMARK    4  A    between atoms: C1_4  and  C3_6 
REMARK    5  A    between atoms: C2_5  and  C4_7 
REMARK    6  A    between atoms: C4_7  and  C7_10 
REMARK    7  A    between atoms: C16_19  and  C17_20 
ROOT
HETATM    1  O1  UNK     1      12.780   8.123  10.535  1.00  0.00    -0.274 OA
HETATM    2  O2  UNK     1      14.103   9.575  11.672  1.00  0.00    -0.259 OA
HETATM    3  C3  UNK     1      15.209   7.753  10.607  1.00  0.00     0.024 A 
HETATM    4  C5  UNK     1      15.090   6.621   9.882  1.00  0.00    -0.037 A 
HETATM    5  C6  UNK     1      13.756   6.200   9.406  1.00  0.00     0.005 A 
HETATM    6  C8  UNK     1      12.646   6.967   9.751  1.00  0.00     0.092 A 
HETATM    7  C9  UNK     1      14.014   8.562  10.984  1.00  0.00     0.295 A 
HETATM    8  C10 UNK     1      16.252   5.726   9.530  1.00  0.00     0.050 C 
HETATM    9  C11 UNK     1      13.527   5.069   8.608  1.00  0.00     0.017 A 
HETATM   10  C13 UNK     1      11.350   6.640   9.343  1.00  0.00     0.075 A 
HETATM   11  C14 UNK     1      11.147   5.512   8.558  1.00  0.00     0.071 A 
HETATM   12  C15 UNK     1      12.236   4.726   8.189  1.00  0.00     0.038 A 
ENDROOT
BRANCH   3  13
HETATM   13  C1  UNK     1      16.513   8.328  11.099  1.00  0.00     0.045 C 
BRANCH  13  14
HETATM   14  C2  UNK     1      17.287   9.065  10.011  1.00  0.00     0.005 C 
BRANCH  14  15
HETATM   15  C4  UNK     1      17.021  10.573   9.996  1.00  0.00    -0.000 C 
BRANCH  15  16
HETATM   16  C7  UNK     1      16.678  11.060   8.587  1.00  0.00    -0.005 C 
HETATM   17  C12 UNK     1      15.303  10.579   8.150  1.00  0.00     0.005 C 
ENDBRANCH  15  16
ENDBRANCH  14  15
ENDBRANCH  13  14
ENDBRANCH   3  13
BRANCH  11  18
HETATM   18  O3  UNK     1       9.894   5.177   8.151  1.00  0.00    -0.347 OA
BRANCH  18  19
HETATM   19  C16 UNK     1       8.993   6.247   7.870  1.00  0.00     0.202 C 
BRANCH  19  20
HETATM   20  C17 UNK     1       8.835   6.366   6.391  1.00  0.00    -0.011 C 
HETATM   21  C18 UNK     1       9.852   6.554   5.544  1.00  0.00     0.009 C 
ENDBRANCH  19  20
ENDBRANCH  18  19
ENDBRANCH  11  18
TORSDOF 7
ENDMDL
MODEL 4
REMARK VINA RESULT:      -6.6     22.925     24.281
REMARK  7 active torsions:
REMARK  status: ('A' for Active; 'I' for Inactive)
REMARK    1  A    between atoms: C14_17  and  O3_3 
REMARK    2  A    between atoms: C16_19  and  O3_3 
REMARK    3  A    between atoms: C1_4  and  C2_5 
REMARK    4  A    between atoms: C1_4  and  C3_6 
REMARK    5  A    between atoms: C2_5  and  C4_7 
REMARK    6  A    between atoms: C4_7  and  C7_10 
REMARK    7  A    between atoms: C16_19  and  C17_20 
ROOT
HETATM    1  O1  UNK     1      16.446   6.456   9.770  1.00  0.00    -0.274 OA
HETATM    2  O2  UNK     1      15.499   4.394   9.721  1.00  0.00    -0.259 OA
HETATM    3  C3  UNK     1      14.004   6.244   9.586  1.00  0.00     0.024 A 
HETATM    4  C5  UNK     1      13.855   7.585   9.595  1.00  0.00    -0.037 A 
HETATM    5  C6  UNK     1      15.053   8.448   9.658  1.00  0.00     0.005 A 
HETATM    6  C8  UNK     1      16.308   7.852   9.744  1.00  0.00     0.092 A 
HETATM    7  C9  UNK     1      15.351   5.612   9.693  1.00  0.00     0.295 A 
HETATM    8  C10 UNK     1      12.517   8.280   9.559  1.00  0.00     0.050 C 
HETATM    9  C11 UNK     1      15.013   9.851   9.625  1.00  0.00     0.017 A 
HETATM   10  C13 UNK     1      17.491   8.594   9.808  1.00  0.00     0.075 A 
HETATM   11  C14 UNK     1      17.427   9.982   9.780  1.00  0.00     0.071 A 
HETATM   12  C15 UNK     1      16.188  10.611   9.687  1.00  0.00     0.038 A 
ENDROOT
BRANCH   3  13
HETATM   13  C1  UNK     1      12.875   5.252   9.461  1.00  0.00     0.045 C 
BRANCH  13  14
HETATM   14  C2  UNK     1      12.474   4.986   8.014  1.00  0.00     0.005 C 
BRANCH  14  15
HETATM   15  C4  UNK     1      11.126   5.609   7.636  1.00  0.00    -0.000 C 
BRANCH  15  16
HETATM   16  C7  UNK     1      11.168   6.208   6.230  1.00  0.00    -0.005 C 
HETATM   17  C12 UNK     1       9.771   6.376   5.653  1.00  0.00     0.005 C 
ENDBRANCH  15  16
ENDBRANCH  14  15
ENDBRANCH  13  14
ENDBRANCH   3  13
BRANCH  11  18
HETATM   18  O3  UNK     1      18.566  10.722   9.841  1.00  0.00    -0.347 OA
BRANCH  18  19
HETATM   19  C16 UNK     1      18.583  11.951   9.116  1.00  0.00     0.202 C 
BRANCH  19  20
HETATM   20  C17 UNK     1      19.220  11.715   7.787  1.00  0.00    -0.011 C 
HETATM   21  C18 UNK     1      18.627  11.977   6.617  1.00  0.00     0.009 C 
ENDBRANCH  19  20
ENDBRANCH  18  19
ENDBRANCH  11  18
TORSDOF 7
ENDMDL
MODEL 5
REMARK VINA RESULT:      -6.5      2.601      8.380
REMARK  7 active torsions:
REMARK  status: ('A' for Active; 'I' for Inactive)
REMARK    1  A    between atoms: C14_17  and  O3_3 
REMARK    2  A    between atoms: C16_19  and  O3_3 
REMARK    3  A    between atoms: C1_4  and  C2_5 
REMARK    4  A    between atoms: C1_4  and  C3_6 
REMARK    5  A    between atoms: C2_5  and  C4_7 
REMARK    6  A    between atoms: C4_7  and  C7_10 
REMARK    7  A    between atoms: C16_19  and  C17_20 
ROOT
HETATM    1  O1  UNK     1      15.943   6.598  32.812  1.00  0.00    -0.274 OA
HETATM    2  O2  UNK     1      14.347   7.850  33.828  1.00  0.00    -0.259 OA
HETATM    3  C3  UNK     1      16.594   8.602  34.077  1.00  0.00     0.024 A 
HETATM    4  C5  UNK     1      17.900   8.378  33.824  1.00  0.00    -0.037 A 
HETATM    5  C6  UNK     1      18.289   7.224  32.986  1.00  0.00     0.005 A 
HETATM    6  C8  UNK     1      17.295   6.373  32.510  1.00  0.00     0.092 A 
HETATM    7  C9  UNK     1      15.535   7.678  33.576  1.00  0.00     0.295 A 
HETATM    8  C10 UNK     1      19.018   9.236  34.361  1.00  0.00     0.050 C 
HETATM    9  C11 UNK     1      19.611   6.928  32.623  1.00  0.00     0.017 A 
HETATM   10  C13 UNK     1      17.576   5.260  31.713  1.00  0.00     0.075 A 
HETATM   11  C14 UNK     1      18.894   4.983  31.371  1.00  0.00     0.071 A 
HETATM   12  C15 UNK     1      19.912   5.817  31.824  1.00  0.00     0.038 A 
ENDROOT
BRANCH   3  13
HETATM   13  C1  UNK     1      16.057   9.774  34.861  1.00  0.00     0.045 C 
BRANCH  13  14
HETATM   14  C2  UNK     1      16.183  11.097  34.114  1.00  0.00     0.005 C 
BRANCH  14  15
HETATM   15  C4  UNK     1      16.313  12.307  35.044  1.00  0.00    -0.000 C 
BRANCH  15  16
HETATM   16  C7  UNK     1      17.736  12.867  35.029  1.00  0.00    -0.005 C 
HETATM   17  C12 UNK     1      18.327  12.847  33.628  1.00  0.00     0.005 C 
ENDBRANCH  15  16
ENDBRANCH  14  15
ENDBRANCH  13  14
ENDBRANCH   3  13
BRANCH  11  18
HETATM   18  O3  UNK     1      19.189   3.905  30.596  1.00  0.00    -0.347 OA
BRANCH  18  19
HETATM   19  C16 UNK     1      18.478   2.697  30.865  1.00  0.00     0.202 C 
BRANCH  19  20
HETATM   20  C17 UNK     1      18.613   1.788  29.688  1.00  0.00    -0.011 C 
HETATM   21  C18 UNK     1      17.858   1.874  28.588  1.00  0.00     0.009 C 
ENDBRANCH  19  20
ENDBRANCH  18  19
ENDBRANCH  11  18
TORSDOF 7
ENDMDL
MODEL 6
REMARK VINA RESULT:      -6.5     22.248     24.473
REMARK  7 active torsions:
REMARK  status: ('A' for Active; 'I' for Inactive)
REMARK    1  A    between atoms: C14_17  and  O3_3 
REMARK    2  A    between atoms: C16_19  and  O3_3 
REMARK    3  A    between atoms: C1_4  and  C2_5 
REMARK    4  A    between atoms: C1_4  and  C3_6 
REMARK    5  A    between atoms: C2_5  and  C4_7 
REMARK    6  A    between atoms: C4_7  and  C7_10 
REMARK    7  A    between atoms: C16_19  and  C17_20 
ROOT
HETATM    1  O1  UNK     1      13.954   5.252   8.712  1.00  0.00    -0.274 OA
HETATM    2  O2  UNK     1      16.099   5.011   9.412  1.00  0.00    -0.259 OA
HETATM    3  C3  UNK     1      15.003   7.029  10.047  1.00  0.00     0.024 A 
HETATM    4  C5  UNK     1      13.889   7.787   9.972  1.00  0.00    -0.037 A 
HETATM    5  C6  UNK     1      12.702   7.265   9.264  1.00  0.00     0.005 A 
HETATM    6  C8  UNK     1      12.777   6.014   8.657  1.00  0.00     0.092 A 
HETATM    7  C9  UNK     1      15.081   5.696   9.382  1.00  0.00     0.295 A 
HETATM    8  C10 UNK     1      13.776   9.170  10.564  1.00  0.00     0.050 C 
HETATM    9  C11 UNK     1      11.481   7.949   9.169  1.00  0.00     0.017 A 
HETATM   10  C13 UNK     1      11.701   5.447   7.968  1.00  0.00     0.075 A 
HETATM   11  C14 UNK     1      10.503   6.146   7.881  1.00  0.00     0.071 A 
HETATM   12  C15 UNK     1      10.392   7.397   8.482  1.00  0.00     0.038 A 
ENDROOT
BRANCH   3  13
HETATM   13  C1  UNK     1      16.258   7.412  10.790  1.00  0.00     0.045 C 
BRANCH  13  14
HETATM   14  C2  UNK     1      17.250   8.184   9.926  1.00  0.00     0.005 C 
BRANCH  14  15
HETATM   15  C4  UNK     1      17.219   9.695  10.174  1.00  0.00    -0.000 C 
BRANCH  15  16
HETATM   16  C7  UNK     1      17.402  10.474   8.871  1.00  0.00    -0.005 C 
HETATM   17  C12 UNK     1      16.075  11.000   8.345  1.00  0.00     0.005 C 
ENDBRANCH  15  16
ENDBRANCH  14  15
ENDBRANCH  13  14
ENDBRANCH   3  13
BRANCH  11  18
HETATM   18  O3  UNK     1       9.445   5.612   7.215  1.00  0.00    -0.347 OA
BRANCH  18  19
HETATM   19  C16 UNK     1       8.141   5.963   7.676  1.00  0.00     0.202 C 
BRANCH  19  20
HETATM   20  C17 UNK     1       7.792   5.094   8.838  1.00  0.00    -0.011 C 
HETATM   21  C18 UNK     1       7.152   5.527   9.929  1.00  0.00     0.009 C 
ENDBRANCH  19  20
ENDBRANCH  18  19
ENDBRANCH  11  18
TORSDOF 7
ENDMDL
MODEL 7
REMARK VINA RESULT:      -6.4      3.644      9.076
REMARK  7 active torsions:
REMARK  status: ('A' for Active; 'I' for Inactive)
REMARK    1  A    between atoms: C14_17  and  O3_3 
REMARK    2  A    between atoms: C16_19  and  O3_3 
REMARK    3  A    between atoms: C1_4  and  C2_5 
REMARK    4  A    between atoms: C1_4  and  C3_6 
REMARK    5  A    between atoms: C2_5  and  C4_7 
REMARK    6  A    between atoms: C4_7  and  C7_10 
REMARK    7  A    between atoms: C16_19  and  C17_20 
ROOT
HETATM    1  O1  UNK     1      16.395   8.422  32.964  1.00  0.00    -0.274 OA
HETATM    2  O2  UNK     1      15.637  10.483  33.534  1.00  0.00    -0.259 OA
HETATM    3  C3  UNK     1      17.932  10.041  33.993  1.00  0.00     0.024 A 
HETATM    4  C5  UNK     1      18.942   9.145  33.970  1.00  0.00    -0.037 A 
HETATM    5  C6  UNK     1      18.713   7.808  33.384  1.00  0.00     0.005 A 
HETATM    6  C8  UNK     1      17.445   7.493  32.902  1.00  0.00     0.092 A 
HETATM    7  C9  UNK     1      16.573   9.691  33.487  1.00  0.00     0.295 A 
HETATM    8  C10 UNK     1      20.316   9.417  34.529  1.00  0.00     0.050 C 
HETATM    9  C11 UNK     1      19.704   6.822  33.267  1.00  0.00     0.017 A 
HETATM   10  C13 UNK     1      17.144   6.252  32.333  1.00  0.00     0.075 A 
HETATM   11  C14 UNK     1      18.140   5.289  32.233  1.00  0.00     0.071 A 
HETATM   12  C15 UNK     1      19.421   5.573  32.699  1.00  0.00     0.038 A 
ENDROOT
BRANCH   3  13
HETATM   13  C1  UNK     1      18.046  11.455  34.502  1.00  0.00     0.045 C 
BRANCH  13  14
HETATM   14  C2  UNK     1      18.660  12.407  33.482  1.00  0.00     0.005 C 
BRANCH  14  15
HETATM   15  C4  UNK     1      18.059  13.816  33.531  1.00  0.00    -0.000 C 
BRANCH  15  16
HETATM   16  C7  UNK     1      18.985  14.836  32.867  1.00  0.00    -0.005 C 
HETATM   17  C12 UNK     1      19.666  15.724  33.897  1.00  0.00     0.005 C 
ENDBRANCH  15  16
ENDBRANCH  14  15
ENDBRANCH  13  14
ENDBRANCH   3  13
BRANCH  11  18
HETATM   18  O3  UNK     1      17.867   4.076  31.683  1.00  0.00    -0.347 OA
BRANCH  18  19
HETATM   19  C16 UNK     1      18.686   3.657  30.591  1.00  0.00     0.202 C 
BRANCH  19  20
HETATM   20  C17 UNK     1      18.172   2.353  30.078  1.00  0.00    -0.011 C 
HETATM   21  C18 UNK     1      17.983   2.083  28.782  1.00  0.00     0.009 C 
ENDBRANCH  19  20
ENDBRANCH  18  19
ENDBRANCH  11  18
TORSDOF 7
ENDMDL
MODEL 8
REMARK VINA RESULT:      -6.4     15.353     17.781
REMARK  7 active torsions:
REMARK  status: ('A' for Active; 'I' for Inactive)
REMARK    1  A    between atoms: C14_17  and  O3_3 
REMARK    2  A    between atoms: C16_19  and  O3_3 
REMARK    3  A    between atoms: C1_4  and  C2_5 
REMARK    4  A    between atoms: C1_4  and  C3_6 
REMARK    5  A    between atoms: C2_5  and  C4_7 
REMARK    6  A    between atoms: C4_7  and  C7_10 
REMARK    7  A    between atoms: C16_19  and  C17_20 
ROOT
HETATM    1  O1  UNK     1      31.140  -4.303  38.157  1.00  0.00    -0.274 OA
HETATM    2  O2  UNK     1      29.588  -4.048  39.792  1.00  0.00    -0.259 OA
HETATM    3  C3  UNK     1      28.999  -5.499  37.997  1.00  0.00     0.024 A 
HETATM    4  C5  UNK     1      29.350  -6.036  36.809  1.00  0.00    -0.037 A 
HETATM    5  C6  UNK     1      30.685  -5.740  36.246  1.00  0.00     0.005 A 
HETATM    6  C8  UNK     1      31.533  -4.882  36.940  1.00  0.00     0.092 A 
HETATM    7  C9  UNK     1      29.908  -4.570  38.728  1.00  0.00     0.295 A 
HETATM    8  C10 UNK     1      28.448  -6.925  35.992  1.00  0.00     0.050 C 
HETATM    9  C11 UNK     1      31.167  -6.282  35.045  1.00  0.00     0.017 A 
HETATM   10  C13 UNK     1      32.810  -4.550  36.478  1.00  0.00     0.075 A 
HETATM   11  C14 UNK     1      33.264  -5.094  35.283  1.00  0.00     0.071 A 
HETATM   12  C15 UNK     1      32.444  -5.961  34.567  1.00  0.00     0.038 A 
ENDROOT
BRANCH   3  13
HETATM   13  C1  UNK     1      27.699  -5.768  38.713  1.00  0.00     0.045 C 
BRANCH  13  14
HETATM   14  C2  UNK     1      27.753  -7.009  39.597  1.00  0.00     0.005 C 
BRANCH  14  15
HETATM   15  C4  UNK     1      26.863  -8.150  39.092  1.00  0.00    -0.000 C 
BRANCH  15  16
HETATM   16  C7  UNK     1      27.673  -9.429  38.876  1.00  0.00    -0.005 C 
HETATM   17  C12 UNK     1      27.949 -10.143  40.190  1.00  0.00     0.005 C 
ENDBRANCH  15  16
ENDBRANCH  14  15
ENDBRANCH  13  14
ENDBRANCH   3  13
BRANCH  11  18
HETATM   18  O3  UNK     1      34.503  -4.784  34.816  1.00  0.00    -0.347 OA
BRANCH  18  19
HETATM   19  C16 UNK     1      35.187  -5.788  34.068  1.00  0.00     0.202 C 
BRANCH  19  20
HETATM   20  C17 UNK     1      36.096  -6.535  34.987  1.00  0.00    -0.011 C 
HETATM   21  C18 UNK     1      37.046  -7.380  34.573  1.00  0.00     0.009 C 
ENDBRANCH  19  20
ENDBRANCH  18  19
ENDBRANCH  11  18
TORSDOF 7
ENDMDL
MODEL 9
REMARK VINA RESULT:      -6.4     22.648     25.075
REMARK  7 active torsions:
REMARK  status: ('A' for Active; 'I' for Inactive)
REMARK    1  A    between atoms: C14_17  and  O3_3 
REMARK    2  A    between atoms: C16_19  and  O3_3 
REMARK    3  A    between atoms: C1_4  and  C2_5 
REMARK    4  A    between atoms: C1_4  and  C3_6 
REMARK    5  A    between atoms: C2_5  and  C4_7 
REMARK    6  A    between atoms: C4_7  and  C7_10 
REMARK    7  A    between atoms: C16_19  and  C17_20 
ROOT
HETATM    1  O1  UNK     1      12.952   9.082   9.188  1.00  0.00    -0.274 OA
HETATM    2  O2  UNK     1      13.966  10.883  10.125  1.00  0.00    -0.259 OA
HETATM    3  C3  UNK     1      15.238   8.870  10.064  1.00  0.00     0.024 A 
HETATM    4  C5  UNK     1      15.275   7.560   9.740  1.00  0.00    -0.037 A 
HETATM    5  C6  UNK     1      14.112   6.946   9.065  1.00  0.00     0.005 A 
HETATM    6  C8  UNK     1      12.990   7.730   8.814  1.00  0.00     0.092 A 
HETATM    7  C9  UNK     1      14.026   9.700   9.804  1.00  0.00     0.295 A 
HETATM    8  C10 UNK     1      16.444   6.655  10.041  1.00  0.00     0.050 C 
HETATM    9  C11 UNK     1      14.065   5.609   8.643  1.00  0.00     0.017 A 
HETATM   10  C13 UNK     1      11.848   7.229   8.181  1.00  0.00     0.075 A 
HETATM   11  C14 UNK     1      11.822   5.900   7.777  1.00  0.00     0.071 A 
HETATM   12  C15 UNK     1      12.931   5.089   8.007  1.00  0.00     0.038 A 
ENDROOT
BRANCH   3  13
HETATM   13  C1  UNK     1      16.375   9.633  10.696  1.00  0.00     0.045 C 
BRANCH  13  14
HETATM   14  C2  UNK     1      17.417  10.094   9.683  1.00  0.00     0.005 C 
BRANCH  14  15
HETATM   15  C4  UNK     1      17.318  11.586   9.350  1.00  0.00    -0.000 C 
BRANCH  15  16
HETATM   16  C7  UNK     1      17.253  11.812   7.839  1.00  0.00    -0.005 C 
HETATM   17  C12 UNK     1      15.818  11.800   7.335  1.00  0.00     0.005 C 
ENDBRANCH  15  16
ENDBRANCH  14  15
ENDBRANCH  13  14
ENDBRANCH   3  13
BRANCH  11  18
HETATM   18  O3  UNK     1      10.722   5.393   7.160  1.00  0.00    -0.347 OA
BRANCH  18  19
HETATM   19  C16 UNK     1      10.215   6.114   6.038  1.00  0.00     0.202 C 
BRANCH  19  20
HETATM   20  C17 UNK     1       8.796   6.490   6.310  1.00  0.00    -0.011 C 
HETATM   21  C18 UNK     1       8.227   6.432   7.519  1.00  0.00     0.009 C 
ENDBRANCH  19  20
ENDBRANCH  18  19
ENDBRANCH  11  18
TORSDOF 7
ENDMDL
MODEL 10
REMARK VINA RESULT:      -6.4      3.534      5.133
REMARK  7 active torsions:
REMARK  status: ('A' for Active; 'I' for Inactive)
REMARK    1  A    between atoms: C14_17  and  O3_3 
REMARK    2  A    between atoms: C16_19  and  O3_3 
REMARK    3  A    between atoms: C1_4  and  C2_5 
REMARK    4  A    between atoms: C1_4  and  C3_6 
REMARK    5  A    between atoms: C2_5  and  C4_7 
REMARK    6  A    between atoms: C4_7  and  C7_10 
REMARK    7  A    between atoms: C16_19  and  C17_20 
ROOT
HETATM    1  O1  UNK     1      18.176   2.295  35.781  1.00  0.00    -0.274 OA
HETATM    2  O2  UNK     1      18.187   0.891  37.564  1.00  0.00    -0.259 OA
HETATM    3  C3  UNK     1      18.345  -0.130  35.417  1.00  0.00     0.024 A 
HETATM    4  C5  UNK     1      18.358   0.039  34.078  1.00  0.00    -0.037 A 
HETATM    5  C6  UNK     1      18.314   1.407  33.519  1.00  0.00     0.005 A 
HETATM    6  C8  UNK     1      18.224   2.487  34.392  1.00  0.00     0.092 A 
HETATM    7  C9  UNK     1      18.234   1.032  36.346  1.00  0.00     0.295 A 
HETATM    8  C10 UNK     1      18.398  -1.100  33.090  1.00  0.00     0.050 C 
HETATM    9  C11 UNK     1      18.369   1.696  32.147  1.00  0.00     0.017 A 
HETATM   10  C13 UNK     1      18.177   3.812  33.947  1.00  0.00     0.075 A 
HETATM   11  C14 UNK     1      18.227   4.074  32.584  1.00  0.00     0.071 A 
HETATM   12  C15 UNK     1      18.325   3.017  31.683  1.00  0.00     0.038 A 
ENDROOT
BRANCH   3  13
HETATM   13  C1  UNK     1      18.449  -1.461  36.118  1.00  0.00     0.045 C 
BRANCH  13  14
HETATM   14  C2  UNK     1      19.878  -1.987  36.188  1.00  0.00     0.005 C 
BRANCH  14  15
HETATM   15  C4  UNK     1      19.962  -3.517  36.157  1.00  0.00    -0.000 C 
BRANCH  15  16
HETATM   16  C7  UNK     1      20.695  -4.056  37.386  1.00  0.00    -0.005 C 
HETATM   17  C12 UNK     1      20.310  -5.498  37.677  1.00  0.00     0.005 C 
ENDBRANCH  15  16
ENDBRANCH  14  15
ENDBRANCH  13  14
ENDBRANCH   3  13
BRANCH  11  18
HETATM   18  O3  UNK     1      18.184   5.355  32.130  1.00  0.00    -0.347 OA
BRANCH  18  19
HETATM   19  C16 UNK     1      19.321   6.177  32.390  1.00  0.00     0.202 C 
BRANCH  19  20
HETATM   20  C17 UNK     1      20.280   6.041  31.254  1.00  0.00    -0.011 C 
HETATM   21  C18 UNK     1      19.911   5.932  29.973  1.00  0.00     0.009 C 
ENDBRANCH  19  20
ENDBRANCH  18  19
ENDBRANCH  11  18
TORSDOF 7
ENDMDL
