MODEL 1
REMARK VINA RESULT:      -8.4      0.000      0.000
REMARK  4 active torsions:
REMARK  status: ('A' for Active; 'I' for Inactive)
REMARK    1  A    between atoms: C5_12  and  O2_2 
REMARK    2  A    between atoms: C11_18  and  O3_3 
REMARK    3  A    between atoms: C15_22  and  N1_7 
REMARK    4  A    between atoms: C2_9  and  C3_10 
ROOT
HETATM    1  O1  UNK     1      18.306   9.462  34.427  1.00  0.00    -0.275 OA
HETATM    2  O4  UNK     1      20.563   9.146  34.613  1.00  0.00    -0.260 OA
HETATM    3  C1  UNK     1      16.997   7.902  33.085  1.00  0.00     0.042 A 
HETATM    4  C2  UNK     1      18.224   7.153  32.775  1.00  0.00    -0.004 A 
HETATM    5  C4  UNK     1      17.075   9.031  33.898  1.00  0.00     0.096 A 
HETATM    6  C5  UNK     1      15.738   7.531  32.595  1.00  0.00     0.082 A 
HETATM    7  C6  UNK     1      19.383   7.590  33.295  1.00  0.00     0.096 A 
HETATM    8  C7  UNK     1      15.949   9.786  34.230  1.00  0.00     0.075 A 
HETATM    9  C10 UNK     1      14.600   8.278  32.918  1.00  0.00     0.074 A 
HETATM   10  C11 UNK     1      14.706   9.403  33.734  1.00  0.00     0.071 A 
HETATM   11  C12 UNK     1      19.484   8.781  34.159  1.00  0.00     0.289 A 
ENDROOT
BRANCH   4  12
HETATM   12  C3  UNK     1      18.351   5.956  31.949  1.00  0.00    -0.025 A 
HETATM   13  C8  UNK     1      18.773   6.070  30.627  1.00  0.00     0.014 A 
HETATM   14  C13 UNK     1      18.894   4.927  29.838  1.00  0.00     0.037 A 
HETATM   15  C15 UNK     1      18.593   3.674  30.374  1.00  0.00     0.102 A 
HETATM   16  C14 UNK     1      18.171   3.565  31.699  1.00  0.00     0.037 A 
HETATM   17  C9  UNK     1      18.050   4.709  32.488  1.00  0.00     0.014 A 
BRANCH  15  18
HETATM   18  N1  UNK     1      18.716   2.509  29.570  1.00  0.00    -0.116 N 
HETATM   19  O5  UNK     1      18.201   2.504  28.426  1.00  0.00    -0.532 OA
HETATM   20  O6  UNK     1      19.337   1.518  30.026  1.00  0.00    -0.532 OA
ENDBRANCH  15  18
ENDBRANCH   4  12
BRANCH   6  21
HETATM   21  O2  UNK     1      15.558   6.442  31.792  1.00  0.00    -0.360 OA
HETATM   22  H8  UNK     1      16.288   6.384  31.151  1.00  0.00     0.217 HD
ENDBRANCH   6  21
BRANCH  10  23
HETATM   23  O3  UNK     1      13.596  10.126  34.045  1.00  0.00    -0.361 OA
HETATM   24  H9  UNK     1      13.801  10.716  34.790  1.00  0.00     0.217 HD
ENDBRANCH  10  23
TORSDOF 4
ENDMDL
MODEL 2
REMARK VINA RESULT:      -8.2      2.730      6.942
REMARK  4 active torsions:
REMARK  status: ('A' for Active; 'I' for Inactive)
REMARK    1  A    between atoms: C5_12  and  O2_2 
REMARK    2  A    between atoms: C11_18  and  O3_3 
REMARK    3  A    between atoms: C15_22  and  N1_7 
REMARK    4  A    between atoms: C2_9  and  C3_10 
ROOT
HETATM    1  O1  UNK     1      18.241   1.342  32.988  1.00  0.00    -0.275 OA
HETATM    2  O4  UNK     1      18.020   1.372  35.263  1.00  0.00    -0.260 OA
HETATM    3  C1  UNK     1      18.462   3.454  31.789  1.00  0.00     0.042 A 
HETATM    4  C2  UNK     1      18.370   4.177  33.066  1.00  0.00    -0.004 A 
HETATM    5  C4  UNK     1      18.394   2.062  31.788  1.00  0.00     0.096 A 
HETATM    6  C5  UNK     1      18.615   4.104  30.558  1.00  0.00     0.082 A 
HETATM    7  C6  UNK     1      18.225   3.461  34.193  1.00  0.00     0.096 A 
HETATM    8  C7  UNK     1      18.474   1.315  30.612  1.00  0.00     0.075 A 
HETATM    9  C10 UNK     1      18.696   3.370  29.370  1.00  0.00     0.074 A 
HETATM   10  C11 UNK     1      18.626   1.977  29.397  1.00  0.00     0.071 A 
HETATM   11  C12 UNK     1      18.153   1.988  34.211  1.00  0.00     0.289 A 
ENDROOT
BRANCH   4  12
HETATM   12  C3  UNK     1      18.419   5.621  33.275  1.00  0.00    -0.025 A 
HETATM   13  C8  UNK     1      17.242   6.364  33.244  1.00  0.00     0.014 A 
HETATM   14  C13 UNK     1      17.288   7.744  33.444  1.00  0.00     0.037 A 
HETATM   15  C15 UNK     1      18.512   8.375  33.675  1.00  0.00     0.102 A 
HETATM   16  C14 UNK     1      19.688   7.626  33.706  1.00  0.00     0.037 A 
HETATM   17  C9  UNK     1      19.642   6.246  33.505  1.00  0.00     0.014 A 
BRANCH  15  18
HETATM   18  N1  UNK     1      18.559   9.779  33.878  1.00  0.00    -0.116 N 
HETATM   19  O5  UNK     1      19.599  10.288  34.363  1.00  0.00    -0.532 OA
HETATM   20  O6  UNK     1      17.561  10.473  33.568  1.00  0.00    -0.532 OA
ENDBRANCH  15  18
ENDBRANCH   4  12
BRANCH   6  21
HETATM   21  O2  UNK     1      18.692   5.463  30.454  1.00  0.00    -0.360 OA
HETATM   22  H8  UNK     1      19.585   5.760  30.696  1.00  0.00     0.217 HD
ENDBRANCH   6  21
BRANCH  10  23
HETATM   23  O3  UNK     1      18.705   1.268  28.239  1.00  0.00    -0.361 OA
HETATM   24  H9  UNK     1      17.888   0.754  28.127  1.00  0.00     0.217 HD
ENDBRANCH  10  23
TORSDOF 4
ENDMDL
MODEL 3
REMARK VINA RESULT:      -8.1      2.972      7.233
REMARK  4 active torsions:
REMARK  status: ('A' for Active; 'I' for Inactive)
REMARK    1  A    between atoms: C5_12  and  O2_2 
REMARK    2  A    between atoms: C11_18  and  O3_3 
REMARK    3  A    between atoms: C15_22  and  N1_7 
REMARK    4  A    between atoms: C2_9  and  C3_10 
ROOT
HETATM    1  O1  UNK     1      18.545   0.923  30.679  1.00  0.00    -0.275 OA
HETATM    2  O4  UNK     1      18.625   1.927  28.627  1.00  0.00    -0.260 OA
HETATM    3  C1  UNK     1      18.418   2.315  32.678  1.00  0.00     0.042 A 
HETATM    4  C2  UNK     1      18.438   3.516  31.830  1.00  0.00    -0.004 A 
HETATM    5  C4  UNK     1      18.473   1.058  32.078  1.00  0.00     0.096 A 
HETATM    6  C5  UNK     1      18.348   2.374  34.075  1.00  0.00     0.082 A 
HETATM    7  C6  UNK     1      18.506   3.353  30.498  1.00  0.00     0.096 A 
HETATM    8  C7  UNK     1      18.459  -0.121  32.825  1.00  0.00     0.075 A 
HETATM    9  C10 UNK     1      18.333   1.201  34.837  1.00  0.00     0.074 A 
HETATM   10  C11 UNK     1      18.389  -0.045  34.212  1.00  0.00     0.071 A 
HETATM   11  C12 UNK     1      18.564   2.031  29.847  1.00  0.00     0.289 A 
ENDROOT
BRANCH   4  12
HETATM   12  C3  UNK     1      18.390   4.910  32.261  1.00  0.00    -0.025 A 
HETATM   13  C8  UNK     1      19.574   5.594  32.522  1.00  0.00     0.014 A 
HETATM   14  C13 UNK     1      19.529   6.926  32.935  1.00  0.00     0.037 A 
HETATM   15  C15 UNK     1      18.299   7.568  33.085  1.00  0.00     0.102 A 
HETATM   16  C14 UNK     1      17.115   6.879  32.822  1.00  0.00     0.037 A 
HETATM   17  C9  UNK     1      17.161   5.546  32.409  1.00  0.00     0.014 A 
BRANCH  15  18
HETATM   18  N1  UNK     1      18.252   8.923  33.505  1.00  0.00    -0.116 N 
HETATM   19  O5  UNK     1      19.185   9.372  34.216  1.00  0.00    -0.532 OA
HETATM   20  O6  UNK     1      17.281   9.636  33.154  1.00  0.00    -0.532 OA
ENDBRANCH  15  18
ENDBRANCH   4  12
BRANCH   6  21
HETATM   21  O2  UNK     1      18.290   3.556  34.755  1.00  0.00    -0.360 OA
HETATM   22  H8  UNK     1      19.159   3.993  34.725  1.00  0.00     0.217 HD
ENDBRANCH   6  21
BRANCH  10  23
HETATM   23  O3  UNK     1      18.374  -1.183  34.959  1.00  0.00    -0.361 OA
HETATM   24  H9  UNK     1      17.548  -1.215  35.469  1.00  0.00     0.217 HD
ENDBRANCH  10  23
TORSDOF 4
ENDMDL
MODEL 4
REMARK VINA RESULT:      -8.0     22.684     24.555
REMARK  4 active torsions:
REMARK  status: ('A' for Active; 'I' for Inactive)
REMARK    1  A    between atoms: C5_12  and  O2_2 
REMARK    2  A    between atoms: C11_18  and  O3_3 
REMARK    3  A    between atoms: C15_22  and  N1_7 
REMARK    4  A    between atoms: C2_9  and  C3_10 
ROOT
HETATM    1  O1  UNK     1      16.428   6.003   9.987  1.00  0.00    -0.275 OA
HETATM    2  O4  UNK     1      16.002   3.762   9.834  1.00  0.00    -0.260 OA
HETATM    3  C1  UNK     1      14.730   7.587   9.241  1.00  0.00     0.042 A 
HETATM    4  C2  UNK     1      13.854   6.462   8.878  1.00  0.00    -0.004 A 
HETATM    5  C4  UNK     1      15.987   7.324   9.782  1.00  0.00     0.096 A 
HETATM    6  C5  UNK     1      14.357   8.926   9.065  1.00  0.00     0.082 A 
HETATM    7  C6  UNK     1      14.304   5.214   9.087  1.00  0.00     0.096 A 
HETATM    8  C7  UNK     1      16.866   8.345  10.147  1.00  0.00     0.075 A 
HETATM    9  C10 UNK     1      15.228   9.960   9.426  1.00  0.00     0.074 A 
HETATM   10  C11 UNK     1      16.480   9.669   9.966  1.00  0.00     0.071 A 
HETATM   11  C12 UNK     1      15.630   4.918   9.660  1.00  0.00     0.289 A 
ENDROOT
BRANCH   4  12
HETATM   12  C3  UNK     1      12.514   6.529   8.302  1.00  0.00    -0.025 A 
HETATM   13  C8  UNK     1      12.350   6.448   6.922  1.00  0.00     0.014 A 
HETATM   14  C13 UNK     1      11.071   6.512   6.372  1.00  0.00     0.037 A 
HETATM   15  C15 UNK     1       9.959   6.655   7.204  1.00  0.00     0.102 A 
HETATM   16  C14 UNK     1      10.129   6.735   8.586  1.00  0.00     0.037 A 
HETATM   17  C9  UNK     1      11.409   6.672   9.137  1.00  0.00     0.014 A 
BRANCH  15  18
HETATM   18  N1  UNK     1       8.656   6.720   6.644  1.00  0.00    -0.116 N 
HETATM   19  O5  UNK     1       8.534   6.812   5.398  1.00  0.00    -0.532 OA
HETATM   20  O6  UNK     1       7.663   6.684   7.409  1.00  0.00    -0.532 OA
ENDBRANCH  15  18
ENDBRANCH   4  12
BRANCH   6  21
HETATM   21  O2  UNK     1      13.149   9.286   8.543  1.00  0.00    -0.360 OA
HETATM   22  H8  UNK     1      12.488   8.601   8.744  1.00  0.00     0.217 HD
ENDBRANCH   6  21
BRANCH  10  23
HETATM   23  O3  UNK     1      17.323  10.679  10.315  1.00  0.00    -0.361 OA
HETATM   24  H9  UNK     1      17.770  10.445  11.146  1.00  0.00     0.217 HD
ENDBRANCH  10  23
TORSDOF 4
ENDMDL
MODEL 5
REMARK VINA RESULT:      -7.7      1.448      3.472
REMARK  4 active torsions:
REMARK  status: ('A' for Active; 'I' for Inactive)
REMARK    1  A    between atoms: C5_12  and  O2_2 
REMARK    2  A    between atoms: C11_18  and  O3_3 
REMARK    3  A    between atoms: C15_22  and  N1_7 
REMARK    4  A    between atoms: C2_9  and  C3_10 
ROOT
HETATM    1  O1  UNK     1      16.436   8.782  33.319  1.00  0.00    -0.275 OA
HETATM    2  O4  UNK     1      14.404   8.030  32.591  1.00  0.00    -0.260 OA
HETATM    3  C1  UNK     1      18.391   7.346  33.072  1.00  0.00     0.042 A 
HETATM    4  C2  UNK     1      17.543   6.314  32.456  1.00  0.00    -0.004 A 
HETATM    5  C4  UNK     1      17.813   8.545  33.485  1.00  0.00     0.096 A 
HETATM    6  C5  UNK     1      19.768   7.179  33.268  1.00  0.00     0.082 A 
HETATM    7  C6  UNK     1      16.233   6.572  32.312  1.00  0.00     0.096 A 
HETATM    8  C7  UNK     1      18.561   9.564  34.077  1.00  0.00     0.075 A 
HETATM    9  C10 UNK     1      20.531   8.191  33.860  1.00  0.00     0.074 A 
HETATM   10  C11 UNK     1      19.928   9.382  34.264  1.00  0.00     0.071 A 
HETATM   11  C12 UNK     1      15.605   7.835  32.741  1.00  0.00     0.289 A 
ENDROOT
BRANCH   4  12
HETATM   12  C3  UNK     1      17.955   5.003  31.963  1.00  0.00    -0.025 A 
HETATM   13  C8  UNK     1      18.420   4.871  30.657  1.00  0.00     0.014 A 
HETATM   14  C13 UNK     1      18.813   3.619  30.185  1.00  0.00     0.037 A 
HETATM   15  C15 UNK     1      18.740   2.504  31.021  1.00  0.00     0.102 A 
HETATM   16  C14 UNK     1      18.275   2.642  32.328  1.00  0.00     0.037 A 
HETATM   17  C9  UNK     1      17.881   3.894  32.800  1.00  0.00     0.014 A 
BRANCH  15  18
HETATM   18  N1  UNK     1      19.140   1.229  30.540  1.00  0.00    -0.116 N 
HETATM   19  O5  UNK     1      19.595   1.135  29.374  1.00  0.00    -0.532 OA
HETATM   20  O6  UNK     1      19.029   0.233  31.294  1.00  0.00    -0.532 OA
ENDBRANCH  15  18
ENDBRANCH   4  12
BRANCH   6  21
HETATM   21  O2  UNK     1      20.426   6.042  32.898  1.00  0.00    -0.360 OA
HETATM   22  H8  UNK     1      21.323   6.266  32.597  1.00  0.00     0.217 HD
ENDBRANCH   6  21
BRANCH  10  23
HETATM   23  O3  UNK     1      20.674  10.363  34.840  1.00  0.00    -0.361 OA
HETATM   24  H9  UNK     1      21.501   9.975  35.176  1.00  0.00     0.217 HD
ENDBRANCH  10  23
TORSDOF 4
ENDMDL
MODEL 6
REMARK VINA RESULT:      -7.7     18.144     20.145
REMARK  4 active torsions:
REMARK  status: ('A' for Active; 'I' for Inactive)
REMARK    1  A    between atoms: C5_12  and  O2_2 
REMARK    2  A    between atoms: C11_18  and  O3_3 
REMARK    3  A    between atoms: C15_22  and  N1_7 
REMARK    4  A    between atoms: C2_9  and  C3_10 
ROOT
HETATM    1  O1  UNK     1      28.630  -5.498  39.633  1.00  0.00    -0.275 OA
HETATM    2  O4  UNK     1      29.386  -3.356  39.890  1.00  0.00    -0.260 OA
HETATM    3  C1  UNK     1      29.887  -7.040  38.222  1.00  0.00     0.042 A 
HETATM    4  C2  UNK     1      30.860  -5.973  37.941  1.00  0.00    -0.004 A 
HETATM    5  C4  UNK     1      28.804  -6.771  39.057  1.00  0.00     0.096 A 
HETATM    6  C5  UNK     1      29.998  -8.328  37.684  1.00  0.00     0.082 A 
HETATM    7  C6  UNK     1      30.666  -4.770  38.507  1.00  0.00     0.096 A 
HETATM    8  C7  UNK     1      27.845  -7.737  39.363  1.00  0.00     0.075 A 
HETATM    9  C10 UNK     1      29.044  -9.308  37.982  1.00  0.00     0.074 A 
HETATM   10  C11 UNK     1      27.970  -9.012  38.820  1.00  0.00     0.071 A 
HETATM   11  C12 UNK     1      29.526  -4.469  39.393  1.00  0.00     0.289 A 
ENDROOT
BRANCH   4  12
HETATM   12  C3  UNK     1      32.051  -6.055  37.100  1.00  0.00    -0.025 A 
HETATM   13  C8  UNK     1      31.956  -5.777  35.739  1.00  0.00     0.014 A 
HETATM   14  C13 UNK     1      33.093  -5.855  34.935  1.00  0.00     0.037 A 
HETATM   15  C15 UNK     1      34.321  -6.210  35.496  1.00  0.00     0.102 A 
HETATM   16  C14 UNK     1      34.410  -6.487  36.859  1.00  0.00     0.037 A 
HETATM   17  C9  UNK     1      33.273  -6.410  37.664  1.00  0.00     0.014 A 
BRANCH  15  18
HETATM   18  N1  UNK     1      35.478  -6.290  34.677  1.00  0.00    -0.116 N 
HETATM   19  O5  UNK     1      36.524  -6.796  35.152  1.00  0.00    -0.532 OA
HETATM   20  O6  UNK     1      35.424  -5.853  33.503  1.00  0.00    -0.532 OA
ENDBRANCH  15  18
ENDBRANCH   4  12
BRANCH   6  21
HETATM   21  O2  UNK     1      31.021  -8.690  36.857  1.00  0.00    -0.360 OA
HETATM   22  H8  UNK     1      30.916  -9.619  36.592  1.00  0.00     0.217 HD
ENDBRANCH   6  21
BRANCH  10  23
HETATM   23  O3  UNK     1      27.045  -9.969  39.105  1.00  0.00    -0.361 OA
HETATM   24  H9  UNK     1      26.156  -9.586  39.012  1.00  0.00     0.217 HD
ENDBRANCH  10  23
TORSDOF 4
ENDMDL
MODEL 7
REMARK VINA RESULT:      -7.6     15.160     18.235
REMARK  4 active torsions:
REMARK  status: ('A' for Active; 'I' for Inactive)
REMARK    1  A    between atoms: C5_12  and  O2_2 
REMARK    2  A    between atoms: C11_18  and  O3_3 
REMARK    3  A    between atoms: C15_22  and  N1_7 
REMARK    4  A    between atoms: C2_9  and  C3_10 
ROOT
HETATM    1  O1  UNK     1      25.389 -11.519  36.272  1.00  0.00    -0.275 OA
HETATM    2  O4  UNK     1      24.273 -13.028  34.967  1.00  0.00    -0.260 OA
HETATM    3  C1  UNK     1      24.210  -9.541  37.072  1.00  0.00     0.042 A 
HETATM    4  C2  UNK     1      22.997  -9.994  36.375  1.00  0.00    -0.004 A 
HETATM    5  C4  UNK     1      25.366 -10.314  36.999  1.00  0.00     0.096 A 
HETATM    6  C5  UNK     1      24.259  -8.354  37.814  1.00  0.00     0.082 A 
HETATM    7  C6  UNK     1      23.051 -11.149  35.690  1.00  0.00     0.096 A 
HETATM    8  C7  UNK     1      26.550  -9.941  37.636  1.00  0.00     0.075 A 
HETATM    9  C10 UNK     1      25.439  -7.966  38.458  1.00  0.00     0.074 A 
HETATM   10  C11 UNK     1      26.582  -8.759  38.369  1.00  0.00     0.071 A 
HETATM   11  C12 UNK     1      24.266 -11.980  35.603  1.00  0.00     0.289 A 
ENDROOT
BRANCH   4  12
HETATM   12  C3  UNK     1      21.697  -9.331  36.330  1.00  0.00    -0.025 A 
HETATM   13  C8  UNK     1      21.414  -8.434  35.303  1.00  0.00     0.014 A 
HETATM   14  C13 UNK     1      20.172  -7.800  35.260  1.00  0.00     0.037 A 
HETATM   15  C15 UNK     1      19.218  -8.067  36.243  1.00  0.00     0.102 A 
HETATM   16  C14 UNK     1      19.506  -8.967  37.268  1.00  0.00     0.037 A 
HETATM   17  C9  UNK     1      20.748  -9.601  37.312  1.00  0.00     0.014 A 
BRANCH  15  18
HETATM   18  N1  UNK     1      17.954  -7.422  36.199  1.00  0.00    -0.116 N 
HETATM   19  O5  UNK     1      17.182  -7.662  35.238  1.00  0.00    -0.532 OA
HETATM   20  O6  UNK     1      17.642  -6.630  37.121  1.00  0.00    -0.532 OA
ENDBRANCH  15  18
ENDBRANCH   4  12
BRANCH   6  21
HETATM   21  O2  UNK     1      23.180  -7.529  37.945  1.00  0.00    -0.360 OA
HETATM   22  H8  UNK     1      22.869  -7.253  37.066  1.00  0.00     0.217 HD
ENDBRANCH   6  21
BRANCH  10  23
HETATM   23  O3  UNK     1      27.727  -8.376  38.998  1.00  0.00    -0.361 OA
HETATM   24  H9  UNK     1      27.839  -8.910  39.803  1.00  0.00     0.217 HD
ENDBRANCH  10  23
TORSDOF 4
ENDMDL
MODEL 8
REMARK VINA RESULT:      -7.5      5.947      9.063
REMARK  4 active torsions:
REMARK  status: ('A' for Active; 'I' for Inactive)
REMARK    1  A    between atoms: C5_12  and  O2_2 
REMARK    2  A    between atoms: C11_18  and  O3_3 
REMARK    3  A    between atoms: C15_22  and  N1_7 
REMARK    4  A    between atoms: C2_9  and  C3_10 
ROOT
HETATM    1  O1  UNK     1      19.333   1.199  29.631  1.00  0.00    -0.275 OA
HETATM    2  O4  UNK     1      18.505   3.329  29.579  1.00  0.00    -0.260 OA
HETATM    3  C1  UNK     1      19.257  -0.053  31.723  1.00  0.00     0.042 A 
HETATM    4  C2  UNK     1      18.624   1.101  32.379  1.00  0.00    -0.004 A 
HETATM    5  C4  UNK     1      19.592   0.031  30.373  1.00  0.00     0.096 A 
HETATM    6  C5  UNK     1      19.544  -1.247  32.398  1.00  0.00     0.082 A 
HETATM    7  C6  UNK     1      18.390   2.200  31.644  1.00  0.00     0.096 A 
HETATM    8  C7  UNK     1      20.195  -1.027  29.691  1.00  0.00     0.075 A 
HETATM    9  C10 UNK     1      20.148  -2.316  31.728  1.00  0.00     0.074 A 
HETATM   10  C11 UNK     1      20.473  -2.206  30.377  1.00  0.00     0.071 A 
HETATM   11  C12 UNK     1      18.737   2.306  30.214  1.00  0.00     0.289 A 
ENDROOT
BRANCH   4  12
HETATM   12  C3  UNK     1      18.202   1.210  33.773  1.00  0.00    -0.025 A 
HETATM   13  C8  UNK     1      18.923   2.013  34.652  1.00  0.00     0.014 A 
HETATM   14  C13 UNK     1      18.521   2.118  35.983  1.00  0.00     0.037 A 
HETATM   15  C15 UNK     1      17.398   1.419  36.429  1.00  0.00     0.102 A 
HETATM   16  C14 UNK     1      16.678   0.617  35.544  1.00  0.00     0.037 A 
HETATM   17  C9  UNK     1      17.081   0.512  34.213  1.00  0.00     0.014 A 
BRANCH  15  18
HETATM   18  N1  UNK     1      16.987   1.526  37.785  1.00  0.00    -0.116 N 
HETATM   19  O5  UNK     1      17.784   1.177  38.690  1.00  0.00    -0.532 OA
HETATM   20  O6  UNK     1      15.841   1.965  38.041  1.00  0.00    -0.532 OA
ENDBRANCH  15  18
ENDBRANCH   4  12
BRANCH   6  21
HETATM   21  O2  UNK     1      19.254  -1.426  33.720  1.00  0.00    -0.360 OA
HETATM   22  H8  UNK     1      18.550  -0.811  33.987  1.00  0.00     0.217 HD
ENDBRANCH   6  21
BRANCH  10  23
HETATM   23  O3  UNK     1      21.061  -3.249  29.730  1.00  0.00    -0.361 OA
HETATM   24  H9  UNK     1      20.570  -3.430  28.911  1.00  0.00     0.217 HD
ENDBRANCH  10  23
TORSDOF 4
ENDMDL
MODEL 9
REMARK VINA RESULT:      -7.5      4.543      7.938
REMARK  4 active torsions:
REMARK  status: ('A' for Active; 'I' for Inactive)
REMARK    1  A    between atoms: C5_12  and  O2_2 
REMARK    2  A    between atoms: C11_18  and  O3_3 
REMARK    3  A    between atoms: C15_22  and  N1_7 
REMARK    4  A    between atoms: C2_9  and  C3_10 
ROOT
HETATM    1  O1  UNK     1      18.526   3.648  30.306  1.00  0.00    -0.275 OA
HETATM    2  O4  UNK     1      17.839   5.584  31.307  1.00  0.00    -0.260 OA
HETATM    3  C1  UNK     1      18.771   1.634  31.659  1.00  0.00     0.042 A 
HETATM    4  C2  UNK     1      18.349   2.393  32.847  1.00  0.00    -0.004 A 
HETATM    5  C4  UNK     1      18.847   2.283  30.429  1.00  0.00     0.096 A 
HETATM    6  C5  UNK     1      19.105   0.274  31.707  1.00  0.00     0.082 A 
HETATM    7  C6  UNK     1      18.049   3.693  32.696  1.00  0.00     0.096 A 
HETATM    8  C7  UNK     1      19.241   1.621  29.265  1.00  0.00     0.075 A 
HETATM    9  C10 UNK     1      19.502  -0.402  30.549  1.00  0.00     0.074 A 
HETATM   10  C11 UNK     1      19.570   0.271  29.330  1.00  0.00     0.071 A 
HETATM   11  C12 UNK     1      18.123   4.395  31.401  1.00  0.00     0.289 A 
ENDROOT
BRANCH   4  12
HETATM   12  C3  UNK     1      18.208   1.899  34.213  1.00  0.00    -0.025 A 
HETATM   13  C8  UNK     1      17.196   0.993  34.519  1.00  0.00     0.014 A 
HETATM   14  C13 UNK     1      17.060   0.521  35.825  1.00  0.00     0.037 A 
HETATM   15  C15 UNK     1      17.937   0.957  36.819  1.00  0.00     0.102 A 
HETATM   16  C14 UNK     1      18.949   1.864  36.507  1.00  0.00     0.037 A 
HETATM   17  C9  UNK     1      19.085   2.337  35.201  1.00  0.00     0.014 A 
BRANCH  15  18
HETATM   18  N1  UNK     1      17.799   0.477  38.148  1.00  0.00    -0.116 N 
HETATM   19  O5  UNK     1      17.657  -0.756  38.337  1.00  0.00    -0.532 OA
HETATM   20  O6  UNK     1      17.824   1.297  39.097  1.00  0.00    -0.532 OA
ENDBRANCH  15  18
ENDBRANCH   4  12
BRANCH   6  21
HETATM   21  O2  UNK     1      19.062  -0.448  32.864  1.00  0.00    -0.360 OA
HETATM   22  H8  UNK     1      18.984  -1.395  32.656  1.00  0.00     0.217 HD
ENDBRANCH   6  21
BRANCH  10  23
HETATM   23  O3  UNK     1      19.957  -0.392  28.206  1.00  0.00    -0.361 OA
HETATM   24  H9  UNK     1      19.519  -1.260  28.184  1.00  0.00     0.217 HD
ENDBRANCH  10  23
TORSDOF 4
ENDMDL
MODEL 10
REMARK VINA RESULT:      -7.4     17.001     19.791
REMARK  4 active torsions:
REMARK  status: ('A' for Active; 'I' for Inactive)
REMARK    1  A    between atoms: C5_12  and  O2_2 
REMARK    2  A    between atoms: C11_18  and  O3_3 
REMARK    3  A    between atoms: C15_22  and  N1_7 
REMARK    4  A    between atoms: C2_9  and  C3_10 
ROOT
HETATM    1  O1  UNK     1      26.965  -6.189  39.119  1.00  0.00    -0.275 OA
HETATM    2  O4  UNK     1      26.915  -3.907  39.008  1.00  0.00    -0.260 OA
HETATM    3  C1  UNK     1      28.960  -7.371  38.364  1.00  0.00     0.042 A 
HETATM    4  C2  UNK     1      29.585  -6.081  38.030  1.00  0.00    -0.004 A 
HETATM    5  C4  UNK     1      27.673  -7.385  38.897  1.00  0.00     0.096 A 
HETATM    6  C5  UNK     1      29.606  -8.599  38.170  1.00  0.00     0.082 A 
HETATM    7  C6  UNK     1      28.883  -4.958  38.255  1.00  0.00     0.096 A 
HETATM    8  C7  UNK     1      27.023  -8.574  39.235  1.00  0.00     0.075 A 
HETATM    9  C10 UNK     1      28.967  -9.798  38.504  1.00  0.00     0.074 A 
HETATM   10  C11 UNK     1      27.678  -9.785  39.035  1.00  0.00     0.071 A 
HETATM   11  C12 UNK     1      27.520  -4.956  38.819  1.00  0.00     0.289 A 
ENDROOT
BRANCH   4  12
HETATM   12  C3  UNK     1      30.913  -5.856  37.468  1.00  0.00    -0.025 A 
HETATM   13  C8  UNK     1      32.008  -5.714  38.317  1.00  0.00     0.014 A 
HETATM   14  C13 UNK     1      33.277  -5.499  37.780  1.00  0.00     0.037 A 
HETATM   15  C15 UNK     1      33.447  -5.427  36.397  1.00  0.00     0.102 A 
HETATM   16  C14 UNK     1      32.348  -5.570  35.551  1.00  0.00     0.037 A 
HETATM   17  C9  UNK     1      31.078  -5.785  36.087  1.00  0.00     0.014 A 
BRANCH  15  18
HETATM   18  N1  UNK     1      34.739  -5.207  35.851  1.00  0.00    -0.116 N 
HETATM   19  O5  UNK     1      35.719  -5.815  36.346  1.00  0.00    -0.532 OA
HETATM   20  O6  UNK     1      34.866  -4.413  34.888  1.00  0.00    -0.532 OA
ENDBRANCH  15  18
ENDBRANCH   4  12
BRANCH   6  21
HETATM   21  O2  UNK     1      30.866  -8.689  37.655  1.00  0.00    -0.360 OA
HETATM   22  H8  UNK     1      31.449  -8.052  38.103  1.00  0.00     0.217 HD
ENDBRANCH   6  21
BRANCH  10  23
HETATM   23  O3  UNK     1      27.062 -10.955  39.358  1.00  0.00    -0.361 OA
HETATM   24  H9  UNK     1      26.877 -10.962  40.312  1.00  0.00     0.217 HD
ENDBRANCH  10  23
TORSDOF 4
ENDMDL
