MODEL 1
REMARK VINA RESULT:      -8.4      0.000      0.000
REMARK  4 active torsions:
REMARK  status: ('A' for Active; 'I' for Inactive)
REMARK    1  A    between atoms: C3_12  and  N1_9 
REMARK    2  A    between atoms: C3_12  and  C6_15 
REMARK    3  A    between atoms: C13_22  and  C15_24 
REMARK    4  A    between atoms: C14_23  and  C16_25 
ROOT
HETATM    1  O2  UNK     1      18.068   8.581  33.546  1.00  0.00    -0.303 OA
HETATM    2  O3  UNK     1      14.832  11.896  34.283  1.00  0.00    -0.288 OA
HETATM    3  O4  UNK     1      15.299   6.146  31.829  1.00  0.00    -0.286 OA
HETATM    4  C6  UNK     1      16.454  10.259  33.925  1.00  0.00     0.052 A 
HETATM    5  C7  UNK     1      16.768   8.991  33.432  1.00  0.00     0.102 A 
HETATM    6  C8  UNK     1      15.146  10.734  33.838  1.00  0.00     0.182 A 
HETATM    7  C9  UNK     1      15.777   8.205  32.855  1.00  0.00     0.050 A 
HETATM    8  C10 UNK     1      14.153   9.944  33.258  1.00  0.00     0.056 A 
HETATM    9  C11 UNK     1      14.464   8.678  32.765  1.00  0.00     0.022 A 
HETATM   10  C12 UNK     1      16.135   6.875  32.345  1.00  0.00     0.198 A 
HETATM   11  C13 UNK     1      17.561   6.464  32.492  1.00  0.00     0.064 A 
HETATM   12  C14 UNK     1      18.425   7.326  33.072  1.00  0.00     0.174 A 
ENDROOT
BRANCH   4  13
HETATM   13  C3  UNK     1      17.545  11.085  34.543  1.00  0.00     0.280 C 
BRANCH  13  14
HETATM   14  N1  UNK     1      17.620  12.475  33.982  1.00  0.00    -0.063 N 
HETATM   15  C1  UNK     1      18.882  12.698  33.180  1.00  0.00     0.261 C 
HETATM   16  C4  UNK     1      18.845  14.105  32.611  1.00  0.00     0.195 C 
HETATM   17  O1  UNK     1      18.727  15.067  33.660  1.00  0.00    -0.388 OA
HETATM   18  C5  UNK     1      17.509  14.895  34.386  1.00  0.00     0.195 C 
HETATM   19  C2  UNK     1      17.473  13.530  35.052  1.00  0.00     0.261 C 
HETATM   20  H1  UNK     1      16.823  12.601  33.346  1.00  0.00     0.280 HD
ENDBRANCH  13  14
ENDBRANCH   4  13
BRANCH  12  21
HETATM   21  C16 UNK     1      19.888   7.056  33.285  1.00  0.00     0.440 C 
HETATM   22  F1  UNK     1      20.500   8.134  33.810  1.00  0.00    -0.164 F 
HETATM   23  F2  UNK     1      20.065   6.023  34.130  1.00  0.00    -0.164 F 
HETATM   24  F3  UNK     1      20.496   6.754  32.122  1.00  0.00    -0.164 F 
ENDBRANCH  12  21
BRANCH  11  25
HETATM   25  C15 UNK     1      17.979   5.155  32.006  1.00  0.00    -0.019 A 
HETATM   26  C17 UNK     1      18.453   5.015  30.704  1.00  0.00     0.014 A 
HETATM   27  C19 UNK     1      18.852   3.762  30.239  1.00  0.00     0.024 A 
HETATM   28  C21 UNK     1      18.777   2.651  31.079  1.00  0.00     0.034 A 
HETATM   29  C20 UNK     1      18.302   2.793  32.383  1.00  0.00     0.024 A 
HETATM   30 Cl1  UNK     1      19.270   1.105  30.505  1.00  0.00    -0.084 Cl
HETATM   31  C18 UNK     1      17.903   4.046  32.847  1.00  0.00     0.014 A 
ENDBRANCH  11  25
TORSDOF 4
ENDMDL
MODEL 2
REMARK VINA RESULT:      -8.2     23.405     25.463
REMARK  4 active torsions:
REMARK  status: ('A' for Active; 'I' for Inactive)
REMARK    1  A    between atoms: C3_12  and  N1_9 
REMARK    2  A    between atoms: C3_12  and  C6_15 
REMARK    3  A    between atoms: C13_22  and  C15_24 
REMARK    4  A    between atoms: C14_23  and  C16_25 
ROOT
HETATM    1  O2  UNK     1      10.836   8.267   9.468  1.00  0.00    -0.303 OA
HETATM    2  O3  UNK     1       7.739   5.796   6.956  1.00  0.00    -0.288 OA
HETATM    3  O4  UNK     1      13.787   7.436   6.795  1.00  0.00    -0.286 OA
HETATM    4  C6  UNK     1       9.265   7.029   8.219  1.00  0.00     0.052 A 
HETATM    5  C7  UNK     1      10.571   7.499   8.368  1.00  0.00     0.102 A 
HETATM    6  C8  UNK     1       8.932   6.240   7.117  1.00  0.00     0.182 A 
HETATM    7  C9  UNK     1      11.536   7.181   7.420  1.00  0.00     0.050 A 
HETATM    8  C10 UNK     1       9.902   5.923   6.167  1.00  0.00     0.056 A 
HETATM    9  C11 UNK     1      11.207   6.391   6.314  1.00  0.00     0.022 A 
HETATM   10  C12 UNK     1      12.903   7.689   7.603  1.00  0.00     0.198 A 
HETATM   11  C13 UNK     1      13.151   8.518   8.816  1.00  0.00     0.064 A 
HETATM   12  C14 UNK     1      12.122   8.754   9.659  1.00  0.00     0.174 A 
ENDROOT
BRANCH   4  13
HETATM   13  C3  UNK     1       8.243   7.389   9.259  1.00  0.00     0.280 C 
BRANCH  13  14
HETATM   14  N1  UNK     1       7.386   6.227   9.668  1.00  0.00    -0.063 N 
HETATM   15  C1  UNK     1       6.279   6.640  10.610  1.00  0.00     0.261 C 
HETATM   16  C4  UNK     1       5.437   5.416  10.925  1.00  0.00     0.195 C 
HETATM   17  O1  UNK     1       6.243   4.387  11.501  1.00  0.00    -0.388 OA
HETATM   18  C5  UNK     1       7.258   3.954  10.592  1.00  0.00     0.195 C 
HETATM   19  C2  UNK     1       8.199   5.099  10.259  1.00  0.00     0.261 C 
HETATM   20  H1  UNK     1       6.946   5.847   8.820  1.00  0.00     0.280 HD
ENDBRANCH  13  14
ENDBRANCH   4  13
BRANCH  12  21
HETATM   21  C16 UNK     1      12.217   9.573  10.917  1.00  0.00     0.440 C 
HETATM   22  F1  UNK     1      12.776  10.771  10.664  1.00  0.00    -0.164 F 
HETATM   23  F2  UNK     1      10.996   9.783  11.442  1.00  0.00    -0.164 F 
HETATM   24  F3  UNK     1      12.968   8.946  11.842  1.00  0.00    -0.164 F 
ENDBRANCH  12  21
BRANCH  11  25
HETATM   25  C15 UNK     1      14.487   9.051   9.054  1.00  0.00    -0.019 A 
HETATM   26  C17 UNK     1      15.375   8.360   9.876  1.00  0.00     0.014 A 
HETATM   27  C19 UNK     1      16.652   8.870  10.104  1.00  0.00     0.024 A 
HETATM   28  C21 UNK     1      17.041  10.071   9.509  1.00  0.00     0.034 A 
HETATM   29  C20 UNK     1      16.150  10.761   8.686  1.00  0.00     0.024 A 
HETATM   30 Cl1  UNK     1      18.618  10.699   9.790  1.00  0.00    -0.084 Cl
HETATM   31  C18 UNK     1      14.873  10.250   8.458  1.00  0.00     0.014 A 
ENDBRANCH  11  25
TORSDOF 4
ENDMDL
MODEL 3
REMARK VINA RESULT:      -8.1     19.200     20.027
REMARK  4 active torsions:
REMARK  status: ('A' for Active; 'I' for Inactive)
REMARK    1  A    between atoms: C3_12  and  N1_9 
REMARK    2  A    between atoms: C3_12  and  C6_15 
REMARK    3  A    between atoms: C13_22  and  C15_24 
REMARK    4  A    between atoms: C14_23  and  C16_25 
ROOT
HETATM    1  O2  UNK     1      30.019  -5.998  34.807  1.00  0.00    -0.303 OA
HETATM    2  O3  UNK     1      29.357  -5.875  39.449  1.00  0.00    -0.288 OA
HETATM    3  O4  UNK     1      27.805  -9.396  34.500  1.00  0.00    -0.286 OA
HETATM    4  C6  UNK     1      29.697  -5.920  37.142  1.00  0.00     0.052 A 
HETATM    5  C7  UNK     1      29.465  -6.561  35.924  1.00  0.00     0.102 A 
HETATM    6  C8  UNK     1      29.159  -6.446  38.317  1.00  0.00     0.182 A 
HETATM    7  C9  UNK     1      28.699  -7.720  35.883  1.00  0.00     0.050 A 
HETATM    8  C10 UNK     1      28.390  -7.609  38.274  1.00  0.00     0.056 A 
HETATM    9  C11 UNK     1      28.158  -8.251  37.058  1.00  0.00     0.022 A 
HETATM   10  C12 UNK     1      28.472  -8.374  34.587  1.00  0.00     0.198 A 
HETATM   11  C13 UNK     1      29.096  -7.731  33.395  1.00  0.00     0.064 A 
HETATM   12  C14 UNK     1      29.817  -6.603  33.573  1.00  0.00     0.174 A 
ENDROOT
BRANCH   4  13
HETATM   13  C3  UNK     1      30.528  -4.669  37.155  1.00  0.00     0.280 C 
BRANCH  13  14
HETATM   14  N1  UNK     1      31.856  -4.838  36.477  1.00  0.00    -0.063 N 
HETATM   15  C1  UNK     1      32.841  -5.597  37.336  1.00  0.00     0.261 C 
HETATM   16  C4  UNK     1      34.130  -5.765  36.551  1.00  0.00     0.195 C 
HETATM   17  O1  UNK     1      34.655  -4.492  36.170  1.00  0.00    -0.388 OA
HETATM   18  C5  UNK     1      33.749  -3.794  35.312  1.00  0.00     0.195 C 
HETATM   19  C2  UNK     1      32.439  -3.519  36.030  1.00  0.00     0.261 C 
HETATM   20  H1  UNK     1      31.704  -5.387  35.621  1.00  0.00     0.280 HD
ENDBRANCH  13  14
ENDBRANCH   4  13
BRANCH  12  21
HETATM   21  C16 UNK     1      30.500  -5.841  32.472  1.00  0.00     0.440 C 
HETATM   22  F1  UNK     1      31.103  -4.740  32.957  1.00  0.00    -0.164 F 
HETATM   23  F2  UNK     1      31.436  -6.602  31.874  1.00  0.00    -0.164 F 
HETATM   24  F3  UNK     1      29.614  -5.455  31.534  1.00  0.00    -0.164 F 
ENDBRANCH  12  21
BRANCH  11  25
HETATM   25  C15 UNK     1      28.908  -8.333  32.081  1.00  0.00    -0.019 A 
HETATM   26  C17 UNK     1      27.816  -7.966  31.298  1.00  0.00     0.014 A 
HETATM   27  C19 UNK     1      27.635  -8.543  30.041  1.00  0.00     0.024 A 
HETATM   28  C21 UNK     1      28.549  -9.485  29.569  1.00  0.00     0.034 A 
HETATM   29  C20 UNK     1      29.643  -9.850  30.354  1.00  0.00     0.024 A 
HETATM   30 Cl1  UNK     1      28.327 -10.195  28.017  1.00  0.00    -0.084 Cl
HETATM   31  C18 UNK     1      29.822  -9.274  31.611  1.00  0.00     0.014 A 
ENDBRANCH  11  25
TORSDOF 4
ENDMDL
MODEL 4
REMARK VINA RESULT:      -8.1     23.322     25.129
REMARK  4 active torsions:
REMARK  status: ('A' for Active; 'I' for Inactive)
REMARK    1  A    between atoms: C3_12  and  N1_9 
REMARK    2  A    between atoms: C3_12  and  C6_15 
REMARK    3  A    between atoms: C13_22  and  C15_24 
REMARK    4  A    between atoms: C14_23  and  C16_25 
ROOT
HETATM    1  O2  UNK     1      14.301   9.412   9.253  1.00  0.00    -0.303 OA
HETATM    2  O3  UNK     1      12.413   5.160   9.854  1.00  0.00    -0.288 OA
HETATM    3  O4  UNK     1      18.027   7.947   9.973  1.00  0.00    -0.286 OA
HETATM    4  C6  UNK     1      13.334   7.281   9.552  1.00  0.00     0.052 A 
HETATM    5  C7  UNK     1      14.476   8.083   9.531  1.00  0.00     0.102 A 
HETATM    6  C8  UNK     1      13.447   5.919   9.829  1.00  0.00     0.182 A 
HETATM    7  C9  UNK     1      15.723   7.524   9.785  1.00  0.00     0.050 A 
HETATM    8  C10 UNK     1      14.699   5.359  10.084  1.00  0.00     0.056 A 
HETATM    9  C11 UNK     1      15.842   6.159  10.062  1.00  0.00     0.022 A 
HETATM   10  C12 UNK     1      16.908   8.392   9.756  1.00  0.00     0.198 A 
HETATM   11  C13 UNK     1      16.674   9.833   9.454  1.00  0.00     0.064 A 
HETATM   12  C14 UNK     1      15.409  10.248   9.224  1.00  0.00     0.174 A 
ENDROOT
BRANCH   4  13
HETATM   13  C3  UNK     1      12.001   7.913   9.273  1.00  0.00     0.280 C 
BRANCH  13  14
HETATM   14  N1  UNK     1      11.124   7.072   8.392  1.00  0.00    -0.063 N 
HETATM   15  C1  UNK     1      11.433   7.271   6.926  1.00  0.00     0.261 C 
HETATM   16  C4  UNK     1      10.539   6.345   6.120  1.00  0.00     0.195 C 
HETATM   17  O1  UNK     1       9.163   6.613   6.394  1.00  0.00    -0.388 OA
HETATM   18  C5  UNK     1       8.853   6.374   7.769  1.00  0.00     0.195 C 
HETATM   19  C2  UNK     1       9.656   7.301   8.665  1.00  0.00     0.261 C 
HETATM   20  H1  UNK     1      11.305   6.086   8.617  1.00  0.00     0.280 HD
ENDBRANCH  13  14
ENDBRANCH   4  13
BRANCH  12  21
HETATM   21  C16 UNK     1      15.018  11.664   8.903  1.00  0.00     0.440 C 
HETATM   22  F1  UNK     1      15.188  11.920   7.592  1.00  0.00    -0.164 F 
HETATM   23  F2  UNK     1      13.725  11.883   9.207  1.00  0.00    -0.164 F 
HETATM   24  F3  UNK     1      15.766  12.539   9.602  1.00  0.00    -0.164 F 
ENDBRANCH  12  21
BRANCH  11  25
HETATM   25  C15 UNK     1      17.810  10.746   9.412  1.00  0.00    -0.019 A 
HETATM   26  C17 UNK     1      18.300  11.301  10.592  1.00  0.00     0.014 A 
HETATM   27  C19 UNK     1      19.386  12.175  10.551  1.00  0.00     0.024 A 
HETATM   28  C21 UNK     1      19.981  12.492   9.330  1.00  0.00     0.034 A 
HETATM   29  C20 UNK     1      19.489  11.935   8.149  1.00  0.00     0.024 A 
HETATM   30 Cl1  UNK     1      21.321  13.570   9.280  1.00  0.00    -0.084 Cl
HETATM   31  C18 UNK     1      18.403  11.061   8.191  1.00  0.00     0.014 A 
ENDBRANCH  11  25
TORSDOF 4
ENDMDL
MODEL 5
REMARK VINA RESULT:      -8.1      6.239     10.007
REMARK  4 active torsions:
REMARK  status: ('A' for Active; 'I' for Inactive)
REMARK    1  A    between atoms: C3_12  and  N1_9 
REMARK    2  A    between atoms: C3_12  and  C6_15 
REMARK    3  A    between atoms: C13_22  and  C15_24 
REMARK    4  A    between atoms: C14_23  and  C16_25 
ROOT
HETATM    1  O2  UNK     1      18.683  -0.125  33.037  1.00  0.00    -0.303 OA
HETATM    2  O3  UNK     1      19.384   1.225  28.599  1.00  0.00    -0.288 OA
HETATM    3  O4  UNK     1      21.289  -3.216  32.593  1.00  0.00    -0.286 OA
HETATM    4  C6  UNK     1      19.022   0.568  30.808  1.00  0.00     0.052 A 
HETATM    5  C7  UNK     1      19.315  -0.325  31.840  1.00  0.00     0.102 A 
HETATM    6  C8  UNK     1      19.635   0.417  29.564  1.00  0.00     0.182 A 
HETATM    7  C9  UNK     1      20.215  -1.362  31.627  1.00  0.00     0.050 A 
HETATM    8  C10 UNK     1      20.538  -0.624  29.352  1.00  0.00     0.056 A 
HETATM    9  C11 UNK     1      20.832  -1.518  30.382  1.00  0.00     0.022 A 
HETATM   10  C12 UNK     1      20.504  -2.288  32.731  1.00  0.00     0.198 A 
HETATM   11  C13 UNK     1      19.792  -2.038  34.017  1.00  0.00     0.064 A 
HETATM   12  C14 UNK     1      18.942  -0.991  34.091  1.00  0.00     0.174 A 
ENDROOT
BRANCH   4  13
HETATM   13  C3  UNK     1      18.046   1.679  31.068  1.00  0.00     0.280 C 
BRANCH  13  14
HETATM   14  N1  UNK     1      18.711   3.002  31.310  1.00  0.00    -0.063 N 
HETATM   15  C1  UNK     1      18.092   3.746  32.472  1.00  0.00     0.261 C 
HETATM   16  C4  UNK     1      18.860   5.040  32.674  1.00  0.00     0.195 C 
HETATM   17  O1  UNK     1      18.831   5.831  31.485  1.00  0.00    -0.388 OA
HETATM   18  C5  UNK     1      19.465   5.155  30.398  1.00  0.00     0.195 C 
HETATM   19  C2  UNK     1      18.730   3.866  30.071  1.00  0.00     0.261 C 
HETATM   20  H1  UNK     1      19.695   2.821  31.546  1.00  0.00     0.280 HD
ENDBRANCH  13  14
ENDBRANCH   4  13
BRANCH  12  21
HETATM   21  C16 UNK     1      18.157  -0.611  35.316  1.00  0.00     0.440 C 
HETATM   22  F1  UNK     1      17.195   0.279  35.009  1.00  0.00    -0.164 F 
HETATM   23  F2  UNK     1      17.568  -1.692  35.860  1.00  0.00    -0.164 F 
HETATM   24  F3  UNK     1      18.958  -0.058  36.247  1.00  0.00    -0.164 F 
ENDBRANCH  12  21
BRANCH  11  25
HETATM   25  C15 UNK     1      20.035  -2.922  35.150  1.00  0.00    -0.019 A 
HETATM   26  C17 UNK     1      20.719  -2.449  36.267  1.00  0.00     0.014 A 
HETATM   27  C19 UNK     1      20.952  -3.295  37.351  1.00  0.00     0.024 A 
HETATM   28  C21 UNK     1      20.501  -4.615  37.315  1.00  0.00     0.034 A 
HETATM   29  C20 UNK     1      19.816  -5.087  36.195  1.00  0.00     0.024 A 
HETATM   30 Cl1  UNK     1      20.788  -5.659  38.652  1.00  0.00    -0.084 Cl
HETATM   31  C18 UNK     1      19.583  -4.240  35.112  1.00  0.00     0.014 A 
ENDBRANCH  11  25
TORSDOF 4
ENDMDL
MODEL 6
REMARK VINA RESULT:      -8.1      0.643      1.092
REMARK  4 active torsions:
REMARK  status: ('A' for Active; 'I' for Inactive)
REMARK    1  A    between atoms: C3_12  and  N1_9 
REMARK    2  A    between atoms: C3_12  and  C6_15 
REMARK    3  A    between atoms: C13_22  and  C15_24 
REMARK    4  A    between atoms: C14_23  and  C16_25 
ROOT
HETATM    1  O2  UNK     1      17.699   9.134  33.827  1.00  0.00    -0.303 OA
HETATM    2  O3  UNK     1      14.366  12.398  34.323  1.00  0.00    -0.288 OA
HETATM    3  O4  UNK     1      15.106   6.665  31.897  1.00  0.00    -0.286 OA
HETATM    4  C6  UNK     1      16.036  10.787  34.086  1.00  0.00     0.052 A 
HETATM    5  C7  UNK     1      16.405   9.526  33.615  1.00  0.00     0.102 A 
HETATM    6  C8  UNK     1      14.731  11.242  33.900  1.00  0.00     0.182 A 
HETATM    7  C9  UNK     1      15.473   8.727  32.962  1.00  0.00     0.050 A 
HETATM    8  C10 UNK     1      13.797  10.440  33.245  1.00  0.00     0.056 A 
HETATM    9  C11 UNK     1      14.164   9.180  32.773  1.00  0.00     0.022 A 
HETATM   10  C12 UNK     1      15.890   7.404  32.478  1.00  0.00     0.198 A 
HETATM   11  C13 UNK     1      17.306   7.014  32.732  1.00  0.00     0.064 A 
HETATM   12  C14 UNK     1      18.110   7.886  33.378  1.00  0.00     0.174 A 
ENDROOT
BRANCH   4  13
HETATM   13  C3  UNK     1      17.064  11.627  34.787  1.00  0.00     0.280 C 
BRANCH  13  14
HETATM   14  N1  UNK     1      17.362  12.911  34.071  1.00  0.00    -0.063 N 
HETATM   15  C1  UNK     1      18.683  12.860  33.338  1.00  0.00     0.261 C 
HETATM   16  C4  UNK     1      18.874  14.176  32.603  1.00  0.00     0.195 C 
HETATM   17  O1  UNK     1      18.837  15.271  33.519  1.00  0.00    -0.388 OA
HETATM   18  C5  UNK     1      17.570  15.356  34.174  1.00  0.00     0.195 C 
HETATM   19  C2  UNK     1      17.309  14.105  34.994  1.00  0.00     0.261 C 
HETATM   20  H1  UNK     1      16.625  13.059  33.370  1.00  0.00     0.280 HD
ENDBRANCH  13  14
ENDBRANCH   4  13
BRANCH  12  21
HETATM   21  C16 UNK     1      19.557   7.637  33.702  1.00  0.00     0.440 C 
HETATM   22  F1  UNK     1      20.143   8.760  34.160  1.00  0.00    -0.164 F 
HETATM   23  F2  UNK     1      19.678   6.687  34.648  1.00  0.00    -0.164 F 
HETATM   24  F3  UNK     1      20.231   7.229  32.610  1.00  0.00    -0.164 F 
ENDBRANCH  12  21
BRANCH  11  25
HETATM   25  C15 UNK     1      17.780   5.713  32.276  1.00  0.00    -0.019 A 
HETATM   26  C17 UNK     1      17.731   4.616  33.133  1.00  0.00     0.014 A 
HETATM   27  C19 UNK     1      18.185   3.371  32.697  1.00  0.00     0.024 A 
HETATM   28  C21 UNK     1      18.687   3.226  31.403  1.00  0.00     0.034 A 
HETATM   29  C20 UNK     1      18.735   4.326  30.547  1.00  0.00     0.024 A 
HETATM   30 Cl1  UNK     1      19.246   1.691  30.865  1.00  0.00    -0.084 Cl
HETATM   31  C18 UNK     1      18.281   5.570  30.983  1.00  0.00     0.014 A 
ENDBRANCH  11  25
TORSDOF 4
ENDMDL
MODEL 7
REMARK VINA RESULT:      -8.0     19.027     20.594
REMARK  4 active torsions:
REMARK  status: ('A' for Active; 'I' for Inactive)
REMARK    1  A    between atoms: C3_12  and  N1_9 
REMARK    2  A    between atoms: C3_12  and  C6_15 
REMARK    3  A    between atoms: C13_22  and  C15_24 
REMARK    4  A    between atoms: C14_23  and  C16_25 
ROOT
HETATM    1  O2  UNK     1      28.909  -6.922  35.699  1.00  0.00    -0.303 OA
HETATM    2  O3  UNK     1      28.859  -4.456  39.689  1.00  0.00    -0.288 OA
HETATM    3  O4  UNK     1      32.419  -5.198  34.583  1.00  0.00    -0.286 OA
HETATM    4  C6  UNK     1      28.867  -5.691  37.710  1.00  0.00     0.052 A 
HETATM    5  C7  UNK     1      29.510  -5.999  36.510  1.00  0.00     0.102 A 
HETATM    6  C8  UNK     1      29.430  -4.757  38.580  1.00  0.00     0.182 A 
HETATM    7  C9  UNK     1      30.709  -5.376  36.184  1.00  0.00     0.050 A 
HETATM    8  C10 UNK     1      30.633  -4.132  38.251  1.00  0.00     0.056 A 
HETATM    9  C11 UNK     1      31.277  -4.439  37.053  1.00  0.00     0.022 A 
HETATM   10  C12 UNK     1      31.363  -5.719  34.914  1.00  0.00     0.198 A 
HETATM   11  C13 UNK     1      30.674  -6.726  34.058  1.00  0.00     0.064 A 
HETATM   12  C14 UNK     1      29.512  -7.258  34.494  1.00  0.00     0.174 A 
ENDROOT
BRANCH   4  13
HETATM   13  C3  UNK     1      27.573  -6.380  38.036  1.00  0.00     0.280 C 
BRANCH  13  14
HETATM   14  N1  UNK     1      27.702  -7.874  38.097  1.00  0.00    -0.063 N 
HETATM   15  C1  UNK     1      26.476  -8.573  37.556  1.00  0.00     0.261 C 
HETATM   16  C4  UNK     1      26.718 -10.071  37.608  1.00  0.00     0.195 C 
HETATM   17  O1  UNK     1      26.997 -10.488  38.946  1.00  0.00    -0.388 OA
HETATM   18  C5  UNK     1      28.186  -9.871  39.443  1.00  0.00     0.195 C 
HETATM   19  C2  UNK     1      28.024  -8.361  39.490  1.00  0.00     0.261 C 
HETATM   20  H1  UNK     1      28.499  -8.145  37.508  1.00  0.00     0.280 HD
ENDBRANCH  13  14
ENDBRANCH   4  13
BRANCH  12  21
HETATM   21  C16 UNK     1      28.706  -8.283  33.746  1.00  0.00     0.440 C 
HETATM   22  F1  UNK     1      27.786  -8.847  34.552  1.00  0.00    -0.164 F 
HETATM   23  F2  UNK     1      28.062  -7.720  32.707  1.00  0.00    -0.164 F 
HETATM   24  F3  UNK     1      29.499  -9.261  33.267  1.00  0.00    -0.164 F 
ENDBRANCH  12  21
BRANCH  11  25
HETATM   25  C15 UNK     1      31.273  -7.108  32.785  1.00  0.00    -0.019 A 
HETATM   26  C17 UNK     1      32.271  -8.079  32.749  1.00  0.00     0.014 A 
HETATM   27  C19 UNK     1      32.844  -8.444  31.531  1.00  0.00     0.024 A 
HETATM   28  C21 UNK     1      32.418  -7.836  30.350  1.00  0.00     0.034 A 
HETATM   29  C20 UNK     1      31.418  -6.864  30.388  1.00  0.00     0.024 A 
HETATM   30 Cl1  UNK     1      33.125  -8.287  28.848  1.00  0.00    -0.084 Cl
HETATM   31  C18 UNK     1      30.845  -6.500  31.606  1.00  0.00     0.014 A 
ENDBRANCH  11  25
TORSDOF 4
ENDMDL
MODEL 8
REMARK VINA RESULT:      -8.0      5.313      8.306
REMARK  4 active torsions:
REMARK  status: ('A' for Active; 'I' for Inactive)
REMARK    1  A    between atoms: C3_12  and  N1_9 
REMARK    2  A    between atoms: C3_12  and  C6_15 
REMARK    3  A    between atoms: C13_22  and  C15_24 
REMARK    4  A    between atoms: C14_23  and  C16_25 
ROOT
HETATM    1  O2  UNK     1      18.287   1.836  32.971  1.00  0.00    -0.303 OA
HETATM    2  O3  UNK     1      18.323   3.121  28.459  1.00  0.00    -0.288 OA
HETATM    3  O4  UNK     1      19.667  -1.868  32.010  1.00  0.00    -0.286 OA
HETATM    4  C6  UNK     1      18.298   2.500  30.707  1.00  0.00     0.052 A 
HETATM    5  C7  UNK     1      18.537   1.513  31.665  1.00  0.00     0.102 A 
HETATM    6  C8  UNK     1      18.534   2.231  29.359  1.00  0.00     0.182 A 
HETATM    7  C9  UNK     1      19.010   0.265  31.274  1.00  0.00     0.050 A 
HETATM    8  C10 UNK     1      19.008   0.978  28.969  1.00  0.00     0.056 A 
HETATM    9  C11 UNK     1      19.248  -0.009  29.924  1.00  0.00     0.022 A 
HETATM   10  C12 UNK     1      19.252  -0.755  32.304  1.00  0.00     0.198 A 
HETATM   11  C13 UNK     1      18.963  -0.364  33.713  1.00  0.00     0.064 A 
HETATM   12  C14 UNK     1      18.508   0.884  33.957  1.00  0.00     0.174 A 
ENDROOT
BRANCH   4  13
HETATM   13  C3  UNK     1      17.788   3.838  31.159  1.00  0.00     0.280 C 
BRANCH  13  14
HETATM   14  N1  UNK     1      18.792   4.608  31.966  1.00  0.00    -0.063 N 
HETATM   15  C1  UNK     1      18.145   5.371  33.099  1.00  0.00     0.261 C 
HETATM   16  C4  UNK     1      19.238   6.072  33.888  1.00  0.00     0.195 C 
HETATM   17  O1  UNK     1      19.986   6.946  33.041  1.00  0.00    -0.388 OA
HETATM   18  C5  UNK     1      20.644   6.221  32.000  1.00  0.00     0.195 C 
HETATM   19  C2  UNK     1      19.628   5.528  31.109  1.00  0.00     0.261 C 
HETATM   20  H1  UNK     1      19.447   3.932  32.381  1.00  0.00     0.280 HD
ENDBRANCH  13  14
ENDBRANCH   4  13
BRANCH  12  21
HETATM   21  C16 UNK     1      18.178   1.423  35.321  1.00  0.00     0.440 C 
HETATM   22  F1  UNK     1      18.076   2.765  35.291  1.00  0.00    -0.164 F 
HETATM   23  F2  UNK     1      17.008   0.925  35.762  1.00  0.00    -0.164 F 
HETATM   24  F3  UNK     1      19.134   1.095  36.212  1.00  0.00    -0.164 F 
ENDBRANCH  12  21
BRANCH  11  25
HETATM   25  C15 UNK     1      19.182  -1.333  34.780  1.00  0.00    -0.019 A 
HETATM   26  C17 UNK     1      18.100  -1.823  35.507  1.00  0.00     0.014 A 
HETATM   27  C19 UNK     1      18.310  -2.749  36.529  1.00  0.00     0.024 A 
HETATM   28  C21 UNK     1      19.604  -3.183  36.821  1.00  0.00     0.034 A 
HETATM   29  C20 UNK     1      20.686  -2.691  36.092  1.00  0.00     0.024 A 
HETATM   30 Cl1  UNK     1      19.863  -4.327  38.081  1.00  0.00    -0.084 Cl
HETATM   31  C18 UNK     1      20.475  -1.765  35.070  1.00  0.00     0.014 A 
ENDBRANCH  11  25
TORSDOF 4
ENDMDL
MODEL 9
REMARK VINA RESULT:      -8.0     19.897     22.883
REMARK  4 active torsions:
REMARK  status: ('A' for Active; 'I' for Inactive)
REMARK    1  A    between atoms: C3_12  and  N1_9 
REMARK    2  A    between atoms: C3_12  and  C6_15 
REMARK    3  A    between atoms: C13_22  and  C15_24 
REMARK    4  A    between atoms: C14_23  and  C16_25 
ROOT
HETATM    1  O2  UNK     1      32.657  -7.016  31.909  1.00  0.00    -0.303 OA
HETATM    2  O3  UNK     1      36.300  -9.228  29.950  1.00  0.00    -0.288 OA
HETATM    3  O4  UNK     1      34.402  -7.222  35.577  1.00  0.00    -0.286 OA
HETATM    4  C6  UNK     1      34.480  -8.127  30.906  1.00  0.00     0.052 A 
HETATM    5  C7  UNK     1      33.881  -7.610  32.056  1.00  0.00     0.102 A 
HETATM    6  C8  UNK     1      35.728  -8.745  30.991  1.00  0.00     0.182 A 
HETATM    7  C9  UNK     1      34.528  -7.711  33.282  1.00  0.00     0.050 A 
HETATM    8  C10 UNK     1      36.376  -8.845  32.223  1.00  0.00     0.056 A 
HETATM    9  C11 UNK     1      35.778  -8.329  33.372  1.00  0.00     0.022 A 
HETATM   10  C12 UNK     1      33.873  -7.158  34.476  1.00  0.00     0.198 A 
HETATM   11  C13 UNK     1      32.539  -6.523  34.274  1.00  0.00     0.064 A 
HETATM   12  C14 UNK     1      32.022  -6.490  33.027  1.00  0.00     0.174 A 
ENDROOT
BRANCH   4  13
HETATM   13  C3  UNK     1      33.758  -8.004  29.596  1.00  0.00     0.280 C 
BRANCH  13  14
HETATM   14  N1  UNK     1      32.496  -8.814  29.541  1.00  0.00    -0.063 N 
HETATM   15  C1  UNK     1      32.743 -10.274  29.845  1.00  0.00     0.261 C 
HETATM   16  C4  UNK     1      31.409 -11.000  29.820  1.00  0.00     0.195 C 
HETATM   17  O1  UNK     1      30.776 -10.840  28.549  1.00  0.00    -0.388 OA
HETATM   18  C5  UNK     1      30.490  -9.466  28.282  1.00  0.00     0.195 C 
HETATM   19  C2  UNK     1      31.774  -8.656  28.224  1.00  0.00     0.261 C 
HETATM   20  H1  UNK     1      31.858  -8.451  30.261  1.00  0.00     0.280 HD
ENDBRANCH  13  14
ENDBRANCH   4  13
BRANCH  12  21
HETATM   21  C16 UNK     1      30.695  -5.882  32.666  1.00  0.00     0.440 C 
HETATM   22  F1  UNK     1      30.416  -6.084  31.365  1.00  0.00    -0.164 F 
HETATM   23  F2  UNK     1      29.705  -6.431  33.395  1.00  0.00    -0.164 F 
HETATM   24  F3  UNK     1      30.697  -4.555  32.894  1.00  0.00    -0.164 F 
ENDBRANCH  12  21
BRANCH  11  25
HETATM   25  C15 UNK     1      31.839  -5.957  35.420  1.00  0.00    -0.019 A 
HETATM   26  C17 UNK     1      30.921  -6.731  36.126  1.00  0.00     0.014 A 
HETATM   27  C19 UNK     1      30.250  -6.189  37.222  1.00  0.00     0.024 A 
HETATM   28  C21 UNK     1      30.499  -4.872  37.610  1.00  0.00     0.034 A 
HETATM   29  C20 UNK     1      31.419  -4.099  36.902  1.00  0.00     0.024 A 
HETATM   30 Cl1  UNK     1      29.672  -4.204  38.963  1.00  0.00    -0.084 Cl
HETATM   31  C18 UNK     1      32.089  -4.642  35.806  1.00  0.00     0.014 A 
ENDBRANCH  11  25
TORSDOF 4
ENDMDL
MODEL 10
REMARK VINA RESULT:      -7.9     20.095     23.547
REMARK  4 active torsions:
REMARK  status: ('A' for Active; 'I' for Inactive)
REMARK    1  A    between atoms: C3_12  and  N1_9 
REMARK    2  A    between atoms: C3_12  and  C6_15 
REMARK    3  A    between atoms: C13_22  and  C15_24 
REMARK    4  A    between atoms: C14_23  and  C16_25 
ROOT
HETATM    1  O2  UNK     1      33.350  -8.410  33.999  1.00  0.00    -0.303 OA
HETATM    2  O3  UNK     1      37.565  -9.474  32.236  1.00  0.00    -0.288 OA
HETATM    3  O4  UNK     1      35.014  -5.744  36.581  1.00  0.00    -0.286 OA
HETATM    4  C6  UNK     1      35.461  -8.958  33.100  1.00  0.00     0.052 A 
HETATM    5  C7  UNK     1      34.704  -8.213  34.006  1.00  0.00     0.102 A 
HETATM    6  C8  UNK     1      36.846  -8.801  33.059  1.00  0.00     0.182 A 
HETATM    7  C9  UNK     1      35.331  -7.316  34.863  1.00  0.00     0.050 A 
HETATM    8  C10 UNK     1      37.474  -7.901  33.920  1.00  0.00     0.056 A 
HETATM    9  C11 UNK     1      36.719  -7.155  34.825  1.00  0.00     0.022 A 
HETATM   10  C12 UNK     1      34.509  -6.545  35.806  1.00  0.00     0.198 A 
HETATM   11  C13 UNK     1      33.039  -6.793  35.770  1.00  0.00     0.064 A 
HETATM   12  C14 UNK     1      32.557  -7.692  34.885  1.00  0.00     0.174 A 
ENDROOT
BRANCH   4  13
HETATM   13  C3  UNK     1      34.756  -9.919  32.186  1.00  0.00     0.280 C 
BRANCH  13  14
HETATM   14  N1  UNK     1      33.958  -9.234  31.116  1.00  0.00    -0.063 N 
HETATM   15  C1  UNK     1      33.057 -10.196  30.375  1.00  0.00     0.261 C 
HETATM   16  C4  UNK     1      32.254  -9.408  29.354  1.00  0.00     0.195 C 
HETATM   17  O1  UNK     1      33.124  -8.723  28.453  1.00  0.00    -0.388 OA
HETATM   18  C5  UNK     1      33.940  -7.773  29.142  1.00  0.00     0.195 C 
HETATM   19  C2  UNK     1      34.835  -8.471  30.152  1.00  0.00     0.261 C 
HETATM   20  H1  UNK     1      33.358  -8.534  31.570  1.00  0.00     0.280 HD
ENDBRANCH  13  14
ENDBRANCH   4  13
BRANCH  12  21
HETATM   21  C16 UNK     1      31.104  -8.045  34.728  1.00  0.00     0.440 C 
HETATM   22  F1  UNK     1      30.366  -6.939  34.518  1.00  0.00    -0.164 F 
HETATM   23  F2  UNK     1      30.924  -8.873  33.683  1.00  0.00    -0.164 F 
HETATM   24  F3  UNK     1      30.637  -8.658  35.833  1.00  0.00    -0.164 F 
ENDBRANCH  12  21
BRANCH  11  25
HETATM   25  C15 UNK     1      32.170  -6.059  36.682  1.00  0.00    -0.019 A 
HETATM   26  C17 UNK     1      31.783  -6.637  37.889  1.00  0.00     0.014 A 
HETATM   27  C19 UNK     1      30.951  -5.935  38.761  1.00  0.00     0.024 A 
HETATM   28  C21 UNK     1      30.508  -4.656  38.424  1.00  0.00     0.034 A 
HETATM   29  C20 UNK     1      30.898  -4.079  37.215  1.00  0.00     0.024 A 
HETATM   30 Cl1  UNK     1      29.483  -3.790  39.501  1.00  0.00    -0.084 Cl
HETATM   31  C18 UNK     1      31.730  -4.781  36.344  1.00  0.00     0.014 A 
ENDBRANCH  11  25
TORSDOF 4
ENDMDL
