MODEL 1
REMARK VINA RESULT:      -9.6      0.000      0.000
REMARK  5 active torsions:
REMARK  status: ('A' for Active; 'I' for Inactive)
REMARK    1  A    between atoms: C14_22  and  O3_4 
REMARK    2  A    between atoms: C15_23  and  O4_5 
REMARK       I    between atoms: C16_24  and  N1_7 
REMARK    3  A    between atoms: N1_7  and  N2_8 
REMARK    4  A    between atoms: C11_19  and  C4_12 
REMARK    5  A    between atoms: C10_18  and  C16_24 
ROOT
HETATM    1  O5  UNK     1      17.183   2.765  30.768  1.00  0.00    -0.266 OA
HETATM    2  N1  UNK     1      19.200   3.843  30.406  1.00  0.00    -0.243 N 
HETATM    3  C16 UNK     1      18.370   2.738  30.451  1.00  0.00     0.271 C 
HETATM    4  H9  UNK     1      20.192   3.799  30.200  1.00  0.00     0.192 HD
ENDROOT
BRANCH   2   5
HETATM    5  N2  UNK     1      18.686   5.053  30.732  1.00  0.00    -0.183 NA
HETATM    6  C11 UNK     1      18.869   5.386  31.969  1.00  0.00     0.156 C 
BRANCH   6   7
HETATM    7  C4  UNK     1      18.389   6.653  32.520  1.00  0.00     0.056 A 
HETATM    8  C3  UNK     1      16.980   7.097  32.444  1.00  0.00     0.198 A 
HETATM    9  C1  UNK     1      16.682   8.406  33.057  1.00  0.00     0.050 A 
HETATM   10  O2  UNK     1      16.113   6.423  31.907  1.00  0.00    -0.286 OA
HETATM   11  C2  UNK     1      17.718   9.127  33.654  1.00  0.00     0.089 A 
HETATM   12  C5  UNK     1      15.383   8.920  33.042  1.00  0.00     0.042 A 
HETATM   13  O1  UNK     1      19.013   8.672  33.698  1.00  0.00    -0.321 OA
HETATM   14  C6  UNK     1      17.458  10.367  34.239  1.00  0.00     0.040 A 
HETATM   15  C7  UNK     1      19.277   7.450  33.123  1.00  0.00     0.159 A 
HETATM   16  C9  UNK     1      16.162  10.882  34.225  1.00  0.00     0.026 A 
HETATM   17  C8  UNK     1      15.127  10.160  33.628  1.00  0.00     0.035 A 
HETATM   18 Cl1  UNK     1      13.530  10.803  33.616  1.00  0.00    -0.084 Cl
ENDBRANCH   6   7
ENDBRANCH   2   5
BRANCH   3  19
HETATM   19  C10 UNK     1      19.002   1.439  30.103  1.00  0.00     0.039 A 
HETATM   20  C12 UNK     1      18.738   0.880  28.870  1.00  0.00     0.053 A 
HETATM   21  C15 UNK     1      19.331  -0.339  28.543  1.00  0.00     0.069 A 
HETATM   22  C17 UNK     1      20.174  -0.973  29.457  1.00  0.00     0.073 A 
HETATM   23  C14 UNK     1      20.423  -0.386  30.697  1.00  0.00     0.069 A 
HETATM   24  C13 UNK     1      19.830   0.833  31.024  1.00  0.00     0.053 A 
BRANCH  21  25
HETATM   25  O4  UNK     1      19.087  -0.913  27.332  1.00  0.00    -0.361 OA
HETATM   26  H11 UNK     1      19.878  -0.820  26.774  1.00  0.00     0.217 HD
ENDBRANCH  21  25
BRANCH  23  27
HETATM   27  O3  UNK     1      21.245  -1.004  31.590  1.00  0.00    -0.361 OA
HETATM   28  H10 UNK     1      21.586  -1.824  31.192  1.00  0.00     0.217 HD
ENDBRANCH  23  27
ENDBRANCH   3  19
TORSDOF 5
ENDMDL
MODEL 2
REMARK VINA RESULT:      -9.6      0.022      1.661
REMARK  5 active torsions:
REMARK  status: ('A' for Active; 'I' for Inactive)
REMARK    1  A    between atoms: C14_22  and  O3_4 
REMARK    2  A    between atoms: C15_23  and  O4_5 
REMARK       I    between atoms: C16_24  and  N1_7 
REMARK    3  A    between atoms: N1_7  and  N2_8 
REMARK    4  A    between atoms: C11_19  and  C4_12 
REMARK    5  A    between atoms: C10_18  and  C16_24 
ROOT
HETATM    1  O5  UNK     1      17.175   2.769  30.765  1.00  0.00    -0.266 OA
HETATM    2  N1  UNK     1      19.197   3.843  30.423  1.00  0.00    -0.243 N 
HETATM    3  C16 UNK     1      18.365   2.740  30.459  1.00  0.00     0.271 C 
HETATM    4  H9  UNK     1      20.191   3.798  30.227  1.00  0.00     0.192 HD
ENDROOT
BRANCH   2   5
HETATM    5  N2  UNK     1      18.682   5.053  30.747  1.00  0.00    -0.183 NA
HETATM    6  C11 UNK     1      18.875   5.395  31.980  1.00  0.00     0.156 C 
BRANCH   6   7
HETATM    7  C4  UNK     1      18.396   6.664  32.527  1.00  0.00     0.056 A 
HETATM    8  C3  UNK     1      16.990   7.115  32.439  1.00  0.00     0.198 A 
HETATM    9  C1  UNK     1      16.693   8.425  33.050  1.00  0.00     0.050 A 
HETATM   10  O2  UNK     1      16.125   6.446  31.892  1.00  0.00    -0.286 OA
HETATM   11  C2  UNK     1      17.726   9.140  33.658  1.00  0.00     0.089 A 
HETATM   12  C5  UNK     1      15.397   8.945  33.022  1.00  0.00     0.042 A 
HETATM   13  O1  UNK     1      19.018   8.678  33.715  1.00  0.00    -0.321 OA
HETATM   14  C6  UNK     1      17.466  10.381  34.241  1.00  0.00     0.040 A 
HETATM   15  C7  UNK     1      19.282   7.455  33.141  1.00  0.00     0.159 A 
HETATM   16  C9  UNK     1      16.173  10.902  34.215  1.00  0.00     0.026 A 
HETATM   17  C8  UNK     1      15.141  10.186  33.607  1.00  0.00     0.035 A 
HETATM   18 Cl1  UNK     1      13.547  10.837  33.579  1.00  0.00    -0.084 Cl
ENDBRANCH   6   7
ENDBRANCH   2   5
BRANCH   3  19
HETATM   19  C10 UNK     1      18.997   1.441  30.115  1.00  0.00     0.039 A 
HETATM   20  C12 UNK     1      19.823   0.836  31.040  1.00  0.00     0.053 A 
HETATM   21  C15 UNK     1      20.417  -0.384  30.716  1.00  0.00     0.069 A 
HETATM   22  C17 UNK     1      20.173  -0.972  29.475  1.00  0.00     0.073 A 
HETATM   23  C14 UNK     1      19.335  -0.339  28.557  1.00  0.00     0.069 A 
HETATM   24  C13 UNK     1      18.741   0.881  28.881  1.00  0.00     0.053 A 
BRANCH  21  25
HETATM   25  O4  UNK     1      21.236  -1.001  31.612  1.00  0.00    -0.361 OA
HETATM   26  H11 UNK     1      20.885  -0.864  32.508  1.00  0.00     0.217 HD
ENDBRANCH  21  25
BRANCH  23  27
HETATM   27  O3  UNK     1      19.097  -0.912  27.345  1.00  0.00    -0.361 OA
HETATM   28  H10 UNK     1      19.009  -0.212  26.676  1.00  0.00     0.217 HD
ENDBRANCH  23  27
ENDBRANCH   3  19
TORSDOF 5
ENDMDL
MODEL 3
REMARK VINA RESULT:      -9.5      1.221      1.954
REMARK  5 active torsions:
REMARK  status: ('A' for Active; 'I' for Inactive)
REMARK    1  A    between atoms: C14_22  and  O3_4 
REMARK    2  A    between atoms: C15_23  and  O4_5 
REMARK       I    between atoms: C16_24  and  N1_7 
REMARK    3  A    between atoms: N1_7  and  N2_8 
REMARK    4  A    between atoms: C11_19  and  C4_12 
REMARK    5  A    between atoms: C10_18  and  C16_24 
ROOT
HETATM    1  O5  UNK     1      17.166   2.736  30.628  1.00  0.00    -0.266 OA
HETATM    2  N1  UNK     1      19.199   3.813  30.362  1.00  0.00    -0.243 N 
HETATM    3  C16 UNK     1      18.369   2.707  30.378  1.00  0.00     0.271 C 
HETATM    4  H9  UNK     1      20.201   3.769  30.213  1.00  0.00     0.192 HD
ENDROOT
BRANCH   2   5
HETATM    5  N2  UNK     1      18.665   5.026  30.642  1.00  0.00    -0.183 NA
HETATM    6  C11 UNK     1      18.312   5.174  31.878  1.00  0.00     0.156 C 
BRANCH   6   7
HETATM    7  C4  UNK     1      17.715   6.411  32.381  1.00  0.00     0.056 A 
HETATM    8  C3  UNK     1      18.505   7.551  32.895  1.00  0.00     0.198 A 
HETATM    9  C1  UNK     1      17.729   8.717  33.360  1.00  0.00     0.050 A 
HETATM   10  O2  UNK     1      19.728   7.532  32.933  1.00  0.00    -0.286 OA
HETATM   11  C2  UNK     1      16.336   8.675  33.291  1.00  0.00     0.089 A 
HETATM   12  C5  UNK     1      18.376   9.848  33.864  1.00  0.00     0.042 A 
HETATM   13  O1  UNK     1      15.647   7.591  32.806  1.00  0.00    -0.321 OA
HETATM   14  C6  UNK     1      15.583   9.766  33.726  1.00  0.00     0.040 A 
HETATM   15  C7  UNK     1      16.382   6.510  32.375  1.00  0.00     0.159 A 
HETATM   16  C9  UNK     1      16.227  10.896  34.230  1.00  0.00     0.026 A 
HETATM   17  C8  UNK     1      17.620  10.937  34.299  1.00  0.00     0.035 A 
HETATM   18 Cl1  UNK     1      18.407  12.336  34.920  1.00  0.00    -0.084 Cl
ENDBRANCH   6   7
ENDBRANCH   2   5
BRANCH   3  19
HETATM   19  C10 UNK     1      19.021   1.405  30.085  1.00  0.00     0.039 A 
HETATM   20  C12 UNK     1      18.803   0.812  28.859  1.00  0.00     0.053 A 
HETATM   21  C15 UNK     1      19.415  -0.411  28.584  1.00  0.00     0.069 A 
HETATM   22  C17 UNK     1      20.232  -1.014  29.541  1.00  0.00     0.073 A 
HETATM   23  C14 UNK     1      20.435  -0.393  30.773  1.00  0.00     0.069 A 
HETATM   24  C13 UNK     1      19.823   0.830  31.048  1.00  0.00     0.053 A 
BRANCH  21  25
HETATM   25  O4  UNK     1      19.216  -1.018  27.381  1.00  0.00    -0.361 OA
HETATM   26  H11 UNK     1      18.532  -0.529  26.891  1.00  0.00     0.217 HD
ENDBRANCH  21  25
BRANCH  23  27
HETATM   27  O3  UNK     1      21.232  -0.981  31.708  1.00  0.00    -0.361 OA
HETATM   28  H10 UNK     1      21.224  -1.944  31.570  1.00  0.00     0.217 HD
ENDBRANCH  23  27
ENDBRANCH   3  19
TORSDOF 5
ENDMDL
MODEL 4
REMARK VINA RESULT:      -9.5      1.217      2.563
REMARK  5 active torsions:
REMARK  status: ('A' for Active; 'I' for Inactive)
REMARK    1  A    between atoms: C14_22  and  O3_4 
REMARK    2  A    between atoms: C15_23  and  O4_5 
REMARK       I    between atoms: C16_24  and  N1_7 
REMARK    3  A    between atoms: N1_7  and  N2_8 
REMARK    4  A    between atoms: C11_19  and  C4_12 
REMARK    5  A    between atoms: C10_18  and  C16_24 
ROOT
HETATM    1  O5  UNK     1      17.158   2.793  30.607  1.00  0.00    -0.266 OA
HETATM    2  N1  UNK     1      19.204   3.849  30.359  1.00  0.00    -0.243 N 
HETATM    3  C16 UNK     1      18.363   2.752  30.366  1.00  0.00     0.271 C 
HETATM    4  H9  UNK     1      20.207   3.795  30.217  1.00  0.00     0.192 HD
ENDROOT
BRANCH   2   5
HETATM    5  N2  UNK     1      18.681   5.067  30.638  1.00  0.00    -0.183 NA
HETATM    6  C11 UNK     1      18.278   5.200  31.860  1.00  0.00     0.156 C 
BRANCH   6   7
HETATM    7  C4  UNK     1      17.682   6.439  32.360  1.00  0.00     0.056 A 
HETATM    8  C3  UNK     1      18.472   7.570  32.893  1.00  0.00     0.198 A 
HETATM    9  C1  UNK     1      17.698   8.739  33.351  1.00  0.00     0.050 A 
HETATM   10  O2  UNK     1      19.694   7.541  32.952  1.00  0.00    -0.286 OA
HETATM   11  C2  UNK     1      16.306   8.710  33.258  1.00  0.00     0.089 A 
HETATM   12  C5  UNK     1      18.345   9.862  33.872  1.00  0.00     0.042 A 
HETATM   13  O1  UNK     1      15.616   7.634  32.754  1.00  0.00    -0.321 OA
HETATM   14  C6  UNK     1      15.554   9.805  33.686  1.00  0.00     0.040 A 
HETATM   15  C7  UNK     1      16.350   6.550  32.330  1.00  0.00     0.159 A 
HETATM   16  C9  UNK     1      16.198  10.926  34.207  1.00  0.00     0.026 A 
HETATM   17  C8  UNK     1      17.590  10.955  34.300  1.00  0.00     0.035 A 
HETATM   18 Cl1  UNK     1      18.378  12.345  34.943  1.00  0.00    -0.084 Cl
ENDBRANCH   6   7
ENDBRANCH   2   5
BRANCH   3  19
HETATM   19  C10 UNK     1      19.004   1.444  30.075  1.00  0.00     0.039 A 
HETATM   20  C12 UNK     1      19.812   0.870  31.034  1.00  0.00     0.053 A 
HETATM   21  C15 UNK     1      20.414  -0.358  30.760  1.00  0.00     0.069 A 
HETATM   22  C17 UNK     1      20.195  -0.985  29.533  1.00  0.00     0.073 A 
HETATM   23  C14 UNK     1      19.373  -0.383  28.580  1.00  0.00     0.069 A 
HETATM   24  C13 UNK     1      18.771   0.845  28.854  1.00  0.00     0.053 A 
BRANCH  21  25
HETATM   25  O4  UNK     1      21.217  -0.946  31.690  1.00  0.00    -0.361 OA
HETATM   26  H11 UNK     1      21.969  -0.358  31.874  1.00  0.00     0.217 HD
ENDBRANCH  21  25
BRANCH  23  27
HETATM   27  O3  UNK     1      19.160  -0.994  27.382  1.00  0.00    -0.361 OA
HETATM   28  H10 UNK     1      18.203  -1.034  27.213  1.00  0.00     0.217 HD
ENDBRANCH  23  27
ENDBRANCH   3  19
TORSDOF 5
ENDMDL
MODEL 5
REMARK VINA RESULT:      -9.4     14.602     20.056
REMARK  5 active torsions:
REMARK  status: ('A' for Active; 'I' for Inactive)
REMARK    1  A    between atoms: C14_22  and  O3_4 
REMARK    2  A    between atoms: C15_23  and  O4_5 
REMARK       I    between atoms: C16_24  and  N1_7 
REMARK    3  A    between atoms: N1_7  and  N2_8 
REMARK    4  A    between atoms: C11_19  and  C4_12 
REMARK    5  A    between atoms: C10_18  and  C16_24 
ROOT
HETATM    1  O5  UNK     1      17.461  -1.199  17.403  1.00  0.00    -0.266 OA
HETATM    2  N1  UNK     1      19.622  -1.183  16.573  1.00  0.00    -0.243 N 
HETATM    3  C16 UNK     1      18.618  -0.786  17.436  1.00  0.00     0.271 C 
HETATM    4  H9  UNK     1      20.558  -0.791  16.572  1.00  0.00     0.192 HD
ENDROOT
BRANCH   2   5
HETATM    5  N2  UNK     1      19.329  -2.093  15.613  1.00  0.00    -0.183 NA
HETATM    6  C11 UNK     1      19.867  -3.253  15.805  1.00  0.00     0.156 C 
BRANCH   6   7
HETATM    7  C4  UNK     1      19.672  -4.372  14.883  1.00  0.00     0.056 A 
HETATM    8  C3  UNK     1      20.682  -5.428  14.652  1.00  0.00     0.198 A 
HETATM    9  C1  UNK     1      20.308  -6.478  13.685  1.00  0.00     0.050 A 
HETATM   10  O2  UNK     1      21.762  -5.433  15.226  1.00  0.00    -0.286 OA
HETATM   11  C2  UNK     1      19.061  -6.414  13.063  1.00  0.00     0.089 A 
HETATM   12  C5  UNK     1      21.188  -7.523  13.393  1.00  0.00     0.042 A 
HETATM   13  O1  UNK     1      18.156  -5.411  13.310  1.00  0.00    -0.321 OA
HETATM   14  C6  UNK     1      18.687  -7.396  12.145  1.00  0.00     0.040 A 
HETATM   15  C7  UNK     1      18.517  -4.438  14.214  1.00  0.00     0.159 A 
HETATM   16  C9  UNK     1      19.565  -8.440  11.852  1.00  0.00     0.026 A 
HETATM   17  C8  UNK     1      20.812  -8.503  12.474  1.00  0.00     0.035 A 
HETATM   18 Cl1  UNK     1      21.888  -9.796  12.108  1.00  0.00    -0.084 Cl
ENDBRANCH   6   7
ENDBRANCH   2   5
BRANCH   3  19
HETATM   19  C10 UNK     1      19.000   0.230  18.450  1.00  0.00     0.039 A 
HETATM   20  C12 UNK     1      19.260  -0.183  19.741  1.00  0.00     0.053 A 
HETATM   21  C15 UNK     1      19.618   0.771  20.693  1.00  0.00     0.069 A 
HETATM   22  C17 UNK     1      19.710   2.116  20.334  1.00  0.00     0.073 A 
HETATM   23  C14 UNK     1      19.442   2.506  19.022  1.00  0.00     0.069 A 
HETATM   24  C13 UNK     1      19.083   1.553  18.070  1.00  0.00     0.053 A 
BRANCH  21  25
HETATM   25  O4  UNK     1      19.879   0.390  21.974  1.00  0.00    -0.361 OA
HETATM   26  H11 UNK     1      20.033  -0.570  21.993  1.00  0.00     0.217 HD
ENDBRANCH  21  25
BRANCH  23  27
HETATM   27  O3  UNK     1      19.530   3.819  18.671  1.00  0.00    -0.361 OA
HETATM   28  H10 UNK     1      20.340   3.954  18.149  1.00  0.00     0.217 HD
ENDBRANCH  23  27
ENDBRANCH   3  19
TORSDOF 5
ENDMDL
MODEL 6
REMARK VINA RESULT:      -9.3     14.468     19.703
REMARK  5 active torsions:
REMARK  status: ('A' for Active; 'I' for Inactive)
REMARK    1  A    between atoms: C14_22  and  O3_4 
REMARK    2  A    between atoms: C15_23  and  O4_5 
REMARK       I    between atoms: C16_24  and  N1_7 
REMARK    3  A    between atoms: N1_7  and  N2_8 
REMARK    4  A    between atoms: C11_19  and  C4_12 
REMARK    5  A    between atoms: C10_18  and  C16_24 
ROOT
HETATM    1  O5  UNK     1      17.389  -1.114  17.433  1.00  0.00    -0.266 OA
HETATM    2  N1  UNK     1      19.416  -0.816  16.354  1.00  0.00    -0.243 N 
HETATM    3  C16 UNK     1      18.503  -0.598  17.369  1.00  0.00     0.271 C 
HETATM    4  H9  UNK     1      20.308  -0.339  16.281  1.00  0.00     0.192 HD
ENDROOT
BRANCH   2   5
HETATM    5  N2  UNK     1      19.076  -1.656  15.347  1.00  0.00    -0.183 NA
HETATM    6  C11 UNK     1      19.474  -2.874  15.521  1.00  0.00     0.156 C 
BRANCH   6   7
HETATM    7  C4  UNK     1      19.207  -3.934  14.548  1.00  0.00     0.056 A 
HETATM    8  C3  UNK     1      18.203  -5.000  14.753  1.00  0.00     0.198 A 
HETATM    9  C1  UNK     1      18.072  -5.983  13.661  1.00  0.00     0.050 A 
HETATM   10  O2  UNK     1      17.521  -5.066  15.767  1.00  0.00    -0.286 OA
HETATM   11  C2  UNK     1      18.880  -5.852  12.530  1.00  0.00     0.089 A 
HETATM   12  C5  UNK     1      17.153  -7.031  13.752  1.00  0.00     0.042 A 
HETATM   13  O1  UNK     1      19.801  -4.843  12.386  1.00  0.00    -0.321 OA
HETATM   14  C6  UNK     1      18.773  -6.771  11.485  1.00  0.00     0.040 A 
HETATM   15  C7  UNK     1      19.913  -3.933  13.412  1.00  0.00     0.159 A 
HETATM   16  C9  UNK     1      17.857  -7.818  11.575  1.00  0.00     0.026 A 
HETATM   17  C8  UNK     1      17.049  -7.948  12.705  1.00  0.00     0.035 A 
HETATM   18 Cl1  UNK     1      15.920  -9.243  12.807  1.00  0.00    -0.084 Cl
ENDBRANCH   6   7
ENDBRANCH   2   5
BRANCH   3  19
HETATM   19  C10 UNK     1      18.929   0.350  18.430  1.00  0.00     0.039 A 
HETATM   20  C12 UNK     1      19.050   1.688  18.118  1.00  0.00     0.053 A 
HETATM   21  C15 UNK     1      19.451   2.578  19.114  1.00  0.00     0.069 A 
HETATM   22  C17 UNK     1      19.722   2.111  20.401  1.00  0.00     0.073 A 
HETATM   23  C14 UNK     1      19.592   0.752  20.689  1.00  0.00     0.069 A 
HETATM   24  C13 UNK     1      19.192  -0.138  19.693  1.00  0.00     0.053 A 
BRANCH  21  25
HETATM   25  O4  UNK     1      19.578   3.905  18.832  1.00  0.00    -0.361 OA
HETATM   26  H11 UNK     1      20.020   4.345  19.579  1.00  0.00     0.217 HD
ENDBRANCH  21  25
BRANCH  23  27
HETATM   27  O3  UNK     1      19.858   0.295  21.945  1.00  0.00    -0.361 OA
HETATM   28  H10 UNK     1      20.020  -0.663  21.905  1.00  0.00     0.217 HD
ENDBRANCH  23  27
ENDBRANCH   3  19
TORSDOF 5
ENDMDL
MODEL 7
REMARK VINA RESULT:      -9.3     14.525     19.782
REMARK  5 active torsions:
REMARK  status: ('A' for Active; 'I' for Inactive)
REMARK    1  A    between atoms: C14_22  and  O3_4 
REMARK    2  A    between atoms: C15_23  and  O4_5 
REMARK       I    between atoms: C16_24  and  N1_7 
REMARK    3  A    between atoms: N1_7  and  N2_8 
REMARK    4  A    between atoms: C11_19  and  C4_12 
REMARK    5  A    between atoms: C10_18  and  C16_24 
ROOT
HETATM    1  O5  UNK     1      17.425  -1.143  17.436  1.00  0.00    -0.266 OA
HETATM    2  N1  UNK     1      19.371  -0.706  16.260  1.00  0.00    -0.243 N 
HETATM    3  C16 UNK     1      18.500  -0.559  17.324  1.00  0.00     0.271 C 
HETATM    4  H9  UNK     1      20.227  -0.174  16.149  1.00  0.00     0.192 HD
ENDROOT
BRANCH   2   5
HETATM    5  N2  UNK     1      19.031  -1.552  15.258  1.00  0.00    -0.183 NA
HETATM    6  C11 UNK     1      19.481  -2.755  15.408  1.00  0.00     0.156 C 
BRANCH   6   7
HETATM    7  C4  UNK     1      19.224  -3.817  14.436  1.00  0.00     0.056 A 
HETATM    8  C3  UNK     1      18.231  -4.893  14.643  1.00  0.00     0.198 A 
HETATM    9  C1  UNK     1      18.108  -5.878  13.550  1.00  0.00     0.050 A 
HETATM   10  O2  UNK     1      17.551  -4.966  15.657  1.00  0.00    -0.286 OA
HETATM   11  C2  UNK     1      18.914  -5.739  12.419  1.00  0.00     0.089 A 
HETATM   12  C5  UNK     1      17.200  -6.935  13.643  1.00  0.00     0.042 A 
HETATM   13  O1  UNK     1      19.824  -4.721  12.273  1.00  0.00    -0.321 OA
HETATM   14  C6  UNK     1      18.815  -6.659  11.374  1.00  0.00     0.040 A 
HETATM   15  C7  UNK     1      19.928  -3.810  13.299  1.00  0.00     0.159 A 
HETATM   16  C9  UNK     1      17.909  -7.715  11.465  1.00  0.00     0.026 A 
HETATM   17  C8  UNK     1      17.103  -7.853  12.596  1.00  0.00     0.035 A 
HETATM   18 Cl1  UNK     1      15.987  -9.159  12.699  1.00  0.00    -0.084 Cl
ENDBRANCH   6   7
ENDBRANCH   2   5
BRANCH   3  19
HETATM   19  C10 UNK     1      18.923   0.399  18.377  1.00  0.00     0.039 A 
HETATM   20  C12 UNK     1      19.176  -0.076  19.647  1.00  0.00     0.053 A 
HETATM   21  C15 UNK     1      19.572   0.823  20.636  1.00  0.00     0.069 A 
HETATM   22  C17 UNK     1      19.706   2.179  20.334  1.00  0.00     0.073 A 
HETATM   23  C14 UNK     1      19.444   2.634  19.042  1.00  0.00     0.069 A 
HETATM   24  C13 UNK     1      19.047   1.734  18.053  1.00  0.00     0.053 A 
BRANCH  21  25
HETATM   25  O4  UNK     1      19.828   0.380  21.898  1.00  0.00    -0.361 OA
HETATM   26  H11 UNK     1      19.702  -0.585  21.925  1.00  0.00     0.217 HD
ENDBRANCH  21  25
BRANCH  23  27
HETATM   27  O3  UNK     1      19.573   3.957  18.747  1.00  0.00    -0.361 OA
HETATM   28  H10 UNK     1      18.820   4.441  19.126  1.00  0.00     0.217 HD
ENDBRANCH  23  27
ENDBRANCH   3  19
TORSDOF 5
ENDMDL
MODEL 8
REMARK VINA RESULT:      -9.3      3.698      9.689
REMARK  5 active torsions:
REMARK  status: ('A' for Active; 'I' for Inactive)
REMARK    1  A    between atoms: C14_22  and  O3_4 
REMARK    2  A    between atoms: C15_23  and  O4_5 
REMARK       I    between atoms: C16_24  and  N1_7 
REMARK    3  A    between atoms: N1_7  and  N2_8 
REMARK    4  A    between atoms: C11_19  and  C4_12 
REMARK    5  A    between atoms: C10_18  and  C16_24 
ROOT
HETATM    1  O5  UNK     1      19.339   6.043  33.683  1.00  0.00    -0.266 OA
HETATM    2  N1  UNK     1      17.430   5.201  32.677  1.00  0.00    -0.243 N 
HETATM    3  C16 UNK     1      18.171   6.174  33.322  1.00  0.00     0.271 C 
HETATM    4  H9  UNK     1      16.450   5.300  32.438  1.00  0.00     0.192 HD
ENDROOT
BRANCH   2   5
HETATM    5  N2  UNK     1      18.017   4.009  32.416  1.00  0.00    -0.183 NA
HETATM    6  C11 UNK     1      17.986   3.670  31.167  1.00  0.00     0.156 C 
BRANCH   6   7
HETATM    7  C4  UNK     1      18.565   2.418  30.679  1.00  0.00     0.056 A 
HETATM    8  C3  UNK     1      18.964   1.301  31.563  1.00  0.00     0.198 A 
HETATM    9  C1  UNK     1      19.530   0.116  30.891  1.00  0.00     0.050 A 
HETATM   10  O2  UNK     1      18.835   1.354  32.779  1.00  0.00    -0.286 OA
HETATM   11  C2  UNK     1      19.652   0.119  29.500  1.00  0.00     0.089 A 
HETATM   12  C5  UNK     1      19.940  -0.995  31.631  1.00  0.00     0.042 A 
HETATM   13  O1  UNK     1      19.267   1.183  28.721  1.00  0.00    -0.321 OA
HETATM   14  C6  UNK     1      20.185  -0.991  28.844  1.00  0.00     0.040 A 
HETATM   15  C7  UNK     1      18.741   2.282  29.361  1.00  0.00     0.159 A 
HETATM   16  C9  UNK     1      20.595  -2.101  29.582  1.00  0.00     0.026 A 
HETATM   17  C8  UNK     1      20.472  -2.104  30.972  1.00  0.00     0.035 A 
HETATM   18 Cl1  UNK     1      20.979  -3.479  31.875  1.00  0.00    -0.084 Cl
ENDBRANCH   6   7
ENDBRANCH   2   5
BRANCH   3  19
HETATM   19  C10 UNK     1      17.463   7.450  33.599  1.00  0.00     0.039 A 
HETATM   20  C12 UNK     1      18.168   8.633  33.525  1.00  0.00     0.053 A 
HETATM   21  C15 UNK     1      17.503   9.831  33.785  1.00  0.00     0.069 A 
HETATM   22  C17 UNK     1      16.147   9.819  34.114  1.00  0.00     0.073 A 
HETATM   23  C14 UNK     1      15.457   8.609  34.182  1.00  0.00     0.069 A 
HETATM   24  C13 UNK     1      16.122   7.411  33.922  1.00  0.00     0.053 A 
BRANCH  21  25
HETATM   25  O4  UNK     1      18.176  11.013  33.720  1.00  0.00    -0.361 OA
HETATM   26  H11 UNK     1      18.614  11.079  32.854  1.00  0.00     0.217 HD
ENDBRANCH  21  25
BRANCH  23  27
HETATM   27  O3  UNK     1      14.134   8.597  34.503  1.00  0.00    -0.361 OA
HETATM   28  H10 UNK     1      13.609   8.626  33.685  1.00  0.00     0.217 HD
ENDBRANCH  23  27
ENDBRANCH   3  19
TORSDOF 5
ENDMDL
MODEL 9
REMARK VINA RESULT:      -9.2     15.746     20.513
REMARK  5 active torsions:
REMARK  status: ('A' for Active; 'I' for Inactive)
REMARK    1  A    between atoms: C14_22  and  O3_4 
REMARK    2  A    between atoms: C15_23  and  O4_5 
REMARK       I    between atoms: C16_24  and  N1_7 
REMARK    3  A    between atoms: N1_7  and  N2_8 
REMARK    4  A    between atoms: C11_19  and  C4_12 
REMARK    5  A    between atoms: C10_18  and  C16_24 
ROOT
HETATM    1  O5  UNK     1      17.722  -1.395  17.292  1.00  0.00    -0.266 OA
HETATM    2  N1  UNK     1      19.355  -0.419  15.972  1.00  0.00    -0.243 N 
HETATM    3  C16 UNK     1      18.623  -0.574  17.135  1.00  0.00     0.271 C 
HETATM    4  H9  UNK     1      20.056   0.301  15.835  1.00  0.00     0.192 HD
ENDROOT
BRANCH   2   5
HETATM    5  N2  UNK     1      19.072  -1.220  14.917  1.00  0.00    -0.183 NA
HETATM    6  C11 UNK     1      19.959  -1.184  13.976  1.00  0.00     0.156 C 
BRANCH   6   7
HETATM    7  C4  UNK     1      19.838  -1.977  12.753  1.00  0.00     0.056 A 
HETATM    8  C3  UNK     1      20.721  -1.808  11.578  1.00  0.00     0.198 A 
HETATM    9  C1  UNK     1      20.449  -2.699  10.433  1.00  0.00     0.050 A 
HETATM   10  O2  UNK     1      21.622  -0.981  11.553  1.00  0.00    -0.286 OA
HETATM   11  C2  UNK     1      19.406  -3.622  10.525  1.00  0.00     0.089 A 
HETATM   12  C5  UNK     1      21.223  -2.624   9.273  1.00  0.00     0.042 A 
HETATM   13  O1  UNK     1      18.612  -3.740  11.639  1.00  0.00    -0.321 OA
HETATM   14  C6  UNK     1      19.131  -4.473   9.454  1.00  0.00     0.040 A 
HETATM   15  C7  UNK     1      18.876  -2.904  12.700  1.00  0.00     0.159 A 
HETATM   16  C9  UNK     1      19.902  -4.399   8.294  1.00  0.00     0.026 A 
HETATM   17  C8  UNK     1      20.946  -3.477   8.204  1.00  0.00     0.035 A 
HETATM   18 Cl1  UNK     1      21.894  -3.393   6.769  1.00  0.00    -0.084 Cl
ENDBRANCH   6   7
ENDBRANCH   2   5
BRANCH   3  19
HETATM   19  C10 UNK     1      18.968   0.350  18.245  1.00  0.00     0.039 A 
HETATM   20  C12 UNK     1      19.063   1.701  17.982  1.00  0.00     0.053 A 
HETATM   21  C15 UNK     1      19.387   2.569  19.024  1.00  0.00     0.069 A 
HETATM   22  C17 UNK     1      19.610   2.067  20.307  1.00  0.00     0.073 A 
HETATM   23  C14 UNK     1      19.508   0.697  20.546  1.00  0.00     0.069 A 
HETATM   24  C13 UNK     1      19.183  -0.171  19.504  1.00  0.00     0.053 A 
BRANCH  21  25
HETATM   25  O4  UNK     1      19.488   3.907  18.790  1.00  0.00    -0.361 OA
HETATM   26  H11 UNK     1      20.173   4.059  18.116  1.00  0.00     0.217 HD
ENDBRANCH  21  25
BRANCH  23  27
HETATM   27  O3  UNK     1      19.726   0.207  21.797  1.00  0.00    -0.361 OA
HETATM   28  H10 UNK     1      20.234   0.859  22.309  1.00  0.00     0.217 HD
ENDBRANCH  23  27
ENDBRANCH   3  19
TORSDOF 5
ENDMDL
MODEL 10
REMARK VINA RESULT:      -9.2      8.342     12.627
REMARK  5 active torsions:
REMARK  status: ('A' for Active; 'I' for Inactive)
REMARK    1  A    between atoms: C14_22  and  O3_4 
REMARK    2  A    between atoms: C15_23  and  O4_5 
REMARK       I    between atoms: C16_24  and  N1_7 
REMARK    3  A    between atoms: N1_7  and  N2_8 
REMARK    4  A    between atoms: C11_19  and  C4_12 
REMARK    5  A    between atoms: C10_18  and  C16_24 
ROOT
HETATM    1  O5  UNK     1      21.239  -3.380  32.273  1.00  0.00    -0.266 OA
HETATM    2  N1  UNK     1      20.275  -2.191  34.010  1.00  0.00    -0.243 N 
HETATM    3  C16 UNK     1      20.611  -2.409  32.686  1.00  0.00     0.271 C 
HETATM    4  H9  UNK     1      19.808  -1.356  34.347  1.00  0.00     0.192 HD
ENDROOT
BRANCH   2   5
HETATM    5  N2  UNK     1      20.660  -3.104  34.934  1.00  0.00    -0.183 NA
HETATM    6  C11 UNK     1      19.707  -3.883  35.332  1.00  0.00     0.156 C 
BRANCH   6   7
HETATM    7  C4  UNK     1      19.918  -4.935  36.326  1.00  0.00     0.056 A 
HETATM    8  C3  UNK     1      19.608  -6.361  36.087  1.00  0.00     0.198 A 
HETATM    9  C1  UNK     1      19.888  -7.280  37.207  1.00  0.00     0.050 A 
HETATM   10  O2  UNK     1      19.147  -6.759  35.025  1.00  0.00    -0.286 OA
HETATM   11  C2  UNK     1      20.412  -6.763  38.393  1.00  0.00     0.089 A 
HETATM   12  C5  UNK     1      19.632  -8.648  37.087  1.00  0.00     0.042 A 
HETATM   13  O1  UNK     1      20.683  -5.428  38.568  1.00  0.00    -0.321 OA
HETATM   14  C6  UNK     1      20.684  -7.614  39.465  1.00  0.00     0.040 A 
HETATM   15  C7  UNK     1      20.418  -4.583  37.515  1.00  0.00     0.159 A 
HETATM   16  C9  UNK     1      20.429  -8.980  39.347  1.00  0.00     0.026 A 
HETATM   17  C8  UNK     1      19.904  -9.496  38.161  1.00  0.00     0.035 A 
HETATM   18 Cl1  UNK     1      19.594 -11.184  38.024  1.00  0.00    -0.084 Cl
ENDBRANCH   6   7
ENDBRANCH   2   5
BRANCH   3  19
HETATM   19  C10 UNK     1      20.178  -1.359  31.728  1.00  0.00     0.039 A 
HETATM   20  C12 UNK     1      20.514  -1.493  30.397  1.00  0.00     0.053 A 
HETATM   21  C15 UNK     1      20.109  -0.507  29.498  1.00  0.00     0.069 A 
HETATM   22  C17 UNK     1      19.376   0.591  29.949  1.00  0.00     0.073 A 
HETATM   23  C14 UNK     1      19.050   0.703  31.301  1.00  0.00     0.069 A 
HETATM   24  C13 UNK     1      19.455  -0.283  32.200  1.00  0.00     0.053 A 
BRANCH  21  25
HETATM   25  O4  UNK     1      20.428  -0.615  28.179  1.00  0.00    -0.361 OA
HETATM   26  H11 UNK     1      21.210  -1.187  28.089  1.00  0.00     0.217 HD
ENDBRANCH  21  25
BRANCH  23  27
HETATM   27  O3  UNK     1      18.336   1.775  31.742  1.00  0.00    -0.361 OA
HETATM   28  H10 UNK     1      18.786   2.591  31.465  1.00  0.00     0.217 HD
ENDBRANCH  23  27
ENDBRANCH   3  19
TORSDOF 5
ENDMDL
