MODEL 1
REMARK VINA RESULT:      -8.8      0.000      0.000
REMARK  3 active torsions:
REMARK  status: ('A' for Active; 'I' for Inactive)
REMARK    1  A    between atoms: C5_11  and  O2_3 
REMARK       I    between atoms: C10_16  and  N1_6 
REMARK    2  A    between atoms: C11_17  and  N1_6 
REMARK    3  A    between atoms: C10_16  and  C3_9 
ROOT
HETATM    1 Cl1  UNK     1      16.401   2.056  37.918  1.00  0.00    -0.084 Cl
HETATM    2  O1  UNK     1      19.461  -1.600  34.447  1.00  0.00    -0.271 OA
HETATM    3  O3  UNK     1      20.623  -3.544  34.148  1.00  0.00    -0.259 OA
HETATM    4  C1  UNK     1      18.520  -1.086  36.628  1.00  0.00     0.004 A 
HETATM    5  C2  UNK     1      18.733  -0.745  35.297  1.00  0.00     0.123 A 
HETATM    6  C3  UNK     1      19.749  -3.150  36.315  1.00  0.00     0.108 A 
HETATM    7  C4  UNK     1      19.059  -2.342  37.128  1.00  0.00     0.037 A 
HETATM    8  C5  UNK     1      18.243   0.442  34.756  1.00  0.00     0.104 A 
HETATM    9  C6  UNK     1      17.794  -0.212  37.441  1.00  0.00     0.038 A 
HETATM   10  C7  UNK     1      19.990  -2.806  34.896  1.00  0.00     0.304 A 
HETATM   11  C8  UNK     1      17.520   1.309  35.573  1.00  0.00     0.063 A 
HETATM   12  C9  UNK     1      17.296   0.983  36.913  1.00  0.00     0.037 A 
ENDROOT
BRANCH   6  13
HETATM   13  C10 UNK     1      20.253  -4.394  36.911  1.00  0.00     0.262 C 
HETATM   14  O4  UNK     1      21.457  -4.524  37.124  1.00  0.00    -0.267 OA
HETATM   15  N1  UNK     1      19.235  -5.304  37.163  1.00  0.00    -0.323 N 
HETATM   16  H4  UNK     1      18.285  -5.030  36.919  1.00  0.00     0.169 HD
BRANCH  15  17
HETATM   17  C11 UNK     1      19.353  -6.597  37.728  1.00  0.00     0.035 A 
HETATM   18  C12 UNK     1      19.906  -6.754  39.000  1.00  0.00     0.029 A 
HETATM   19  C14 UNK     1      20.023  -8.028  39.556  1.00  0.00     0.002 A 
HETATM   20  C16 UNK     1      19.586  -9.143  38.843  1.00  0.00     0.000 A 
HETATM   21  C15 UNK     1      19.033  -8.986  37.572  1.00  0.00     0.002 A 
HETATM   22  C13 UNK     1      18.916  -7.713  37.015  1.00  0.00     0.029 A 
ENDBRANCH  15  17
ENDBRANCH   6  13
BRANCH   8  23
HETATM   23  O2  UNK     1      18.459   0.764  33.453  1.00  0.00    -0.353 OA
HETATM   24  C17 UNK     1      18.203   2.114  33.064  1.00  0.00     0.210 C 
ENDBRANCH   8  23
TORSDOF 3
ENDMDL
MODEL 2
REMARK VINA RESULT:      -8.5     19.296     22.234
REMARK  3 active torsions:
REMARK  status: ('A' for Active; 'I' for Inactive)
REMARK    1  A    between atoms: C5_11  and  O2_3 
REMARK       I    between atoms: C10_16  and  N1_6 
REMARK    2  A    between atoms: C11_17  and  N1_6 
REMARK    3  A    between atoms: C10_16  and  C3_9 
ROOT
HETATM    1 Cl1  UNK     1      20.086  -8.038  13.055  1.00  0.00    -0.084 Cl
HETATM    2  O1  UNK     1      19.814  -2.147  13.052  1.00  0.00    -0.271 OA
HETATM    3  O3  UNK     1      19.316  -0.183  14.107  1.00  0.00    -0.259 OA
HETATM    4  C1  UNK     1      19.467  -4.255  14.211  1.00  0.00     0.004 A 
HETATM    5  C2  UNK     1      19.870  -3.553  13.079  1.00  0.00     0.123 A 
HETATM    6  C3  UNK     1      18.939  -2.175  15.335  1.00  0.00     0.108 A 
HETATM    7  C4  UNK     1      18.989  -3.511  15.367  1.00  0.00     0.037 A 
HETATM    8  C5  UNK     1      20.338  -4.205  11.940  1.00  0.00     0.104 A 
HETATM    9  C6  UNK     1      19.535  -5.650  14.199  1.00  0.00     0.038 A 
HETATM   10  C7  UNK     1      19.361  -1.408  14.141  1.00  0.00     0.304 A 
HETATM   11  C8  UNK     1      20.402  -5.597  11.936  1.00  0.00     0.063 A 
HETATM   12  C9  UNK     1      20.002  -6.318  13.064  1.00  0.00     0.037 A 
ENDROOT
BRANCH   6  13
HETATM   13  C10 UNK     1      18.442  -1.515  16.548  1.00  0.00     0.262 C 
HETATM   14  O4  UNK     1      17.311  -1.765  16.959  1.00  0.00    -0.267 OA
HETATM   15  N1  UNK     1      19.378  -0.645  17.092  1.00  0.00    -0.323 N 
HETATM   16  H4  UNK     1      20.273  -0.556  16.615  1.00  0.00     0.169 HD
BRANCH  15  17
HETATM   17  C11 UNK     1      19.242   0.155  18.253  1.00  0.00     0.035 A 
HETATM   18  C12 UNK     1      18.970   1.518  18.132  1.00  0.00     0.029 A 
HETATM   19  C14 UNK     1      18.836   2.306  19.275  1.00  0.00     0.002 A 
HETATM   20  C16 UNK     1      18.973   1.732  20.538  1.00  0.00     0.000 A 
HETATM   21  C15 UNK     1      19.245   0.369  20.659  1.00  0.00     0.002 A 
HETATM   22  C13 UNK     1      19.379  -0.420  19.517  1.00  0.00     0.029 A 
ENDBRANCH  15  17
ENDBRANCH   6  13
BRANCH   8  23
HETATM   23  O2  UNK     1      20.728  -3.507  10.840  1.00  0.00    -0.353 OA
HETATM   24  C17 UNK     1      19.866  -3.549   9.703  1.00  0.00     0.210 C 
ENDBRANCH   8  23
TORSDOF 3
ENDMDL
MODEL 3
REMARK VINA RESULT:      -8.5      2.492      3.203
REMARK  3 active torsions:
REMARK  status: ('A' for Active; 'I' for Inactive)
REMARK    1  A    between atoms: C5_11  and  O2_3 
REMARK       I    between atoms: C10_16  and  N1_6 
REMARK    2  A    between atoms: C11_17  and  N1_6 
REMARK    3  A    between atoms: C10_16  and  C3_9 
ROOT
HETATM    1 Cl1  UNK     1      20.477  -0.984  29.867  1.00  0.00    -0.084 Cl
HETATM    2  O1  UNK     1      18.492  -1.158  35.418  1.00  0.00    -0.271 OA
HETATM    3  O3  UNK     1      18.443  -2.145  37.478  1.00  0.00    -0.259 OA
HETATM    4  C1  UNK     1      19.875  -2.112  33.661  1.00  0.00     0.004 A 
HETATM    5  C2  UNK     1      18.981  -1.139  34.097  1.00  0.00     0.123 A 
HETATM    6  C3  UNK     1      19.829  -3.160  35.845  1.00  0.00     0.108 A 
HETATM    7  C4  UNK     1      20.298  -3.148  34.592  1.00  0.00     0.037 A 
HETATM    8  C5  UNK     1      18.538  -0.120  33.257  1.00  0.00     0.104 A 
HETATM    9  C6  UNK     1      20.338  -2.060  32.344  1.00  0.00     0.038 A 
HETATM   10  C7  UNK     1      18.876  -2.136  36.330  1.00  0.00     0.304 A 
HETATM   11  C8  UNK     1      19.005  -0.076  31.945  1.00  0.00     0.063 A 
HETATM   12  C9  UNK     1      19.903  -1.044  31.489  1.00  0.00     0.037 A 
ENDROOT
BRANCH   6  13
HETATM   13  C10 UNK     1      20.312  -4.245  36.708  1.00  0.00     0.262 C 
HETATM   14  O4  UNK     1      21.462  -4.213  37.141  1.00  0.00    -0.267 OA
HETATM   15  N1  UNK     1      19.342  -5.214  36.924  1.00  0.00    -0.323 N 
HETATM   16  H4  UNK     1      18.435  -5.082  36.480  1.00  0.00     0.169 HD
BRANCH  15  17
HETATM   17  C11 UNK     1      19.457  -6.394  37.698  1.00  0.00     0.035 A 
HETATM   18  C12 UNK     1      20.146  -6.367  38.912  1.00  0.00     0.029 A 
HETATM   19  C14 UNK     1      20.260  -7.529  39.675  1.00  0.00     0.002 A 
HETATM   20  C16 UNK     1      19.685  -8.717  39.226  1.00  0.00     0.000 A 
HETATM   21  C15 UNK     1      18.996  -8.744  38.013  1.00  0.00     0.002 A 
HETATM   22  C13 UNK     1      18.882  -7.583  37.250  1.00  0.00     0.029 A 
ENDBRANCH  15  17
ENDBRANCH   6  13
BRANCH   8  23
HETATM   23  O2  UNK     1      17.664   0.824  33.696  1.00  0.00    -0.353 OA
HETATM   24  C17 UNK     1      18.215   2.055  34.164  1.00  0.00     0.210 C 
ENDBRANCH   8  23
TORSDOF 3
ENDMDL
MODEL 4
REMARK VINA RESULT:      -8.3      5.409     10.496
REMARK  3 active torsions:
REMARK  status: ('A' for Active; 'I' for Inactive)
REMARK    1  A    between atoms: C5_11  and  O2_3 
REMARK       I    between atoms: C10_16  and  N1_6 
REMARK    2  A    between atoms: C11_17  and  N1_6 
REMARK    3  A    between atoms: C10_16  and  C3_9 
ROOT
HETATM    1 Cl1  UNK     1      18.164  -0.251  37.715  1.00  0.00    -0.084 Cl
HETATM    2  O1  UNK     1      18.281   1.635  32.128  1.00  0.00    -0.271 OA
HETATM    3  O3  UNK     1      18.322   3.342  30.611  1.00  0.00    -0.259 OA
HETATM    4  C1  UNK     1      18.244   2.141  34.505  1.00  0.00     0.004 A 
HETATM    5  C2  UNK     1      18.253   1.211  33.471  1.00  0.00     0.123 A 
HETATM    6  C3  UNK     1      18.290   3.955  32.900  1.00  0.00     0.108 A 
HETATM    7  C4  UNK     1      18.264   3.559  34.178  1.00  0.00     0.037 A 
HETATM    8  C5  UNK     1      18.236  -0.160  33.717  1.00  0.00     0.104 A 
HETATM    9  C6  UNK     1      18.215   1.682  35.825  1.00  0.00     0.038 A 
HETATM   10  C7  UNK     1      18.299   2.983  31.784  1.00  0.00     0.304 A 
HETATM   11  C8  UNK     1      18.207  -0.610  35.036  1.00  0.00     0.063 A 
HETATM   12  C9  UNK     1      18.197   0.310  36.087  1.00  0.00     0.037 A 
ENDROOT
BRANCH   6  13
HETATM   13  C10 UNK     1      18.308   5.405  32.670  1.00  0.00     0.262 C 
HETATM   14  O4  UNK     1      18.091   5.847  31.545  1.00  0.00    -0.267 OA
HETATM   15  N1  UNK     1      18.590   6.115  33.830  1.00  0.00    -0.323 N 
HETATM   16  H4  UNK     1      18.749   5.583  34.683  1.00  0.00     0.169 HD
BRANCH  15  17
HETATM   17  C11 UNK     1      18.688   7.519  33.980  1.00  0.00     0.035 A 
HETATM   18  C12 UNK     1      19.925   8.107  34.248  1.00  0.00     0.029 A 
HETATM   19  C14 UNK     1      20.022   9.491  34.396  1.00  0.00     0.002 A 
HETATM   20  C16 UNK     1      18.883  10.287  34.276  1.00  0.00     0.000 A 
HETATM   21  C15 UNK     1      17.647   9.699  34.008  1.00  0.00     0.002 A 
HETATM   22  C13 UNK     1      17.549   8.316  33.860  1.00  0.00     0.029 A 
ENDBRANCH  15  17
ENDBRANCH   6  13
BRANCH   8  23
HETATM   23  O2  UNK     1      18.245  -1.059  32.697  1.00  0.00    -0.353 OA
HETATM   24  C17 UNK     1      19.512  -1.590  32.307  1.00  0.00     0.210 C 
ENDBRANCH   8  23
TORSDOF 3
ENDMDL
MODEL 5
REMARK VINA RESULT:      -8.2      2.945      3.865
REMARK  3 active torsions:
REMARK  status: ('A' for Active; 'I' for Inactive)
REMARK    1  A    between atoms: C5_11  and  O2_3 
REMARK       I    between atoms: C10_16  and  N1_6 
REMARK    2  A    between atoms: C11_17  and  N1_6 
REMARK    3  A    between atoms: C10_16  and  C3_9 
ROOT
HETATM    1 Cl1  UNK     1      20.886  -0.978  28.944  1.00  0.00    -0.084 Cl
HETATM    2  O1  UNK     1      18.516   0.004  34.255  1.00  0.00    -0.271 OA
HETATM    3  O3  UNK     1      18.210  -0.607  36.435  1.00  0.00    -0.259 OA
HETATM    4  C1  UNK     1      19.896  -1.373  32.804  1.00  0.00     0.004 A 
HETATM    5  C2  UNK     1      19.094  -0.253  32.997  1.00  0.00     0.123 A 
HETATM    6  C3  UNK     1      19.578  -2.023  35.116  1.00  0.00     0.108 A 
HETATM    7  C4  UNK     1      20.130  -2.273  33.923  1.00  0.00     0.037 A 
HETATM    8  C5  UNK     1      18.832   0.648  31.967  1.00  0.00     0.104 A 
HETATM    9  C6  UNK     1      20.452  -1.595  31.541  1.00  0.00     0.038 A 
HETATM   10  C7  UNK     1      18.720  -0.839  35.343  1.00  0.00     0.304 A 
HETATM   11  C8  UNK     1      19.389   0.419  30.710  1.00  0.00     0.063 A 
HETATM   12  C9  UNK     1      20.198  -0.700  30.498  1.00  0.00     0.037 A 
ENDROOT
BRANCH   6  13
HETATM   13  C10 UNK     1      19.871  -2.989  36.182  1.00  0.00     0.262 C 
HETATM   14  O4  UNK     1      20.429  -2.612  37.210  1.00  0.00    -0.267 OA
HETATM   15  N1  UNK     1      19.452  -4.272  35.855  1.00  0.00    -0.323 N 
HETATM   16  H4  UNK     1      19.006  -4.408  34.950  1.00  0.00     0.169 HD
BRANCH  15  17
HETATM   17  C11 UNK     1      19.572  -5.445  36.639  1.00  0.00     0.035 A 
HETATM   18  C12 UNK     1      20.810  -5.800  37.177  1.00  0.00     0.029 A 
HETATM   19  C14 UNK     1      20.928  -6.957  37.950  1.00  0.00     0.002 A 
HETATM   20  C16 UNK     1      19.810  -7.756  38.184  1.00  0.00     0.000 A 
HETATM   21  C15 UNK     1      18.573  -7.400  37.647  1.00  0.00     0.002 A 
HETATM   22  C13 UNK     1      18.454  -6.245  36.875  1.00  0.00     0.029 A 
ENDBRANCH  15  17
ENDBRANCH   6  13
BRANCH   8  23
HETATM   23  O2  UNK     1      18.045   1.738  32.169  1.00  0.00    -0.353 OA
HETATM   24  C17 UNK     1      18.293   2.881  31.349  1.00  0.00     0.210 C 
ENDBRANCH   8  23
TORSDOF 3
ENDMDL
MODEL 6
REMARK VINA RESULT:      -8.2     10.394     13.382
REMARK  3 active torsions:
REMARK  status: ('A' for Active; 'I' for Inactive)
REMARK    1  A    between atoms: C5_11  and  O2_3 
REMARK       I    between atoms: C10_16  and  N1_6 
REMARK    2  A    between atoms: C11_17  and  N1_6 
REMARK    3  A    between atoms: C10_16  and  C3_9 
ROOT
HETATM    1 Cl1  UNK     1      11.106  13.239  33.955  1.00  0.00    -0.084 Cl
HETATM    2  O1  UNK     1      15.666   9.795  35.414  1.00  0.00    -0.271 OA
HETATM    3  O3  UNK     1      17.255   8.258  34.839  1.00  0.00    -0.259 OA
HETATM    4  C1  UNK     1      14.110  10.602  33.730  1.00  0.00     0.004 A 
HETATM    5  C2  UNK     1      14.579  10.609  35.040  1.00  0.00     0.123 A 
HETATM    6  C3  UNK     1      15.795   8.974  33.115  1.00  0.00     0.108 A 
HETATM    7  C4  UNK     1      14.763   9.744  32.753  1.00  0.00     0.037 A 
HETATM    8  C5  UNK     1      14.000  11.408  36.022  1.00  0.00     0.104 A 
HETATM    9  C6  UNK     1      13.029  11.422  33.396  1.00  0.00     0.038 A 
HETATM   10  C7  UNK     1      16.309   8.963  34.503  1.00  0.00     0.304 A 
HETATM   11  C8  UNK     1      12.921  12.223  35.682  1.00  0.00     0.063 A 
HETATM   12  C9  UNK     1      12.437  12.230  34.371  1.00  0.00     0.037 A 
ENDROOT
BRANCH   6  13
HETATM   13  C10 UNK     1      16.386   8.142  32.059  1.00  0.00     0.262 C 
HETATM   14  O4  UNK     1      16.191   8.424  30.879  1.00  0.00    -0.267 OA
HETATM   15  N1  UNK     1      17.127   7.087  32.577  1.00  0.00    -0.323 N 
HETATM   16  H4  UNK     1      17.181   7.000  33.589  1.00  0.00     0.169 HD
BRANCH  15  17
HETATM   17  C11 UNK     1      17.830   6.091  31.857  1.00  0.00     0.035 A 
HETATM   18  C12 UNK     1      18.715   6.459  30.842  1.00  0.00     0.029 A 
HETATM   19  C14 UNK     1      19.408   5.477  30.132  1.00  0.00     0.002 A 
HETATM   20  C16 UNK     1      19.218   4.131  30.438  1.00  0.00     0.000 A 
HETATM   21  C15 UNK     1      18.334   3.764  31.452  1.00  0.00     0.002 A 
HETATM   22  C13 UNK     1      17.640   4.744  32.162  1.00  0.00     0.029 A 
ENDBRANCH  15  17
ENDBRANCH   6  13
BRANCH   8  23
HETATM   23  O2  UNK     1      14.467  11.404  37.299  1.00  0.00    -0.353 OA
HETATM   24  C17 UNK     1      13.531  11.107  38.335  1.00  0.00     0.210 C 
ENDBRANCH   8  23
TORSDOF 3
ENDMDL
MODEL 7
REMARK VINA RESULT:      -8.2     18.513     21.640
REMARK  3 active torsions:
REMARK  status: ('A' for Active; 'I' for Inactive)
REMARK    1  A    between atoms: C5_11  and  O2_3 
REMARK       I    between atoms: C10_16  and  N1_6 
REMARK    2  A    between atoms: C11_17  and  N1_6 
REMARK    3  A    between atoms: C10_16  and  C3_9 
ROOT
HETATM    1 Cl1  UNK     1      20.919  -6.837  12.206  1.00  0.00    -0.084 Cl
HETATM    2  O1  UNK     1      17.079  -3.940  15.618  1.00  0.00    -0.271 OA
HETATM    3  O3  UNK     1      16.505  -2.093  16.833  1.00  0.00    -0.259 OA
HETATM    4  C1  UNK     1      19.226  -4.010  14.480  1.00  0.00     0.004 A 
HETATM    5  C2  UNK     1      18.013  -4.610  14.805  1.00  0.00     0.123 A 
HETATM    6  C3  UNK     1      18.620  -2.048  15.765  1.00  0.00     0.108 A 
HETATM    7  C4  UNK     1      19.512  -2.679  14.993  1.00  0.00     0.037 A 
HETATM    8  C5  UNK     1      17.678  -5.882  14.346  1.00  0.00     0.104 A 
HETATM    9  C6  UNK     1      20.127  -4.706  13.671  1.00  0.00     0.038 A 
HETATM   10  C7  UNK     1      17.325  -2.667  16.125  1.00  0.00     0.304 A 
HETATM   11  C8  UNK     1      18.583  -6.570  13.540  1.00  0.00     0.063 A 
HETATM   12  C9  UNK     1      19.805  -5.983  13.203  1.00  0.00     0.037 A 
ENDROOT
BRANCH   6  13
HETATM   13  C10 UNK     1      19.000  -0.709  16.234  1.00  0.00     0.262 C 
HETATM   14  O4  UNK     1      19.305   0.159  15.420  1.00  0.00    -0.267 OA
HETATM   15  N1  UNK     1      18.962  -0.610  17.619  1.00  0.00    -0.323 N 
HETATM   16  H4  UNK     1      18.688  -1.437  18.145  1.00  0.00     0.169 HD
BRANCH  15  17
HETATM   17  C11 UNK     1      19.265   0.524  18.411  1.00  0.00     0.035 A 
HETATM   18  C12 UNK     1      19.023   1.806  17.916  1.00  0.00     0.029 A 
HETATM   19  C14 UNK     1      19.323   2.923  18.697  1.00  0.00     0.002 A 
HETATM   20  C16 UNK     1      19.862   2.758  19.972  1.00  0.00     0.000 A 
HETATM   21  C15 UNK     1      20.103   1.477  20.467  1.00  0.00     0.002 A 
HETATM   22  C13 UNK     1      19.804   0.359  19.688  1.00  0.00     0.029 A 
ENDBRANCH  15  17
ENDBRANCH   6  13
BRANCH   8  23
HETATM   23  O2  UNK     1      16.490  -6.457  14.671  1.00  0.00    -0.353 OA
HETATM   24  C17 UNK     1      16.437  -7.197  15.891  1.00  0.00     0.210 C 
ENDBRANCH   8  23
TORSDOF 3
ENDMDL
MODEL 8
REMARK VINA RESULT:      -8.1      3.376      7.879
REMARK  3 active torsions:
REMARK  status: ('A' for Active; 'I' for Inactive)
REMARK    1  A    between atoms: C5_11  and  O2_3 
REMARK       I    between atoms: C10_16  and  N1_6 
REMARK    2  A    between atoms: C11_17  and  N1_6 
REMARK    3  A    between atoms: C10_16  and  C3_9 
ROOT
HETATM    1 Cl1  UNK     1      19.799 -10.305  39.713  1.00  0.00    -0.084 Cl
HETATM    2  O1  UNK     1      20.481  -6.494  35.265  1.00  0.00    -0.271 OA
HETATM    3  O3  UNK     1      20.375  -4.366  34.441  1.00  0.00    -0.259 OA
HETATM    4  C1  UNK     1      19.873  -6.919  37.580  1.00  0.00     0.004 A 
HETATM    5  C2  UNK     1      20.311  -7.384  36.343  1.00  0.00     0.123 A 
HETATM    6  C3  UNK     1      19.761  -4.660  36.711  1.00  0.00     0.108 A 
HETATM    7  C4  UNK     1      19.597  -5.499  37.740  1.00  0.00     0.037 A 
HETATM    8  C5  UNK     1      20.594  -8.730  36.124  1.00  0.00     0.104 A 
HETATM    9  C6  UNK     1      19.715  -7.831  38.626  1.00  0.00     0.038 A 
HETATM   10  C7  UNK     1      20.224  -5.132  35.387  1.00  0.00     0.304 A 
HETATM   11  C8  UNK     1      20.433  -9.634  37.173  1.00  0.00     0.063 A 
HETATM   12  C9  UNK     1      19.995  -9.185  38.421  1.00  0.00     0.037 A 
ENDROOT
BRANCH   6  13
HETATM   13  C10 UNK     1      19.456  -3.247  36.971  1.00  0.00     0.262 C 
HETATM   14  O4  UNK     1      20.264  -2.551  37.580  1.00  0.00    -0.267 OA
HETATM   15  N1  UNK     1      18.219  -2.877  36.461  1.00  0.00    -0.323 N 
HETATM   16  H4  UNK     1      17.672  -3.590  35.982  1.00  0.00     0.169 HD
BRANCH  15  17
HETATM   17  C11 UNK     1      17.604  -1.603  36.527  1.00  0.00     0.035 A 
HETATM   18  C12 UNK     1      16.770  -1.177  35.492  1.00  0.00     0.029 A 
HETATM   19  C14 UNK     1      16.165   0.079  35.557  1.00  0.00     0.002 A 
HETATM   20  C16 UNK     1      16.392   0.907  36.654  1.00  0.00     0.000 A 
HETATM   21  C15 UNK     1      17.226   0.481  37.689  1.00  0.00     0.002 A 
HETATM   22  C13 UNK     1      17.831  -0.774  37.625  1.00  0.00     0.029 A 
ENDBRANCH  15  17
ENDBRANCH   6  13
BRANCH   8  23
HETATM   23  O2  UNK     1      21.020  -9.171  34.911  1.00  0.00    -0.353 OA
HETATM   24  C17 UNK     1      21.792 -10.372  34.888  1.00  0.00     0.210 C 
ENDBRANCH   8  23
TORSDOF 3
ENDMDL
MODEL 9
REMARK VINA RESULT:      -8.1      5.295     10.504
REMARK  3 active torsions:
REMARK  status: ('A' for Active; 'I' for Inactive)
REMARK    1  A    between atoms: C5_11  and  O2_3 
REMARK       I    between atoms: C10_16  and  N1_6 
REMARK    2  A    between atoms: C11_17  and  N1_6 
REMARK    3  A    between atoms: C10_16  and  C3_9 
ROOT
HETATM    1 Cl1  UNK     1      18.276  -0.801  37.632  1.00  0.00    -0.084 Cl
HETATM    2  O1  UNK     1      18.309   1.565  32.231  1.00  0.00    -0.271 OA
HETATM    3  O3  UNK     1      18.302   3.398  30.867  1.00  0.00    -0.259 OA
HETATM    4  C1  UNK     1      18.279   1.862  34.643  1.00  0.00     0.004 A 
HETATM    5  C2  UNK     1      18.301   1.026  33.531  1.00  0.00     0.123 A 
HETATM    6  C3  UNK     1      18.274   3.809  33.201  1.00  0.00     0.108 A 
HETATM    7  C4  UNK     1      18.266   3.303  34.440  1.00  0.00     0.037 A 
HETATM    8  C5  UNK     1      18.316  -0.362  33.657  1.00  0.00     0.104 A 
HETATM    9  C6  UNK     1      18.271   1.290  35.918  1.00  0.00     0.038 A 
HETATM   10  C7  UNK     1      18.296   2.938  32.005  1.00  0.00     0.304 A 
HETATM   11  C8  UNK     1      18.307  -0.925  34.932  1.00  0.00     0.063 A 
HETATM   12  C9  UNK     1      18.285  -0.101  36.060  1.00  0.00     0.037 A 
ENDROOT
BRANCH   6  13
HETATM   13  C10 UNK     1      18.259   5.273  33.099  1.00  0.00     0.262 C 
HETATM   14  O4  UNK     1      19.277   5.872  32.759  1.00  0.00    -0.267 OA
HETATM   15  N1  UNK     1      17.019   5.808  33.423  1.00  0.00    -0.323 N 
HETATM   16  H4  UNK     1      16.280   5.160  33.688  1.00  0.00     0.169 HD
BRANCH  15  17
HETATM   17  C11 UNK     1      16.643   7.173  33.434  1.00  0.00     0.035 A 
HETATM   18  C12 UNK     1      15.823   7.679  32.424  1.00  0.00     0.029 A 
HETATM   19  C14 UNK     1      15.454   9.025  32.435  1.00  0.00     0.002 A 
HETATM   20  C16 UNK     1      15.903   9.863  33.454  1.00  0.00     0.000 A 
HETATM   21  C15 UNK     1      16.722   9.357  34.464  1.00  0.00     0.002 A 
HETATM   22  C13 UNK     1      17.092   8.013  34.454  1.00  0.00     0.029 A 
ENDBRANCH  15  17
ENDBRANCH   6  13
BRANCH   8  23
HETATM   23  O2  UNK     1      18.337  -1.167  32.563  1.00  0.00    -0.353 OA
HETATM   24  C17 UNK     1      19.606  -1.676  32.152  1.00  0.00     0.210 C 
ENDBRANCH   8  23
TORSDOF 3
ENDMDL
MODEL 10
REMARK VINA RESULT:      -8.0      3.529      8.111
REMARK  3 active torsions:
REMARK  status: ('A' for Active; 'I' for Inactive)
REMARK    1  A    between atoms: C5_11  and  O2_3 
REMARK       I    between atoms: C10_16  and  N1_6 
REMARK    2  A    between atoms: C11_17  and  N1_6 
REMARK    3  A    between atoms: C10_16  and  C3_9 
ROOT
HETATM    1 Cl1  UNK     1      24.290  -8.316  39.403  1.00  0.00    -0.084 Cl
HETATM    2  O1  UNK     1      18.874  -7.133  37.392  1.00  0.00    -0.271 OA
HETATM    3  O3  UNK     1      17.369  -5.673  36.487  1.00  0.00    -0.259 OA
HETATM    4  C1  UNK     1      21.142  -6.390  37.852  1.00  0.00     0.004 A 
HETATM    5  C2  UNK     1      20.175  -7.390  37.866  1.00  0.00     0.123 A 
HETATM    6  C3  UNK     1      19.550  -4.838  36.890  1.00  0.00     0.108 A 
HETATM    7  C4  UNK     1      20.788  -5.075  37.339  1.00  0.00     0.037 A 
HETATM    8  C5  UNK     1      20.449  -8.669  38.344  1.00  0.00     0.104 A 
HETATM    9  C6  UNK     1      22.421  -6.682  38.332  1.00  0.00     0.038 A 
HETATM   10  C7  UNK     1      18.505  -5.886  36.896  1.00  0.00     0.304 A 
HETATM   11  C8  UNK     1      21.728  -8.953  38.821  1.00  0.00     0.063 A 
HETATM   12  C9  UNK     1      22.712  -7.961  38.814  1.00  0.00     0.037 A 
ENDROOT
BRANCH   6  13
HETATM   13  C10 UNK     1      19.289  -3.482  36.392  1.00  0.00     0.262 C 
HETATM   14  O4  UNK     1      20.028  -2.991  35.542  1.00  0.00    -0.267 OA
HETATM   15  N1  UNK     1      18.175  -2.909  36.993  1.00  0.00    -0.323 N 
HETATM   16  H4  UNK     1      17.676  -3.462  37.687  1.00  0.00     0.169 HD
BRANCH  15  17
HETATM   17  C11 UNK     1      17.634  -1.622  36.759  1.00  0.00     0.035 A 
HETATM   18  C12 UNK     1      17.803  -0.611  37.707  1.00  0.00     0.029 A 
HETATM   19  C14 UNK     1      17.269   0.657  37.476  1.00  0.00     0.002 A 
HETATM   20  C16 UNK     1      16.569   0.915  36.299  1.00  0.00     0.000 A 
HETATM   21  C15 UNK     1      16.400  -0.094  35.351  1.00  0.00     0.002 A 
HETATM   22  C13 UNK     1      16.933  -1.362  35.581  1.00  0.00     0.029 A 
ENDBRANCH  15  17
ENDBRANCH   6  13
BRANCH   8  23
HETATM   23  O2  UNK     1      19.495  -9.637  38.352  1.00  0.00    -0.353 OA
HETATM   24  C17 UNK     1      19.708 -10.770  37.510  1.00  0.00     0.210 C 
ENDBRANCH   8  23
TORSDOF 3
ENDMDL
