MODEL 1
REMARK VINA RESULT:      -9.7      0.000      0.000
REMARK  4 active torsions:
REMARK  status: ('A' for Active; 'I' for Inactive)
REMARK    1  A    between atoms: C10_15  and  O2_2 
REMARK    2  A    between atoms: C17_22  and  O2_2 
REMARK    3  A    between atoms: C5_10  and  N1_5 
REMARK       I    between atoms: C6_11  and  N1_5 
REMARK    4  A    between atoms: C2_7  and  C6_11 
ROOT
HETATM    1  O3  UNK     1      17.605   3.294  32.836  1.00  0.00    -0.267 OA
HETATM    2  N1  UNK     1      18.838   4.763  31.470  1.00  0.00    -0.323 N 
HETATM    3  C6  UNK     1      18.322   3.537  31.866  1.00  0.00     0.262 C 
HETATM    4  H3  UNK     1      19.401   4.800  30.623  1.00  0.00     0.169 HD
ENDROOT
BRANCH   2   5
HETATM    5  C5  UNK     1      18.655   6.020  32.095  1.00  0.00     0.035 A 
HETATM    6  C11 UNK     1      19.508   6.399  33.117  1.00  0.00     0.032 A 
HETATM    7  C15 UNK     1      19.327   7.637  33.734  1.00  0.00     0.039 A 
HETATM    8  C10 UNK     1      18.295   8.478  33.319  1.00  0.00     0.076 A 
HETATM    9  C16 UNK     1      17.443   8.081  32.288  1.00  0.00     0.039 A 
HETATM   10  C12 UNK     1      17.624   6.843  31.671  1.00  0.00     0.032 A 
BRANCH   8  11
HETATM   11  O2  UNK     1      18.117   9.686  33.920  1.00  0.00    -0.311 OA
BRANCH  11  12
HETATM   12  C17 UNK     1      16.818  10.093  34.176  1.00  0.00     0.076 A 
HETATM   13  C18 UNK     1      16.468  11.412  33.953  1.00  0.00     0.037 A 
HETATM   14  C20 UNK     1      15.161  11.822  34.212  1.00  0.00     0.003 A 
HETATM   15  C22 UNK     1      14.224  10.905  34.690  1.00  0.00     0.000 A 
HETATM   16  C21 UNK     1      14.597   9.578  34.910  1.00  0.00     0.003 A 
HETATM   17  C19 UNK     1      15.904   9.169  34.650  1.00  0.00     0.037 A 
ENDBRANCH  11  12
ENDBRANCH   8  11
ENDBRANCH   2   5
BRANCH   3  18
HETATM   18  C2  UNK     1      18.725   2.449  30.968  1.00  0.00     0.108 A 
HETATM   19  C4  UNK     1      19.141   1.321  31.554  1.00  0.00     0.037 A 
HETATM   20  C1  UNK     1      19.561   0.186  30.746  1.00  0.00    -0.001 A 
HETATM   21  C3  UNK     1      19.522   0.296  29.360  1.00  0.00     0.089 A 
HETATM   22  C7  UNK     1      20.002  -1.011  31.316  1.00  0.00     0.014 A 
HETATM   23  O1  UNK     1      19.083   1.487  28.749  1.00  0.00    -0.274 OA
HETATM   24  C9  UNK     1      19.911  -0.753  28.529  1.00  0.00     0.038 A 
HETATM   25  C8  UNK     1      18.675   2.588  29.494  1.00  0.00     0.304 A 
HETATM   26  O4  UNK     1      18.294   3.621  28.953  1.00  0.00    -0.259 OA
HETATM   27  C14 UNK     1      20.350  -1.943  29.105  1.00  0.00     0.003 A 
HETATM   28  C13 UNK     1      20.396  -2.073  30.495  1.00  0.00     0.001 A 
ENDBRANCH   3  18
TORSDOF 4
ENDMDL
MODEL 2
REMARK VINA RESULT:      -9.5      1.733      2.821
REMARK  4 active torsions:
REMARK  status: ('A' for Active; 'I' for Inactive)
REMARK    1  A    between atoms: C10_15  and  O2_2 
REMARK    2  A    between atoms: C17_22  and  O2_2 
REMARK    3  A    between atoms: C5_10  and  N1_5 
REMARK       I    between atoms: C6_11  and  N1_5 
REMARK    4  A    between atoms: C2_7  and  C6_11 
ROOT
HETATM    1  O3  UNK     1      17.504   1.929  29.260  1.00  0.00    -0.267 OA
HETATM    2  N1  UNK     1      19.092   2.680  30.828  1.00  0.00    -0.323 N 
HETATM    3  C6  UNK     1      18.481   1.760  29.989  1.00  0.00     0.262 C 
HETATM    4  H3  UNK     1      19.913   2.386  31.353  1.00  0.00     0.169 HD
ENDROOT
BRANCH   2   5
HETATM    5  C5  UNK     1      18.729   4.033  31.038  1.00  0.00     0.035 A 
HETATM    6  C11 UNK     1      19.035   4.974  30.071  1.00  0.00     0.032 A 
HETATM    7  C15 UNK     1      18.678   6.307  30.278  1.00  0.00     0.039 A 
HETATM    8  C10 UNK     1      18.019   6.678  31.450  1.00  0.00     0.076 A 
HETATM    9  C16 UNK     1      17.718   5.716  32.415  1.00  0.00     0.039 A 
HETATM   10  C12 UNK     1      18.075   4.384  32.208  1.00  0.00     0.032 A 
BRANCH   8  11
HETATM   11  O2  UNK     1      17.669   7.977  31.653  1.00  0.00    -0.311 OA
BRANCH  11  12
HETATM   12  C17 UNK     1      16.588   8.231  32.482  1.00  0.00     0.076 A 
HETATM   13  C18 UNK     1      15.323   7.846  32.076  1.00  0.00     0.037 A 
HETATM   14  C20 UNK     1      14.235   8.103  32.909  1.00  0.00     0.003 A 
HETATM   15  C22 UNK     1      14.430   8.741  34.134  1.00  0.00     0.000 A 
HETATM   16  C21 UNK     1      15.714   9.121  34.525  1.00  0.00     0.003 A 
HETATM   17  C19 UNK     1      16.802   8.864  33.692  1.00  0.00     0.037 A 
ENDBRANCH  11  12
ENDBRANCH   8  11
ENDBRANCH   2   5
BRANCH   3  18
HETATM   18  C2  UNK     1      19.139   0.449  30.030  1.00  0.00     0.108 A 
HETATM   19  C4  UNK     1      19.447  -0.020  31.245  1.00  0.00     0.037 A 
HETATM   20  C1  UNK     1      20.101  -1.312  31.388  1.00  0.00    -0.001 A 
HETATM   21  C3  UNK     1      20.398  -2.046  30.245  1.00  0.00     0.089 A 
HETATM   22  C7  UNK     1      20.441  -1.840  32.636  1.00  0.00     0.014 A 
HETATM   23  O1  UNK     1      20.071  -1.547  28.969  1.00  0.00    -0.274 OA
HETATM   24  C9  UNK     1      21.024  -3.289  30.312  1.00  0.00     0.038 A 
HETATM   25  C8  UNK     1      19.445  -0.316  28.800  1.00  0.00     0.304 A 
HETATM   26  O4  UNK     1      19.164   0.111  27.685  1.00  0.00    -0.259 OA
HETATM   27  C14 UNK     1      21.360  -3.809  31.561  1.00  0.00     0.003 A 
HETATM   28  C13 UNK     1      21.070  -3.087  32.720  1.00  0.00     0.001 A 
ENDBRANCH   3  18
TORSDOF 4
ENDMDL
MODEL 3
REMARK VINA RESULT:      -9.4      7.109     12.778
REMARK  4 active torsions:
REMARK  status: ('A' for Active; 'I' for Inactive)
REMARK    1  A    between atoms: C10_15  and  O2_2 
REMARK    2  A    between atoms: C17_22  and  O2_2 
REMARK    3  A    between atoms: C5_10  and  N1_5 
REMARK       I    between atoms: C6_11  and  N1_5 
REMARK    4  A    between atoms: C2_7  and  C6_11 
ROOT
HETATM    1  O3  UNK     1      18.550  -1.571  36.256  1.00  0.00    -0.267 OA
HETATM    2  N1  UNK     1      19.751  -3.240  35.108  1.00  0.00    -0.323 N 
HETATM    3  C6  UNK     1      19.095  -2.026  35.251  1.00  0.00     0.262 C 
HETATM    4  H3  UNK     1      20.171  -3.461  34.208  1.00  0.00     0.169 HD
ENDROOT
BRANCH   2   5
HETATM    5  C5  UNK     1      19.944  -4.239  36.094  1.00  0.00     0.035 A 
HETATM    6  C11 UNK     1      20.944  -4.075  37.037  1.00  0.00     0.032 A 
HETATM    7  C15 UNK     1      21.136  -5.059  38.007  1.00  0.00     0.039 A 
HETATM    8  C10 UNK     1      20.323  -6.192  38.020  1.00  0.00     0.076 A 
HETATM    9  C16 UNK     1      19.320  -6.342  37.062  1.00  0.00     0.039 A 
HETATM   10  C12 UNK     1      19.129  -5.358  36.092  1.00  0.00     0.032 A 
BRANCH   8  11
HETATM   11  O2  UNK     1      20.508  -7.153  38.966  1.00  0.00    -0.311 OA
BRANCH  11  12
HETATM   12  C17 UNK     1      20.427  -8.476  38.564  1.00  0.00     0.076 A 
HETATM   13  C18 UNK     1      21.359  -8.967  37.668  1.00  0.00     0.037 A 
HETATM   14  C20 UNK     1      21.275 -10.298  37.262  1.00  0.00     0.003 A 
HETATM   15  C22 UNK     1      20.261 -11.117  37.758  1.00  0.00     0.000 A 
HETATM   16  C21 UNK     1      19.330 -10.603  38.661  1.00  0.00     0.003 A 
HETATM   17  C19 UNK     1      19.414  -9.272  39.067  1.00  0.00     0.037 A 
ENDBRANCH  11  12
ENDBRANCH   8  11
ENDBRANCH   2   5
BRANCH   3  18
HETATM   18  C2  UNK     1      19.095  -1.247  34.008  1.00  0.00     0.108 A 
HETATM   19  C4  UNK     1      19.719  -1.799  32.962  1.00  0.00     0.037 A 
HETATM   20  C1  UNK     1      19.772  -1.102  31.686  1.00  0.00    -0.001 A 
HETATM   21  C3  UNK     1      19.163   0.143  31.575  1.00  0.00     0.089 A 
HETATM   22  C7  UNK     1      20.413  -1.642  30.568  1.00  0.00     0.014 A 
HETATM   23  O1  UNK     1      18.507   0.721  32.679  1.00  0.00    -0.274 OA
HETATM   24  C9  UNK     1      19.178   0.864  30.381  1.00  0.00     0.038 A 
HETATM   25  C8  UNK     1      18.440   0.078  33.912  1.00  0.00     0.304 A 
HETATM   26  O4  UNK     1      17.866   0.589  34.869  1.00  0.00    -0.259 OA
HETATM   27  C14 UNK     1      19.820   0.318  29.271  1.00  0.00     0.003 A 
HETATM   28  C13 UNK     1      20.436  -0.932  29.364  1.00  0.00     0.001 A 
ENDBRANCH   3  18
TORSDOF 4
ENDMDL
MODEL 4
REMARK VINA RESULT:      -9.1      1.681      2.734
REMARK  4 active torsions:
REMARK  status: ('A' for Active; 'I' for Inactive)
REMARK    1  A    between atoms: C10_15  and  O2_2 
REMARK    2  A    between atoms: C17_22  and  O2_2 
REMARK    3  A    between atoms: C5_10  and  N1_5 
REMARK       I    between atoms: C6_11  and  N1_5 
REMARK    4  A    between atoms: C2_7  and  C6_11 
ROOT
HETATM    1  O3  UNK     1      18.645   5.056  30.600  1.00  0.00    -0.267 OA
HETATM    2  N1  UNK     1      17.475   4.723  32.616  1.00  0.00    -0.323 N 
HETATM    3  C6  UNK     1      18.243   4.349  31.522  1.00  0.00     0.262 C 
HETATM    4  H3  UNK     1      17.241   4.016  33.308  1.00  0.00     0.169 HD
ENDROOT
BRANCH   2   5
HETATM    5  C5  UNK     1      16.978   6.015  32.921  1.00  0.00     0.035 A 
HETATM    6  C11 UNK     1      16.315   6.733  31.941  1.00  0.00     0.032 A 
HETATM    7  C15 UNK     1      15.827   8.005  32.241  1.00  0.00     0.039 A 
HETATM    8  C10 UNK     1      16.009   8.539  33.517  1.00  0.00     0.076 A 
HETATM    9  C16 UNK     1      16.680   7.801  34.492  1.00  0.00     0.039 A 
HETATM   10  C12 UNK     1      17.168   6.529  34.192  1.00  0.00     0.032 A 
BRANCH   8  11
HETATM   11  O2  UNK     1      15.533   9.780  33.811  1.00  0.00    -0.311 OA
BRANCH  11  12
HETATM   12  C17 UNK     1      16.451  10.752  34.173  1.00  0.00     0.076 A 
HETATM   13  C18 UNK     1      16.027  11.834  34.923  1.00  0.00     0.037 A 
HETATM   14  C20 UNK     1      16.950  12.813  35.285  1.00  0.00     0.003 A 
HETATM   15  C22 UNK     1      18.284  12.695  34.891  1.00  0.00     0.000 A 
HETATM   16  C21 UNK     1      18.692  11.597  34.134  1.00  0.00     0.003 A 
HETATM   17  C19 UNK     1      17.768  10.617  33.772  1.00  0.00     0.037 A 
ENDBRANCH  11  12
ENDBRANCH   8  11
ENDBRANCH   2   5
BRANCH   3  18
HETATM   18  C2  UNK     1      18.573   2.919  31.541  1.00  0.00     0.108 A 
HETATM   19  C4  UNK     1      19.051   2.407  30.401  1.00  0.00     0.037 A 
HETATM   20  C1  UNK     1      19.408   0.999  30.322  1.00  0.00    -0.001 A 
HETATM   21  C3  UNK     1      19.244   0.199  31.448  1.00  0.00     0.089 A 
HETATM   22  C7  UNK     1      19.910   0.422  29.152  1.00  0.00     0.014 A 
HETATM   23  O1  UNK     1      18.740   0.744  32.645  1.00  0.00    -0.274 OA
HETATM   24  C9  UNK     1      19.565  -1.157  31.439  1.00  0.00     0.038 A 
HETATM   25  C8  UNK     1      18.391   2.087  32.751  1.00  0.00     0.304 A 
HETATM   26  O4  UNK     1      17.953   2.553  33.799  1.00  0.00    -0.259 OA
HETATM   27  C14 UNK     1      20.066  -1.724  30.268  1.00  0.00     0.003 A 
HETATM   28  C13 UNK     1      20.238  -0.937  29.128  1.00  0.00     0.001 A 
ENDBRANCH   3  18
TORSDOF 4
ENDMDL
MODEL 5
REMARK VINA RESULT:      -9.1      1.045      2.063
REMARK  4 active torsions:
REMARK  status: ('A' for Active; 'I' for Inactive)
REMARK    1  A    between atoms: C10_15  and  O2_2 
REMARK    2  A    between atoms: C17_22  and  O2_2 
REMARK    3  A    between atoms: C5_10  and  N1_5 
REMARK       I    between atoms: C6_11  and  N1_5 
REMARK    4  A    between atoms: C2_7  and  C6_11 
ROOT
HETATM    1  O3  UNK     1      18.404   4.489  30.139  1.00  0.00    -0.267 OA
HETATM    2  N1  UNK     1      18.544   4.653  32.484  1.00  0.00    -0.323 N 
HETATM    3  C6  UNK     1      18.558   4.002  31.258  1.00  0.00     0.262 C 
HETATM    4  H3  UNK     1      18.710   4.105  33.325  1.00  0.00     0.169 HD
ENDROOT
BRANCH   2   5
HETATM    5  C5  UNK     1      18.349   6.035  32.726  1.00  0.00     0.035 A 
HETATM    6  C11 UNK     1      19.212   6.701  33.578  1.00  0.00     0.032 A 
HETATM    7  C15 UNK     1      19.019   8.062  33.818  1.00  0.00     0.039 A 
HETATM    8  C10 UNK     1      17.966   8.736  33.200  1.00  0.00     0.076 A 
HETATM    9  C16 UNK     1      17.105   8.049  32.345  1.00  0.00     0.039 A 
HETATM   10  C12 UNK     1      17.297   6.688  32.105  1.00  0.00     0.032 A 
BRANCH   8  11
HETATM   11  O2  UNK     1      17.777  10.064  33.433  1.00  0.00    -0.311 OA
BRANCH  11  12
HETATM   12  C17 UNK     1      16.670  10.435  34.180  1.00  0.00     0.076 A 
HETATM   13  C18 UNK     1      15.704   9.488  34.468  1.00  0.00     0.037 A 
HETATM   14  C20 UNK     1      14.590   9.863  35.218  1.00  0.00     0.003 A 
HETATM   15  C22 UNK     1      14.460  11.177  35.668  1.00  0.00     0.000 A 
HETATM   16  C21 UNK     1      15.446  12.117  35.365  1.00  0.00     0.003 A 
HETATM   17  C19 UNK     1      16.560  11.743  34.615  1.00  0.00     0.037 A 
ENDBRANCH  11  12
ENDBRANCH   8  11
ENDBRANCH   2   5
BRANCH   3  18
HETATM   18  C2  UNK     1      18.791   2.560  31.399  1.00  0.00     0.108 A 
HETATM   19  C4  UNK     1      19.379   1.952  30.363  1.00  0.00     0.037 A 
HETATM   20  C1  UNK     1      19.651   0.523  30.409  1.00  0.00    -0.001 A 
HETATM   21  C3  UNK     1      19.291  -0.194  31.545  1.00  0.00     0.089 A 
HETATM   22  C7  UNK     1      20.263  -0.153  29.351  1.00  0.00     0.014 A 
HETATM   23  O1  UNK     1      18.672   0.453  32.633  1.00  0.00    -0.274 OA
HETATM   24  C9  UNK     1      19.523  -1.564  31.653  1.00  0.00     0.038 A 
HETATM   25  C8  UNK     1      18.399   1.817  32.618  1.00  0.00     0.304 A 
HETATM   26  O4  UNK     1      17.860   2.371  33.570  1.00  0.00    -0.259 OA
HETATM   27  C14 UNK     1      20.134  -2.231  30.593  1.00  0.00     0.003 A 
HETATM   28  C13 UNK     1      20.503  -1.527  29.444  1.00  0.00     0.001 A 
ENDBRANCH   3  18
TORSDOF 4
ENDMDL
MODEL 6
REMARK VINA RESULT:      -9.0      8.214     14.690
REMARK  4 active torsions:
REMARK  status: ('A' for Active; 'I' for Inactive)
REMARK    1  A    between atoms: C10_15  and  O2_2 
REMARK    2  A    between atoms: C17_22  and  O2_2 
REMARK    3  A    between atoms: C5_10  and  N1_5 
REMARK       I    between atoms: C6_11  and  N1_5 
REMARK    4  A    between atoms: C2_7  and  C6_11 
ROOT
HETATM    1  O3  UNK     1      21.011  -3.758  37.415  1.00  0.00    -0.267 OA
HETATM    2  N1  UNK     1      19.607  -4.763  35.813  1.00  0.00    -0.323 N 
HETATM    3  C6  UNK     1      20.140  -3.712  36.546  1.00  0.00     0.262 C 
HETATM    4  H3  UNK     1      18.902  -4.554  35.110  1.00  0.00     0.169 HD
ENDROOT
BRANCH   2   5
HETATM    5  C5  UNK     1      19.948  -6.135  35.897  1.00  0.00     0.035 A 
HETATM    6  C11 UNK     1      19.757  -6.808  37.091  1.00  0.00     0.032 A 
HETATM    7  C15 UNK     1      20.093  -8.159  37.175  1.00  0.00     0.039 A 
HETATM    8  C10 UNK     1      20.616  -8.817  36.061  1.00  0.00     0.076 A 
HETATM    9  C16 UNK     1      20.803  -8.124  34.866  1.00  0.00     0.039 A 
HETATM   10  C12 UNK     1      20.466  -6.773  34.782  1.00  0.00     0.032 A 
BRANCH   8  11
HETATM   11  O2  UNK     1      20.944 -10.136  36.141  1.00  0.00    -0.311 OA
BRANCH  11  12
HETATM   12  C17 UNK     1      22.291 -10.463  36.164  1.00  0.00     0.076 A 
HETATM   13  C18 UNK     1      23.197  -9.552  36.675  1.00  0.00     0.037 A 
HETATM   14  C20 UNK     1      24.552  -9.881  36.696  1.00  0.00     0.003 A 
HETATM   15  C22 UNK     1      24.978 -11.115  36.206  1.00  0.00     0.000 A 
HETATM   16  C21 UNK     1      24.048 -12.020  35.694  1.00  0.00     0.003 A 
HETATM   17  C19 UNK     1      22.693 -11.692  35.673  1.00  0.00     0.037 A 
ENDBRANCH  11  12
ENDBRANCH   8  11
ENDBRANCH   2   5
BRANCH   3  18
HETATM   18  C2  UNK     1      19.540  -2.423  36.184  1.00  0.00     0.108 A 
HETATM   19  C4  UNK     1      18.836  -1.808  37.140  1.00  0.00     0.037 A 
HETATM   20  C1  UNK     1      18.203  -0.524  36.876  1.00  0.00    -0.001 A 
HETATM   21  C3  UNK     1      18.345   0.048  35.616  1.00  0.00     0.089 A 
HETATM   22  C7  UNK     1      17.459   0.153  37.845  1.00  0.00     0.014 A 
HETATM   23  O1  UNK     1      19.088  -0.605  34.613  1.00  0.00    -0.274 OA
HETATM   24  C9  UNK     1      17.764   1.274  35.298  1.00  0.00     0.038 A 
HETATM   25  C8  UNK     1      19.704  -1.832  34.836  1.00  0.00     0.304 A 
HETATM   26  O4  UNK     1      20.349  -2.393  33.956  1.00  0.00    -0.259 OA
HETATM   27  C14 UNK     1      17.023   1.943  36.270  1.00  0.00     0.003 A 
HETATM   28  C13 UNK     1      16.870   1.384  37.540  1.00  0.00     0.001 A 
ENDBRANCH   3  18
TORSDOF 4
ENDMDL
MODEL 7
REMARK VINA RESULT:      -8.9     15.394     17.983
REMARK  4 active torsions:
REMARK  status: ('A' for Active; 'I' for Inactive)
REMARK    1  A    between atoms: C10_15  and  O2_2 
REMARK    2  A    between atoms: C17_22  and  O2_2 
REMARK    3  A    between atoms: C5_10  and  N1_5 
REMARK       I    between atoms: C6_11  and  N1_5 
REMARK    4  A    between atoms: C2_7  and  C6_11 
ROOT
HETATM    1  O3  UNK     1      27.020  -8.658  39.776  1.00  0.00    -0.267 OA
HETATM    2  N1  UNK     1      27.214  -7.055  38.063  1.00  0.00    -0.323 N 
HETATM    3  C6  UNK     1      26.568  -8.013  38.831  1.00  0.00     0.262 C 
HETATM    4  H3  UNK     1      26.689  -6.592  37.324  1.00  0.00     0.169 HD
ENDROOT
BRANCH   2   5
HETATM    5  C5  UNK     1      28.548  -6.598  38.194  1.00  0.00     0.035 A 
HETATM    6  C11 UNK     1      28.782  -5.300  38.613  1.00  0.00     0.032 A 
HETATM    7  C15 UNK     1      30.096  -4.850  38.741  1.00  0.00     0.039 A 
HETATM    8  C10 UNK     1      31.158  -5.706  38.446  1.00  0.00     0.076 A 
HETATM    9  C16 UNK     1      30.904  -7.012  38.024  1.00  0.00     0.039 A 
HETATM   10  C12 UNK     1      29.590  -7.462  37.897  1.00  0.00     0.032 A 
BRANCH   8  11
HETATM   11  O2  UNK     1      32.440  -5.269  38.571  1.00  0.00    -0.311 OA
BRANCH  11  12
HETATM   12  C17 UNK     1      33.215  -5.215  37.423  1.00  0.00     0.076 A 
HETATM   13  C18 UNK     1      34.372  -5.970  37.356  1.00  0.00     0.037 A 
HETATM   14  C20 UNK     1      35.153  -5.914  36.202  1.00  0.00     0.003 A 
HETATM   15  C22 UNK     1      34.765  -5.104  35.135  1.00  0.00     0.000 A 
HETATM   16  C21 UNK     1      33.595  -4.349  35.223  1.00  0.00     0.003 A 
HETATM   17  C19 UNK     1      32.814  -4.405  36.377  1.00  0.00     0.037 A 
ENDBRANCH  11  12
ENDBRANCH   8  11
ENDBRANCH   2   5
BRANCH   3  18
HETATM   18  C2  UNK     1      25.181  -8.225  38.403  1.00  0.00     0.108 A 
HETATM   19  C4  UNK     1      24.239  -7.583  39.104  1.00  0.00     0.037 A 
HETATM   20  C1  UNK     1      22.835  -7.731  38.754  1.00  0.00    -0.001 A 
HETATM   21  C3  UNK     1      22.491  -8.547  37.682  1.00  0.00     0.089 A 
HETATM   22  C7  UNK     1      21.820  -7.080  39.459  1.00  0.00     0.014 A 
HETATM   23  O1  UNK     1      23.487  -9.220  36.947  1.00  0.00    -0.274 OA
HETATM   24  C9  UNK     1      21.165  -8.732  37.296  1.00  0.00     0.038 A 
HETATM   25  C8  UNK     1      24.838  -9.099  37.257  1.00  0.00     0.304 A 
HETATM   26  O4  UNK     1      25.698  -9.689  36.612  1.00  0.00    -0.259 OA
HETATM   27  C14 UNK     1      20.158  -8.079  38.004  1.00  0.00     0.003 A 
HETATM   28  C13 UNK     1      20.484  -7.255  39.083  1.00  0.00     0.001 A 
ENDBRANCH   3  18
TORSDOF 4
ENDMDL
MODEL 8
REMARK VINA RESULT:      -8.9      5.006     10.889
REMARK  4 active torsions:
REMARK  status: ('A' for Active; 'I' for Inactive)
REMARK    1  A    between atoms: C10_15  and  O2_2 
REMARK    2  A    between atoms: C17_22  and  O2_2 
REMARK    3  A    between atoms: C5_10  and  N1_5 
REMARK       I    between atoms: C6_11  and  N1_5 
REMARK    4  A    between atoms: C2_7  and  C6_11 
ROOT
HETATM    1  O3  UNK     1      16.781   0.493  34.412  1.00  0.00    -0.267 OA
HETATM    2  N1  UNK     1      19.099   0.085  34.361  1.00  0.00    -0.323 N 
HETATM    3  C6  UNK     1      17.925   0.752  34.042  1.00  0.00     0.262 C 
HETATM    4  H3  UNK     1      19.976   0.441  33.988  1.00  0.00     0.169 HD
ENDROOT
BRANCH   2   5
HETATM    5  C5  UNK     1      19.248  -1.053  35.192  1.00  0.00     0.035 A 
HETATM    6  C11 UNK     1      18.641  -1.068  36.436  1.00  0.00     0.032 A 
HETATM    7  C15 UNK     1      18.788  -2.187  37.254  1.00  0.00     0.039 A 
HETATM    8  C10 UNK     1      19.540  -3.277  36.816  1.00  0.00     0.076 A 
HETATM    9  C16 UNK     1      20.145  -3.246  35.559  1.00  0.00     0.039 A 
HETATM   10  C12 UNK     1      19.998  -2.126  34.741  1.00  0.00     0.032 A 
BRANCH   8  11
HETATM   11  O2  UNK     1      19.684  -4.371  37.613  1.00  0.00    -0.311 OA
BRANCH  11  12
HETATM   12  C17 UNK     1      19.655  -5.617  37.008  1.00  0.00     0.076 A 
HETATM   13  C18 UNK     1      18.450  -6.111  36.541  1.00  0.00     0.037 A 
HETATM   14  C20 UNK     1      18.421  -7.366  35.934  1.00  0.00     0.003 A 
HETATM   15  C22 UNK     1      19.596  -8.106  35.803  1.00  0.00     0.000 A 
HETATM   16  C21 UNK     1      20.801  -7.590  36.280  1.00  0.00     0.003 A 
HETATM   17  C19 UNK     1      20.831  -6.335  36.888  1.00  0.00     0.037 A 
ENDBRANCH  11  12
ENDBRANCH   8  11
ENDBRANCH   2   5
BRANCH   3  18
HETATM   18  C2  UNK     1      18.162   1.894  33.151  1.00  0.00     0.108 A 
HETATM   19  C4  UNK     1      18.020   3.108  33.695  1.00  0.00     0.037 A 
HETATM   20  C1  UNK     1      18.234   4.301  32.891  1.00  0.00    -0.001 A 
HETATM   21  C3  UNK     1      18.586   4.157  31.553  1.00  0.00     0.089 A 
HETATM   22  C7  UNK     1      18.097   5.588  33.417  1.00  0.00     0.014 A 
HETATM   23  O1  UNK     1      18.733   2.876  30.986  1.00  0.00    -0.274 OA
HETATM   24  C9  UNK     1      18.804   5.259  30.728  1.00  0.00     0.038 A 
HETATM   25  C8  UNK     1      18.536   1.716  31.730  1.00  0.00     0.304 A 
HETATM   26  O4  UNK     1      18.667   0.605  31.228  1.00  0.00    -0.259 OA
HETATM   27  C14 UNK     1      18.665   6.539  31.261  1.00  0.00     0.003 A 
HETATM   28  C13 UNK     1      18.312   6.704  32.602  1.00  0.00     0.001 A 
ENDBRANCH   3  18
TORSDOF 4
ENDMDL
MODEL 9
REMARK VINA RESULT:      -8.9     15.222     21.690
REMARK  4 active torsions:
REMARK  status: ('A' for Active; 'I' for Inactive)
REMARK    1  A    between atoms: C10_15  and  O2_2 
REMARK    2  A    between atoms: C17_22  and  O2_2 
REMARK    3  A    between atoms: C5_10  and  N1_5 
REMARK       I    between atoms: C6_11  and  N1_5 
REMARK    4  A    between atoms: C2_7  and  C6_11 
ROOT
HETATM    1  O3  UNK     1      17.784  -3.317  15.856  1.00  0.00    -0.267 OA
HETATM    2  N1  UNK     1      19.893  -3.148  14.823  1.00  0.00    -0.323 N 
HETATM    3  C6  UNK     1      18.792  -2.691  15.532  1.00  0.00     0.262 C 
HETATM    4  H3  UNK     1      20.662  -2.504  14.653  1.00  0.00     0.169 HD
ENDROOT
BRANCH   2   5
HETATM    5  C5  UNK     1      20.109  -4.450  14.308  1.00  0.00     0.035 A 
HETATM    6  C11 UNK     1      19.614  -4.773  13.056  1.00  0.00     0.032 A 
HETATM    7  C15 UNK     1      19.825  -6.056  12.549  1.00  0.00     0.039 A 
HETATM    8  C10 UNK     1      20.528  -6.996  13.302  1.00  0.00     0.076 A 
HETATM    9  C16 UNK     1      21.019  -6.654  14.562  1.00  0.00     0.039 A 
HETATM   10  C12 UNK     1      20.808  -5.371  15.069  1.00  0.00     0.032 A 
BRANCH   8  11
HETATM   11  O2  UNK     1      20.735  -8.248  12.809  1.00  0.00    -0.311 OA
BRANCH  11  12
HETATM   12  C17 UNK     1      21.984  -8.534  12.284  1.00  0.00     0.076 A 
HETATM   13  C18 UNK     1      22.762  -9.506  12.887  1.00  0.00     0.037 A 
HETATM   14  C20 UNK     1      24.020  -9.792  12.360  1.00  0.00     0.003 A 
HETATM   15  C22 UNK     1      24.481  -9.102  11.238  1.00  0.00     0.000 A 
HETATM   16  C21 UNK     1      23.682  -8.125  10.645  1.00  0.00     0.003 A 
HETATM   17  C19 UNK     1      22.423  -7.838  11.172  1.00  0.00     0.037 A 
ENDBRANCH  11  12
ENDBRANCH   8  11
ENDBRANCH   2   5
BRANCH   3  18
HETATM   18  C2  UNK     1      18.922  -1.277  15.905  1.00  0.00     0.108 A 
HETATM   19  C4  UNK     1      18.797  -0.995  17.207  1.00  0.00     0.037 A 
HETATM   20  C1  UNK     1      18.910   0.378  17.674  1.00  0.00    -0.001 A 
HETATM   21  C3  UNK     1      19.151   1.387  16.747  1.00  0.00     0.089 A 
HETATM   22  C7  UNK     1      18.786   0.718  19.024  1.00  0.00     0.014 A 
HETATM   23  O1  UNK     1      19.282   1.083  15.378  1.00  0.00    -0.274 OA
HETATM   24  C9  UNK     1      19.269   2.722  17.129  1.00  0.00     0.038 A 
HETATM   25  C8  UNK     1      19.178  -0.220  14.901  1.00  0.00     0.304 A 
HETATM   26  O4  UNK     1      19.294  -0.475  13.707  1.00  0.00    -0.259 OA
HETATM   27  C14 UNK     1      19.144   3.052  18.477  1.00  0.00     0.003 A 
HETATM   28  C13 UNK     1      18.903   2.054  19.422  1.00  0.00     0.001 A 
ENDBRANCH   3  18
TORSDOF 4
ENDMDL
MODEL 10
REMARK VINA RESULT:      -8.8      5.079     11.167
REMARK  4 active torsions:
REMARK  status: ('A' for Active; 'I' for Inactive)
REMARK    1  A    between atoms: C10_15  and  O2_2 
REMARK    2  A    between atoms: C17_22  and  O2_2 
REMARK    3  A    between atoms: C5_10  and  N1_5 
REMARK       I    between atoms: C6_11  and  N1_5 
REMARK    4  A    between atoms: C2_7  and  C6_11 
ROOT
HETATM    1  O3  UNK     1      17.732  -0.588  33.162  1.00  0.00    -0.267 OA
HETATM    2  N1  UNK     1      19.106  -0.025  34.990  1.00  0.00    -0.323 N 
HETATM    3  C6  UNK     1      18.358   0.220  33.847  1.00  0.00     0.262 C 
HETATM    4  H3  UNK     1      19.549   0.763  35.457  1.00  0.00     0.169 HD
ENDROOT
BRANCH   2   5
HETATM    5  C5  UNK     1      19.319  -1.269  35.633  1.00  0.00     0.035 A 
HETATM    6  C11 UNK     1      20.560  -1.875  35.538  1.00  0.00     0.032 A 
HETATM    7  C15 UNK     1      20.770  -3.101  36.169  1.00  0.00     0.039 A 
HETATM    8  C10 UNK     1      19.736  -3.702  36.887  1.00  0.00     0.076 A 
HETATM    9  C16 UNK     1      18.492  -3.077  36.973  1.00  0.00     0.039 A 
HETATM   10  C12 UNK     1      18.282  -1.851  36.341  1.00  0.00     0.032 A 
BRANCH   8  11
HETATM   11  O2  UNK     1      19.940  -4.898  37.504  1.00  0.00    -0.311 OA
BRANCH  11  12
HETATM   12  C17 UNK     1      20.282  -5.981  36.711  1.00  0.00     0.076 A 
HETATM   13  C18 UNK     1      19.728  -6.093  35.449  1.00  0.00     0.037 A 
HETATM   14  C20 UNK     1      20.070  -7.185  34.651  1.00  0.00     0.003 A 
HETATM   15  C22 UNK     1      20.962  -8.146  35.129  1.00  0.00     0.000 A 
HETATM   16  C21 UNK     1      21.510  -8.014  36.405  1.00  0.00     0.003 A 
HETATM   17  C19 UNK     1      21.167  -6.923  37.203  1.00  0.00     0.037 A 
ENDBRANCH  11  12
ENDBRANCH   8  11
ENDBRANCH   2   5
BRANCH   3  18
HETATM   18  C2  UNK     1      18.362   1.639  33.475  1.00  0.00     0.108 A 
HETATM   19  C4  UNK     1      18.555   1.911  32.180  1.00  0.00     0.037 A 
HETATM   20  C1  UNK     1      18.576   3.290  31.714  1.00  0.00    -0.001 A 
HETATM   21  C3  UNK     1      18.392   4.314  32.637  1.00  0.00     0.089 A 
HETATM   22  C7  UNK     1      18.774   3.619  30.371  1.00  0.00     0.014 A 
HETATM   23  O1  UNK     1      18.190   4.022  33.999  1.00  0.00    -0.274 OA
HETATM   24  C9  UNK     1      18.402   5.655  32.256  1.00  0.00     0.038 A 
HETATM   25  C8  UNK     1      18.165   2.714  34.475  1.00  0.00     0.304 A 
HETATM   26  O4  UNK     1      17.988   2.469  35.664  1.00  0.00    -0.259 OA
HETATM   27  C14 UNK     1      18.600   5.975  30.915  1.00  0.00     0.003 A 
HETATM   28  C13 UNK     1      18.786   4.960  29.974  1.00  0.00     0.001 A 
ENDBRANCH   3  18
TORSDOF 4
ENDMDL
