MODEL 1
REMARK VINA RESULT:      -8.7      0.000      0.000
REMARK  7 active torsions:
REMARK  status: ('A' for Active; 'I' for Inactive)
REMARK    1  A    between atoms: C12_19  and  O1_1 
REMARK    2  A    between atoms: C2_9  and  O1_1 
REMARK    3  A    between atoms: C15_22  and  N1_6 
REMARK    4  A    between atoms: C1_8  and  C3_10 
REMARK    5  A    between atoms: C12_19  and  C5_12 
REMARK    6  A    between atoms: C11_18  and  C7_14 
REMARK    7  A    between atoms: C11_18  and  C8_15 
ROOT
HETATM    1  N2  UNK     1      31.683  -8.315  35.972  1.00  0.00    -0.191 NA
HETATM    2  C3  UNK     1      28.532  -6.798  35.755  1.00  0.00     0.041 C 
HETATM    3  C7  UNK     1      29.650  -7.017  35.038  1.00  0.00     0.096 C 
HETATM    4  C23 UNK     1      30.769  -7.735  35.553  1.00  0.00     0.103 C 
ENDROOT
BRANCH   3   5
HETATM    5  C11 UNK     1      29.708  -6.411  33.655  1.00  0.00     0.202 C 
HETATM    6  O2  UNK     1      30.475  -5.470  33.404  1.00  0.00    -0.286 OA
BRANCH   5   7
HETATM    7  C8  UNK     1      28.869  -6.956  32.600  1.00  0.00     0.015 A 
HETATM    8  C18 UNK     1      29.112  -8.239  32.109  1.00  0.00     0.015 A 
HETATM    9  C20 UNK     1      28.308  -8.762  31.096  1.00  0.00     0.001 A 
HETATM   10  C22 UNK     1      27.260  -8.002  30.574  1.00  0.00     0.000 A 
HETATM   11  C21 UNK     1      27.018  -6.719  31.066  1.00  0.00     0.001 A 
HETATM   12  C19 UNK     1      27.823  -6.197  32.078  1.00  0.00     0.015 A 
ENDBRANCH   5   7
ENDBRANCH   3   5
BRANCH   2  13
HETATM   13  C1  UNK     1      28.299  -7.249  37.136  1.00  0.00    -0.001 A 
HETATM   14  C2  UNK     1      28.327  -6.344  38.188  1.00  0.00     0.089 A 
HETATM   15  C6  UNK     1      28.103  -6.796  39.488  1.00  0.00     0.038 A 
HETATM   16  C10 UNK     1      27.852  -8.147  39.724  1.00  0.00     0.003 A 
HETATM   17  C9  UNK     1      27.826  -9.047  38.659  1.00  0.00     0.001 A 
HETATM   18  C4  UNK     1      28.051  -8.596  37.358  1.00  0.00     0.014 A 
BRANCH  14  19
HETATM   19  O1  UNK     1      28.569  -5.017  37.985  1.00  0.00    -0.274 OA
BRANCH  19  20
HETATM   20  C12 UNK     1      29.638  -4.510  38.728  1.00  0.00     0.298 C 
HETATM   21  O3  UNK     1      29.555  -3.973  39.822  1.00  0.00    -0.259 OA
BRANCH  20  22
HETATM   22  C5  UNK     1      30.922  -4.689  38.005  1.00  0.00     0.040 A 
HETATM   23  C13 UNK     1      31.888  -5.505  38.556  1.00  0.00     0.020 A 
HETATM   24  C16 UNK     1      33.096  -5.672  37.878  1.00  0.00     0.037 A 
HETATM   25  C15 UNK     1      33.311  -5.020  36.664  1.00  0.00     0.102 A 
HETATM   26  C17 UNK     1      32.319  -4.199  36.128  1.00  0.00     0.037 A 
HETATM   27  C14 UNK     1      31.111  -4.032  36.806  1.00  0.00     0.020 A 
BRANCH  25  28
HETATM   28  N1  UNK     1      34.541  -5.189  35.975  1.00  0.00    -0.116 N 
HETATM   29  O4  UNK     1      34.676  -4.678  34.837  1.00  0.00    -0.532 OA
HETATM   30  O5  UNK     1      35.459  -5.846  36.523  1.00  0.00    -0.532 OA
ENDBRANCH  25  28
ENDBRANCH  20  22
ENDBRANCH  19  20
ENDBRANCH  14  19
ENDBRANCH   2  13
TORSDOF 7
ENDMDL
MODEL 2
REMARK VINA RESULT:      -8.7     12.742     15.354
REMARK  7 active torsions:
REMARK  status: ('A' for Active; 'I' for Inactive)
REMARK    1  A    between atoms: C12_19  and  O1_1 
REMARK    2  A    between atoms: C2_9  and  O1_1 
REMARK    3  A    between atoms: C15_22  and  N1_6 
REMARK    4  A    between atoms: C1_8  and  C3_10 
REMARK    5  A    between atoms: C12_19  and  C5_12 
REMARK    6  A    between atoms: C11_18  and  C7_14 
REMARK    7  A    between atoms: C11_18  and  C8_15 
ROOT
HETATM    1  N2  UNK     1      17.903   2.310  28.054  1.00  0.00    -0.191 NA
HETATM    2  C3  UNK     1      19.074   1.546  31.267  1.00  0.00     0.041 C 
HETATM    3  C7  UNK     1      18.408   2.496  30.585  1.00  0.00     0.096 C 
HETATM    4  C23 UNK     1      18.128   2.391  29.190  1.00  0.00     0.103 C 
ENDROOT
BRANCH   3   5
HETATM    5  C11 UNK     1      18.008   3.737  31.348  1.00  0.00     0.202 C 
HETATM    6  O2  UNK     1      16.824   3.942  31.653  1.00  0.00    -0.286 OA
BRANCH   5   7
HETATM    7  C8  UNK     1      19.030   4.690  31.748  1.00  0.00     0.015 A 
HETATM    8  C18 UNK     1      19.029   5.211  33.042  1.00  0.00     0.015 A 
HETATM    9  C20 UNK     1      20.009   6.127  33.426  1.00  0.00     0.001 A 
HETATM   10  C22 UNK     1      20.992   6.519  32.517  1.00  0.00     0.000 A 
HETATM   11  C21 UNK     1      20.993   5.997  31.223  1.00  0.00     0.001 A 
HETATM   12  C19 UNK     1      20.012   5.082  30.839  1.00  0.00     0.015 A 
ENDBRANCH   5   7
ENDBRANCH   3   5
BRANCH   2  13
HETATM   13  C1  UNK     1      19.600   0.295  30.700  1.00  0.00    -0.001 A 
HETATM   14  C2  UNK     1      19.296  -0.928  31.284  1.00  0.00     0.089 A 
HETATM   15  C6  UNK     1      19.807  -2.100  30.728  1.00  0.00     0.038 A 
HETATM   16  C10 UNK     1      20.616  -2.040  29.594  1.00  0.00     0.003 A 
HETATM   17  C9  UNK     1      20.915  -0.806  29.016  1.00  0.00     0.001 A 
HETATM   18  C4  UNK     1      20.405   0.367  29.572  1.00  0.00     0.014 A 
BRANCH  14  19
HETATM   19  O1  UNK     1      18.507  -1.015  32.393  1.00  0.00    -0.274 OA
BRANCH  19  20
HETATM   20  C12 UNK     1      19.192  -1.371  33.557  1.00  0.00     0.298 C 
HETATM   21  O3  UNK     1      20.099  -2.186  33.630  1.00  0.00    -0.259 OA
BRANCH  20  22
HETATM   22  C5  UNK     1      18.664  -0.634  34.732  1.00  0.00     0.040 A 
HETATM   23  C13 UNK     1      18.352   0.702  34.596  1.00  0.00     0.020 A 
HETATM   24  C16 UNK     1      17.856   1.395  35.701  1.00  0.00     0.037 A 
HETATM   25  C15 UNK     1      17.684   0.736  36.918  1.00  0.00     0.102 A 
HETATM   26  C17 UNK     1      18.009  -0.615  37.031  1.00  0.00     0.037 A 
HETATM   27  C14 UNK     1      18.504  -1.309  35.926  1.00  0.00     0.020 A 
BRANCH  25  28
HETATM   28  N1  UNK     1      17.182   1.442  38.043  1.00  0.00    -0.116 N 
HETATM   29  O4  UNK     1      16.051   1.981  37.967  1.00  0.00    -0.532 OA
HETATM   30  O5  UNK     1      17.883   1.508  39.082  1.00  0.00    -0.532 OA
ENDBRANCH  25  28
ENDBRANCH  20  22
ENDBRANCH  19  20
ENDBRANCH  14  19
ENDBRANCH   2  13
TORSDOF 7
ENDMDL
MODEL 3
REMARK VINA RESULT:      -8.6     12.831     15.248
REMARK  7 active torsions:
REMARK  status: ('A' for Active; 'I' for Inactive)
REMARK    1  A    between atoms: C12_19  and  O1_1 
REMARK    2  A    between atoms: C2_9  and  O1_1 
REMARK    3  A    between atoms: C15_22  and  N1_6 
REMARK    4  A    between atoms: C1_8  and  C3_10 
REMARK    5  A    between atoms: C12_19  and  C5_12 
REMARK    6  A    between atoms: C11_18  and  C7_14 
REMARK    7  A    between atoms: C11_18  and  C8_15 
ROOT
HETATM    1  N2  UNK     1      22.189  -2.094  33.839  1.00  0.00    -0.191 NA
HETATM    2  C3  UNK     1      18.910  -1.224  32.960  1.00  0.00     0.041 C 
HETATM    3  C7  UNK     1      19.647  -1.642  34.006  1.00  0.00     0.096 C 
HETATM    4  C23 UNK     1      21.049  -1.888  33.914  1.00  0.00     0.103 C 
ENDROOT
BRANCH   3   5
HETATM    5  C11 UNK     1      18.914  -1.909  35.300  1.00  0.00     0.202 C 
HETATM    6  O2  UNK     1      19.163  -2.916  35.977  1.00  0.00    -0.286 OA
BRANCH   5   7
HETATM    7  C8  UNK     1      17.919  -0.956  35.767  1.00  0.00     0.015 A 
HETATM    8  C18 UNK     1      18.261  -0.007  36.730  1.00  0.00     0.015 A 
HETATM    9  C20 UNK     1      17.306   0.906  37.179  1.00  0.00     0.001 A 
HETATM   10  C22 UNK     1      16.010   0.870  36.663  1.00  0.00     0.000 A 
HETATM   11  C21 UNK     1      15.669  -0.080  35.700  1.00  0.00     0.001 A 
HETATM   12  C19 UNK     1      16.624  -0.993  35.253  1.00  0.00     0.015 A 
ENDBRANCH   5   7
ENDBRANCH   3   5
BRANCH   2  13
HETATM   13  C1  UNK     1      19.418  -0.964  31.604  1.00  0.00    -0.001 A 
HETATM   14  C2  UNK     1      19.342   0.307  31.053  1.00  0.00     0.089 A 
HETATM   15  C6  UNK     1      19.831   0.528  29.766  1.00  0.00     0.038 A 
HETATM   16  C10 UNK     1      20.391  -0.524  29.042  1.00  0.00     0.003 A 
HETATM   17  C9  UNK     1      20.462  -1.798  29.606  1.00  0.00     0.001 A 
HETATM   18  C4  UNK     1      19.973  -2.019  30.893  1.00  0.00     0.014 A 
BRANCH  14  19
HETATM   19  O1  UNK     1      18.800   1.354  31.739  1.00  0.00    -0.274 OA
BRANCH  19  20
HETATM   20  C12 UNK     1      18.215   2.329  30.928  1.00  0.00     0.298 C 
HETATM   21  O3  UNK     1      17.608   2.122  29.888  1.00  0.00    -0.259 OA
BRANCH  20  22
HETATM   22  C5  UNK     1      18.437   3.687  31.484  1.00  0.00     0.040 A 
HETATM   23  C13 UNK     1      18.019   3.957  32.770  1.00  0.00     0.020 A 
HETATM   24  C16 UNK     1      18.226   5.235  33.292  1.00  0.00     0.037 A 
HETATM   25  C15 UNK     1      18.846   6.214  32.516  1.00  0.00     0.102 A 
HETATM   26  C17 UNK     1      19.258   5.916  31.217  1.00  0.00     0.037 A 
HETATM   27  C14 UNK     1      19.051   4.639  30.695  1.00  0.00     0.020 A 
BRANCH  25  28
HETATM   28  N1  UNK     1      19.055   7.514  33.047  1.00  0.00    -0.116 N 
HETATM   29  O4  UNK     1      20.147   7.773  33.608  1.00  0.00    -0.532 OA
HETATM   30  O5  UNK     1      18.142   8.368  32.941  1.00  0.00    -0.532 OA
ENDBRANCH  25  28
ENDBRANCH  20  22
ENDBRANCH  19  20
ENDBRANCH  14  19
ENDBRANCH   2  13
TORSDOF 7
ENDMDL
MODEL 4
REMARK VINA RESULT:      -8.6     14.306     16.815
REMARK  7 active torsions:
REMARK  status: ('A' for Active; 'I' for Inactive)
REMARK    1  A    between atoms: C12_19  and  O1_1 
REMARK    2  A    between atoms: C2_9  and  O1_1 
REMARK    3  A    between atoms: C15_22  and  N1_6 
REMARK    4  A    between atoms: C1_8  and  C3_10 
REMARK    5  A    between atoms: C12_19  and  C5_12 
REMARK    6  A    between atoms: C11_18  and  C7_14 
REMARK    7  A    between atoms: C11_18  and  C8_15 
ROOT
HETATM    1  N2  UNK     1      19.970   5.641  29.983  1.00  0.00    -0.191 NA
HETATM    2  C3  UNK     1      18.159   3.248  31.791  1.00  0.00     0.041 C 
HETATM    3  C7  UNK     1      18.603   4.516  31.870  1.00  0.00     0.096 C 
HETATM    4  C23 UNK     1      19.354   5.136  30.828  1.00  0.00     0.103 C 
ENDROOT
BRANCH   3   5
HETATM    5  C11 UNK     1      18.327   5.262  33.154  1.00  0.00     0.202 C 
HETATM    6  O2  UNK     1      19.063   5.124  34.142  1.00  0.00    -0.286 OA
BRANCH   5   7
HETATM    7  C8  UNK     1      17.195   6.173  33.222  1.00  0.00     0.015 A 
HETATM    8  C18 UNK     1      16.343   6.309  32.126  1.00  0.00     0.015 A 
HETATM    9  C20 UNK     1      15.258   7.183  32.191  1.00  0.00     0.001 A 
HETATM   10  C22 UNK     1      15.025   7.921  33.352  1.00  0.00     0.000 A 
HETATM   11  C21 UNK     1      15.878   7.785  34.448  1.00  0.00     0.001 A 
HETATM   12  C19 UNK     1      16.963   6.911  34.382  1.00  0.00     0.015 A 
ENDBRANCH   5   7
ENDBRANCH   3   5
BRANCH   2  13
HETATM   13  C1  UNK     1      18.372   2.334  30.658  1.00  0.00    -0.001 A 
HETATM   14  C2  UNK     1      19.035   1.128  30.838  1.00  0.00     0.089 A 
HETATM   15  C6  UNK     1      19.225   0.279  29.749  1.00  0.00     0.038 A 
HETATM   16  C10 UNK     1      18.750   0.643  28.489  1.00  0.00     0.003 A 
HETATM   17  C9  UNK     1      18.084   1.857  28.319  1.00  0.00     0.001 A 
HETATM   18  C4  UNK     1      17.895   2.707  29.410  1.00  0.00     0.014 A 
BRANCH  14  19
HETATM   19  O1  UNK     1      19.510   0.748  32.059  1.00  0.00    -0.274 OA
BRANCH  19  20
HETATM   20  C12 UNK     1      18.749  -0.241  32.687  1.00  0.00     0.298 C 
HETATM   21  O3  UNK     1      18.461  -1.329  32.212  1.00  0.00    -0.259 OA
BRANCH  20  22
HETATM   22  C5  UNK     1      18.304   0.203  34.031  1.00  0.00     0.040 A 
HETATM   23  C13 UNK     1      17.547  -0.657  34.799  1.00  0.00     0.020 A 
HETATM   24  C16 UNK     1      17.126  -0.240  36.063  1.00  0.00     0.037 A 
HETATM   25  C15 UNK     1      17.472   1.029  36.530  1.00  0.00     0.102 A 
HETATM   26  C17 UNK     1      18.236   1.880  35.733  1.00  0.00     0.037 A 
HETATM   27  C14 UNK     1      18.657   1.463  34.469  1.00  0.00     0.020 A 
BRANCH  25  28
HETATM   28  N1  UNK     1      17.042   1.453  37.815  1.00  0.00    -0.116 N 
HETATM   29  O4  UNK     1      15.918   1.999  37.930  1.00  0.00    -0.532 OA
HETATM   30  O5  UNK     1      17.798   1.271  38.799  1.00  0.00    -0.532 OA
ENDBRANCH  25  28
ENDBRANCH  20  22
ENDBRANCH  19  20
ENDBRANCH  14  19
ENDBRANCH   2  13
TORSDOF 7
ENDMDL
MODEL 5
REMARK VINA RESULT:      -8.5      2.768      5.794
REMARK  7 active torsions:
REMARK  status: ('A' for Active; 'I' for Inactive)
REMARK    1  A    between atoms: C12_19  and  O1_1 
REMARK    2  A    between atoms: C2_9  and  O1_1 
REMARK    3  A    between atoms: C15_22  and  N1_6 
REMARK    4  A    between atoms: C1_8  and  C3_10 
REMARK    5  A    between atoms: C12_19  and  C5_12 
REMARK    6  A    between atoms: C11_18  and  C7_14 
REMARK    7  A    between atoms: C11_18  and  C8_15 
ROOT
HETATM    1  N2  UNK     1      26.049  -5.015  38.758  1.00  0.00    -0.191 NA
HETATM    2  C3  UNK     1      28.997  -6.909  38.726  1.00  0.00     0.041 C 
HETATM    3  C7  UNK     1      28.553  -5.649  38.894  1.00  0.00     0.096 C 
HETATM    4  C23 UNK     1      27.172  -5.301  38.822  1.00  0.00     0.103 C 
ENDROOT
BRANCH   3   5
HETATM    5  C11 UNK     1      29.596  -4.576  39.106  1.00  0.00     0.202 C 
HETATM    6  O2  UNK     1      29.487  -3.757  40.031  1.00  0.00    -0.286 OA
BRANCH   5   7
HETATM    7  C8  UNK     1      30.753  -4.520  38.227  1.00  0.00     0.015 A 
HETATM    8  C18 UNK     1      30.815  -3.559  37.219  1.00  0.00     0.015 A 
HETATM    9  C20 UNK     1      31.925  -3.505  36.375  1.00  0.00     0.001 A 
HETATM   10  C22 UNK     1      32.972  -4.412  36.540  1.00  0.00     0.000 A 
HETATM   11  C21 UNK     1      32.908  -5.373  37.550  1.00  0.00     0.001 A 
HETATM   12  C19 UNK     1      31.798  -5.427  38.393  1.00  0.00     0.015 A 
ENDBRANCH   5   7
ENDBRANCH   3   5
BRANCH   2  13
HETATM   13  C1  UNK     1      28.155  -8.083  38.451  1.00  0.00    -0.001 A 
HETATM   14  C2  UNK     1      27.652  -8.308  37.177  1.00  0.00     0.089 A 
HETATM   15  C6  UNK     1      26.857  -9.429  36.941  1.00  0.00     0.038 A 
HETATM   16  C10 UNK     1      26.572 -10.314  37.980  1.00  0.00     0.003 A 
HETATM   17  C9  UNK     1      27.084 -10.079  39.257  1.00  0.00     0.001 A 
HETATM   18  C4  UNK     1      27.879  -8.957  39.493  1.00  0.00     0.014 A 
BRANCH  14  19
HETATM   19  O1  UNK     1      27.915  -7.459  36.143  1.00  0.00    -0.274 OA
BRANCH  19  20
HETATM   20  C12 UNK     1      28.912  -7.905  35.274  1.00  0.00     0.298 C 
HETATM   21  O3  UNK     1      29.505  -8.970  35.355  1.00  0.00    -0.259 OA
BRANCH  20  22
HETATM   22  C5  UNK     1      29.190  -6.898  34.219  1.00  0.00     0.040 A 
HETATM   23  C13 UNK     1      28.235  -6.667  33.252  1.00  0.00     0.020 A 
HETATM   24  C16 UNK     1      28.496  -5.722  32.259  1.00  0.00     0.037 A 
HETATM   25  C15 UNK     1      29.706  -5.029  32.255  1.00  0.00     0.102 A 
HETATM   26  C17 UNK     1      30.657  -5.283  33.244  1.00  0.00     0.037 A 
HETATM   27  C14 UNK     1      30.396  -6.228  34.237  1.00  0.00     0.020 A 
BRANCH  25  28
HETATM   28  N1  UNK     1      29.972  -4.069  31.244  1.00  0.00    -0.116 N 
HETATM   29  O4  UNK     1      30.036  -4.447  30.049  1.00  0.00    -0.532 OA
HETATM   30  O5  UNK     1      30.136  -2.869  31.573  1.00  0.00    -0.532 OA
ENDBRANCH  25  28
ENDBRANCH  20  22
ENDBRANCH  19  20
ENDBRANCH  14  19
ENDBRANCH   2  13
TORSDOF 7
ENDMDL
MODEL 6
REMARK VINA RESULT:      -8.5     12.030     13.805
REMARK  7 active torsions:
REMARK  status: ('A' for Active; 'I' for Inactive)
REMARK    1  A    between atoms: C12_19  and  O1_1 
REMARK    2  A    between atoms: C2_9  and  O1_1 
REMARK    3  A    between atoms: C15_22  and  N1_6 
REMARK    4  A    between atoms: C1_8  and  C3_10 
REMARK    5  A    between atoms: C12_19  and  C5_12 
REMARK    6  A    between atoms: C11_18  and  C7_14 
REMARK    7  A    between atoms: C11_18  and  C8_15 
ROOT
HETATM    1  N2  UNK     1      22.491  -1.734  35.532  1.00  0.00    -0.191 NA
HETATM    2  C3  UNK     1      19.248  -1.832  34.208  1.00  0.00     0.041 C 
HETATM    3  C7  UNK     1      20.521  -2.150  33.907  1.00  0.00     0.096 C 
HETATM    4  C23 UNK     1      21.607  -1.923  34.804  1.00  0.00     0.103 C 
ENDROOT
BRANCH   3   5
HETATM    5  C11 UNK     1      20.781  -2.714  32.530  1.00  0.00     0.202 C 
HETATM    6  O2  UNK     1      21.144  -3.890  32.382  1.00  0.00    -0.286 OA
BRANCH   5   7
HETATM    7  C8  UNK     1      20.581  -1.871  31.363  1.00  0.00     0.015 A 
HETATM    8  C18 UNK     1      20.372  -2.450  30.111  1.00  0.00     0.015 A 
HETATM    9  C20 UNK     1      20.181  -1.641  28.991  1.00  0.00     0.001 A 
HETATM   10  C22 UNK     1      20.197  -0.252  29.123  1.00  0.00     0.000 A 
HETATM   11  C21 UNK     1      20.406   0.327  30.375  1.00  0.00     0.001 A 
HETATM   12  C19 UNK     1      20.598  -0.483  31.494  1.00  0.00     0.015 A 
ENDBRANCH   5   7
ENDBRANCH   3   5
BRANCH   2  13
HETATM   13  C1  UNK     1      18.793  -1.221  35.466  1.00  0.00    -0.001 A 
HETATM   14  C2  UNK     1      18.638   0.155  35.567  1.00  0.00     0.089 A 
HETATM   15  C6  UNK     1      18.205   0.711  36.769  1.00  0.00     0.038 A 
HETATM   16  C10 UNK     1      17.930  -0.113  37.861  1.00  0.00     0.003 A 
HETATM   17  C9  UNK     1      18.090  -1.494  37.748  1.00  0.00     0.001 A 
HETATM   18  C4  UNK     1      18.524  -2.050  36.545  1.00  0.00     0.014 A 
BRANCH  14  19
HETATM   19  O1  UNK     1      18.898   0.984  34.515  1.00  0.00    -0.274 OA
BRANCH  19  20
HETATM   20  C12 UNK     1      17.758   1.477  33.878  1.00  0.00     0.298 C 
HETATM   21  O3  UNK     1      16.631   1.015  33.973  1.00  0.00    -0.259 OA
BRANCH  20  22
HETATM   22  C5  UNK     1      18.086   2.652  33.032  1.00  0.00     0.040 A 
HETATM   23  C13 UNK     1      18.246   2.471  31.674  1.00  0.00     0.020 A 
HETATM   24  C16 UNK     1      18.556   3.575  30.879  1.00  0.00     0.037 A 
HETATM   25  C15 UNK     1      18.700   4.835  31.459  1.00  0.00     0.102 A 
HETATM   26  C17 UNK     1      18.536   4.991  32.835  1.00  0.00     0.037 A 
HETATM   27  C14 UNK     1      18.225   3.888  33.631  1.00  0.00     0.020 A 
BRANCH  25  28
HETATM   28  N1  UNK     1      19.018   5.957  30.650  1.00  0.00    -0.116 N 
HETATM   29  O4  UNK     1      20.136   6.001  30.083  1.00  0.00    -0.532 OA
HETATM   30  O5  UNK     1      18.171   6.875  30.524  1.00  0.00    -0.532 OA
ENDBRANCH  25  28
ENDBRANCH  20  22
ENDBRANCH  19  20
ENDBRANCH  14  19
ENDBRANCH   2  13
TORSDOF 7
ENDMDL
MODEL 7
REMARK VINA RESULT:      -8.3      3.005      6.375
REMARK  7 active torsions:
REMARK  status: ('A' for Active; 'I' for Inactive)
REMARK    1  A    between atoms: C12_19  and  O1_1 
REMARK    2  A    between atoms: C2_9  and  O1_1 
REMARK    3  A    between atoms: C15_22  and  N1_6 
REMARK    4  A    between atoms: C1_8  and  C3_10 
REMARK    5  A    between atoms: C12_19  and  C5_12 
REMARK    6  A    between atoms: C11_18  and  C7_14 
REMARK    7  A    between atoms: C11_18  and  C8_15 
ROOT
HETATM    1  N2  UNK     1      26.172  -5.066  38.701  1.00  0.00    -0.191 NA
HETATM    2  C3  UNK     1      29.138  -6.919  38.924  1.00  0.00     0.041 C 
HETATM    3  C7  UNK     1      28.677  -5.655  38.967  1.00  0.00     0.096 C 
HETATM    4  C23 UNK     1      27.296  -5.331  38.823  1.00  0.00     0.103 C 
ENDROOT
BRANCH   3   5
HETATM    5  C11 UNK     1      29.702  -4.554  39.118  1.00  0.00     0.202 C 
HETATM    6  O2  UNK     1      29.584  -3.691  39.999  1.00  0.00    -0.286 OA
BRANCH   5   7
HETATM    7  C8  UNK     1      30.854  -4.524  38.230  1.00  0.00     0.015 A 
HETATM    8  C18 UNK     1      30.893  -3.620  37.169  1.00  0.00     0.015 A 
HETATM    9  C20 UNK     1      31.997  -3.592  36.317  1.00  0.00     0.001 A 
HETATM   10  C22 UNK     1      33.063  -4.468  36.527  1.00  0.00     0.000 A 
HETATM   11  C21 UNK     1      33.023  -5.372  37.589  1.00  0.00     0.001 A 
HETATM   12  C19 UNK     1      31.918  -5.400  38.440  1.00  0.00     0.015 A 
ENDBRANCH   5   7
ENDBRANCH   3   5
BRANCH   2  13
HETATM   13  C1  UNK     1      28.317  -8.123  38.726  1.00  0.00    -0.001 A 
HETATM   14  C2  UNK     1      28.257  -8.740  37.484  1.00  0.00     0.089 A 
HETATM   15  C6  UNK     1      27.472  -9.881  37.322  1.00  0.00     0.038 A 
HETATM   16  C10 UNK     1      26.755 -10.394  38.402  1.00  0.00     0.003 A 
HETATM   17  C9  UNK     1      26.823  -9.766  39.646  1.00  0.00     0.001 A 
HETATM   18  C4  UNK     1      27.608  -8.624  39.808  1.00  0.00     0.014 A 
BRANCH  14  19
HETATM   19  O1  UNK     1      28.948  -8.259  36.411  1.00  0.00    -0.274 OA
BRANCH  19  20
HETATM   20  C12 UNK     1      28.154  -7.614  35.461  1.00  0.00     0.298 C 
HETATM   21  O3  UNK     1      27.321  -6.751  35.694  1.00  0.00    -0.259 OA
BRANCH  20  22
HETATM   22  C5  UNK     1      28.435  -8.125  34.096  1.00  0.00     0.040 A 
HETATM   23  C13 UNK     1      28.863  -9.428  33.948  1.00  0.00     0.020 A 
HETATM   24  C16 UNK     1      29.129  -9.909  32.665  1.00  0.00     0.037 A 
HETATM   25  C15 UNK     1      28.962  -9.076  31.559  1.00  0.00     0.102 A 
HETATM   26  C17 UNK     1      28.529  -7.761  31.735  1.00  0.00     0.037 A 
HETATM   27  C14 UNK     1      28.263  -7.281  33.018  1.00  0.00     0.020 A 
BRANCH  25  28
HETATM   28  N1  UNK     1      29.234  -9.565  30.254  1.00  0.00    -0.116 N 
HETATM   29  O4  UNK     1      29.848 -10.652  30.128  1.00  0.00    -0.532 OA
HETATM   30  O5  UNK     1      28.854  -8.896  29.263  1.00  0.00    -0.532 OA
ENDBRANCH  25  28
ENDBRANCH  20  22
ENDBRANCH  19  20
ENDBRANCH  14  19
ENDBRANCH   2  13
TORSDOF 7
ENDMDL
MODEL 8
REMARK VINA RESULT:      -8.1      2.692      5.155
REMARK  7 active torsions:
REMARK  status: ('A' for Active; 'I' for Inactive)
REMARK    1  A    between atoms: C12_19  and  O1_1 
REMARK    2  A    between atoms: C2_9  and  O1_1 
REMARK    3  A    between atoms: C15_22  and  N1_6 
REMARK    4  A    between atoms: C1_8  and  C3_10 
REMARK    5  A    between atoms: C12_19  and  C5_12 
REMARK    6  A    between atoms: C11_18  and  C7_14 
REMARK    7  A    between atoms: C11_18  and  C8_15 
ROOT
HETATM    1  N2  UNK     1      26.172  -4.957  38.612  1.00  0.00    -0.191 NA
HETATM    2  C3  UNK     1      29.079  -6.896  38.878  1.00  0.00     0.041 C 
HETATM    3  C7  UNK     1      28.654  -5.619  38.918  1.00  0.00     0.096 C 
HETATM    4  C23 UNK     1      27.285  -5.255  38.752  1.00  0.00     0.103 C 
ENDROOT
BRANCH   3   5
HETATM    5  C11 UNK     1      29.708  -4.549  39.089  1.00  0.00     0.202 C 
HETATM    6  O2  UNK     1      29.578  -3.659  39.942  1.00  0.00    -0.286 OA
BRANCH   5   7
HETATM    7  C8  UNK     1      30.900  -4.581  38.258  1.00  0.00     0.015 A 
HETATM    8  C18 UNK     1      31.942  -5.456  38.565  1.00  0.00     0.015 A 
HETATM    9  C20 UNK     1      33.086  -5.485  37.767  1.00  0.00     0.001 A 
HETATM   10  C22 UNK     1      33.187  -4.641  36.661  1.00  0.00     0.000 A 
HETATM   11  C21 UNK     1      32.145  -3.766  36.354  1.00  0.00     0.001 A 
HETATM   12  C19 UNK     1      31.001  -3.737  37.153  1.00  0.00     0.015 A 
ENDBRANCH   5   7
ENDBRANCH   3   5
BRANCH   2  13
HETATM   13  C1  UNK     1      28.227  -8.075  38.662  1.00  0.00    -0.001 A 
HETATM   14  C2  UNK     1      28.336  -8.822  37.497  1.00  0.00     0.089 A 
HETATM   15  C6  UNK     1      27.517  -9.935  37.317  1.00  0.00     0.038 A 
HETATM   16  C10 UNK     1      26.597 -10.293  38.301  1.00  0.00     0.003 A 
HETATM   17  C9  UNK     1      26.495  -9.535  39.468  1.00  0.00     0.001 A 
HETATM   18  C4  UNK     1      27.314  -8.420  39.649  1.00  0.00     0.014 A 
BRANCH  14  19
HETATM   19  O1  UNK     1      29.228  -8.495  36.519  1.00  0.00    -0.274 OA
BRANCH  19  20
HETATM   20  C12 UNK     1      30.508  -9.016  36.712  1.00  0.00     0.298 C 
HETATM   21  O3  UNK     1      30.814  -9.875  37.526  1.00  0.00    -0.259 OA
BRANCH  20  22
HETATM   22  C5  UNK     1      31.489  -8.375  35.801  1.00  0.00     0.040 A 
HETATM   23  C13 UNK     1      32.810  -8.764  35.864  1.00  0.00     0.020 A 
HETATM   24  C16 UNK     1      33.733  -8.160  35.009  1.00  0.00     0.037 A 
HETATM   25  C15 UNK     1      33.313  -7.181  34.109  1.00  0.00     0.102 A 
HETATM   26  C17 UNK     1      31.970  -6.804  34.065  1.00  0.00     0.037 A 
HETATM   27  C14 UNK     1      31.048  -7.408  34.920  1.00  0.00     0.020 A 
BRANCH  25  28
HETATM   28  N1  UNK     1      34.252  -6.566  33.239  1.00  0.00    -0.116 N 
HETATM   29  O4  UNK     1      34.917  -5.587  33.657  1.00  0.00    -0.532 OA
HETATM   30  O5  UNK     1      34.390  -7.017  32.077  1.00  0.00    -0.532 OA
ENDBRANCH  25  28
ENDBRANCH  20  22
ENDBRANCH  19  20
ENDBRANCH  14  19
ENDBRANCH   2  13
TORSDOF 7
ENDMDL
MODEL 9
REMARK VINA RESULT:      -8.0     12.240     14.807
REMARK  7 active torsions:
REMARK  status: ('A' for Active; 'I' for Inactive)
REMARK    1  A    between atoms: C12_19  and  O1_1 
REMARK    2  A    between atoms: C2_9  and  O1_1 
REMARK    3  A    between atoms: C15_22  and  N1_6 
REMARK    4  A    between atoms: C1_8  and  C3_10 
REMARK    5  A    between atoms: C12_19  and  C5_12 
REMARK    6  A    between atoms: C11_18  and  C7_14 
REMARK    7  A    between atoms: C11_18  and  C8_15 
ROOT
HETATM    1  N2  UNK     1      20.228   2.684  36.370  1.00  0.00    -0.191 NA
HETATM    2  C3  UNK     1      17.620   2.328  34.058  1.00  0.00     0.041 C 
HETATM    3  C7  UNK     1      18.115   1.780  35.183  1.00  0.00     0.096 C 
HETATM    4  C23 UNK     1      19.278   2.281  35.838  1.00  0.00     0.103 C 
ENDROOT
BRANCH   3   5
HETATM    5  C11 UNK     1      17.418   0.548  35.711  1.00  0.00     0.202 C 
HETATM    6  O2  UNK     1      16.181   0.489  35.763  1.00  0.00    -0.286 OA
BRANCH   5   7
HETATM    7  C8  UNK     1      18.210  -0.592  36.143  1.00  0.00     0.015 A 
HETATM    8  C18 UNK     1      19.093  -1.204  35.254  1.00  0.00     0.015 A 
HETATM    9  C20 UNK     1      19.853  -2.298  35.668  1.00  0.00     0.001 A 
HETATM   10  C22 UNK     1      19.731  -2.779  36.972  1.00  0.00     0.000 A 
HETATM   11  C21 UNK     1      18.847  -2.166  37.861  1.00  0.00     0.001 A 
HETATM   12  C19 UNK     1      18.087  -1.073  37.446  1.00  0.00     0.015 A 
ENDBRANCH   5   7
ENDBRANCH   3   5
BRANCH   2  13
HETATM   13  C1  UNK     1      18.182   3.489  33.352  1.00  0.00    -0.001 A 
HETATM   14  C2  UNK     1      18.215   3.524  31.964  1.00  0.00     0.089 A 
HETATM   15  C6  UNK     1      18.753   4.636  31.318  1.00  0.00     0.038 A 
HETATM   16  C10 UNK     1      19.253   5.703  32.064  1.00  0.00     0.003 A 
HETATM   17  C9  UNK     1      19.214   5.658  33.458  1.00  0.00     0.001 A 
HETATM   18  C4  UNK     1      18.676   4.545  34.104  1.00  0.00     0.014 A 
BRANCH  14  19
HETATM   19  O1  UNK     1      17.734   2.494  31.211  1.00  0.00    -0.274 OA
BRANCH  19  20
HETATM   20  C12 UNK     1      18.577   2.104  30.168  1.00  0.00     0.298 C 
HETATM   21  O3  UNK     1      18.777   2.731  29.139  1.00  0.00    -0.259 OA
BRANCH  20  22
HETATM   22  C5  UNK     1      19.207   0.791  30.456  1.00  0.00     0.040 A 
HETATM   23  C13 UNK     1      20.032   0.226  29.506  1.00  0.00     0.020 A 
HETATM   24  C16 UNK     1      20.623  -1.009  29.775  1.00  0.00     0.037 A 
HETATM   25  C15 UNK     1      20.377  -1.651  30.988  1.00  0.00     0.102 A 
HETATM   26  C17 UNK     1      19.537  -1.060  31.932  1.00  0.00     0.037 A 
HETATM   27  C14 UNK     1      18.946   0.175  31.663  1.00  0.00     0.020 A 
BRANCH  25  28
HETATM   28  N1  UNK     1      20.977  -2.909  31.261  1.00  0.00    -0.116 N 
HETATM   29  O4  UNK     1      21.285  -3.656  30.302  1.00  0.00    -0.532 OA
HETATM   30  O5  UNK     1      21.184  -3.238  32.454  1.00  0.00    -0.532 OA
ENDBRANCH  25  28
ENDBRANCH  20  22
ENDBRANCH  19  20
ENDBRANCH  14  19
ENDBRANCH   2  13
TORSDOF 7
ENDMDL
MODEL 10
REMARK VINA RESULT:      -8.0      5.002      6.317
REMARK  7 active torsions:
REMARK  status: ('A' for Active; 'I' for Inactive)
REMARK    1  A    between atoms: C12_19  and  O1_1 
REMARK    2  A    between atoms: C2_9  and  O1_1 
REMARK    3  A    between atoms: C15_22  and  N1_6 
REMARK    4  A    between atoms: C1_8  and  C3_10 
REMARK    5  A    between atoms: C12_19  and  C5_12 
REMARK    6  A    between atoms: C11_18  and  C7_14 
REMARK    7  A    between atoms: C11_18  and  C8_15 
ROOT
HETATM    1  N2  UNK     1      33.118 -10.874  29.637  1.00  0.00    -0.191 NA
HETATM    2  C3  UNK     1      29.987 -10.845  31.208  1.00  0.00     0.041 C 
HETATM    3  C7  UNK     1      30.613 -10.419  30.095  1.00  0.00     0.096 C 
HETATM    4  C23 UNK     1      31.994 -10.673  29.842  1.00  0.00     0.103 C 
ENDROOT
BRANCH   3   5
HETATM    5  C11 UNK     1      29.803  -9.592  29.125  1.00  0.00     0.202 C 
HETATM    6  O2  UNK     1      29.800  -9.854  27.913  1.00  0.00    -0.286 OA
BRANCH   5   7
HETATM    7  C8  UNK     1      29.000  -8.487  29.624  1.00  0.00     0.015 A 
HETATM    8  C18 UNK     1      27.640  -8.671  29.874  1.00  0.00     0.015 A 
HETATM    9  C20 UNK     1      26.870  -7.611  30.352  1.00  0.00     0.001 A 
HETATM   10  C22 UNK     1      27.459  -6.368  30.582  1.00  0.00     0.000 A 
HETATM   11  C21 UNK     1      28.819  -6.184  30.331  1.00  0.00     0.001 A 
HETATM   12  C19 UNK     1      29.589  -7.245  29.852  1.00  0.00     0.015 A 
ENDBRANCH   5   7
ENDBRANCH   3   5
BRANCH   2  13
HETATM   13  C1  UNK     1      30.607 -11.610  32.300  1.00  0.00    -0.001 A 
HETATM   14  C2  UNK     1      31.009 -10.975  33.467  1.00  0.00     0.089 A 
HETATM   15  C6  UNK     1      31.595 -11.723  34.488  1.00  0.00     0.038 A 
HETATM   16  C10 UNK     1      31.772 -13.098  34.334  1.00  0.00     0.003 A 
HETATM   17  C9  UNK     1      31.363 -13.725  33.157  1.00  0.00     0.001 A 
HETATM   18  C4  UNK     1      30.778 -12.977  32.135  1.00  0.00     0.014 A 
BRANCH  14  19
HETATM   19  O1  UNK     1      30.848  -9.633  33.644  1.00  0.00    -0.274 OA
BRANCH  19  20
HETATM   20  C12 UNK     1      31.991  -8.974  34.102  1.00  0.00     0.298 C 
HETATM   21  O3  UNK     1      32.261  -8.742  35.271  1.00  0.00    -0.259 OA
BRANCH  20  22
HETATM   22  C5  UNK     1      32.857  -8.559  32.970  1.00  0.00     0.040 A 
HETATM   23  C13 UNK     1      32.349  -7.693  32.025  1.00  0.00     0.020 A 
HETATM   24  C16 UNK     1      33.161  -7.305  30.959  1.00  0.00     0.037 A 
HETATM   25  C15 UNK     1      34.465  -7.791  30.863  1.00  0.00     0.102 A 
HETATM   26  C17 UNK     1      34.956  -8.668  31.830  1.00  0.00     0.037 A 
HETATM   27  C14 UNK     1      34.143  -9.056  32.896  1.00  0.00     0.020 A 
BRANCH  25  28
HETATM   28  N1  UNK     1      35.291  -7.397  29.777  1.00  0.00    -0.116 N 
HETATM   29  O4  UNK     1      35.825  -8.283  29.066  1.00  0.00    -0.532 OA
HETATM   30  O5  UNK     1      35.466  -6.174  29.559  1.00  0.00    -0.532 OA
ENDBRANCH  25  28
ENDBRANCH  20  22
ENDBRANCH  19  20
ENDBRANCH  14  19
ENDBRANCH   2  13
TORSDOF 7
ENDMDL
