MODEL 1
REMARK VINA RESULT:      -7.3      0.000      0.000
REMARK  5 active torsions:
REMARK  status: ('A' for Active; 'I' for Inactive)
REMARK    1  A    between atoms: C8_11  and  O1_1 
REMARK    2  A    between atoms: C14_17  and  O2_2 
REMARK    3  A    between atoms: C1_4  and  C5_8 
REMARK    4  A    between atoms: C10_13  and  C5_8 
REMARK    5  A    between atoms: C11_14  and  C6_9 
ROOT
HETATM    1  O3  UNK     1      18.614   9.407  33.064  1.00  0.00    -0.288 OA
HETATM    2  C5  UNK     1      18.115   8.492  33.709  1.00  0.00     0.182 C 
ENDROOT
BRANCH   2   3
HETATM    3  C1  UNK     1      16.717   8.080  33.441  1.00  0.00     0.020 A 
HETATM    4  C2  UNK     1      16.299   7.737  32.155  1.00  0.00    -0.045 A 
HETATM    5  C4  UNK     1      14.977   7.352  31.929  1.00  0.00     0.044 A 
HETATM    6  C7  UNK     1      17.247   7.771  31.001  1.00  0.00     0.049 C 
HETATM    7  C8  UNK     1      14.073   7.310  32.990  1.00  0.00     0.066 A 
HETATM    8  C9  UNK     1      14.490   7.654  34.277  1.00  0.00     0.037 A 
HETATM    9  C3  UNK     1      15.811   8.039  34.502  1.00  0.00     0.019 A 
BRANCH   7  10
HETATM   10  O1  UNK     1      12.783   6.934  32.771  1.00  0.00    -0.361 OA
HETATM   11  H13 UNK     1      12.201   7.452  33.353  1.00  0.00     0.217 HD
ENDBRANCH   7  10
ENDBRANCH   2   3
BRANCH   2  12
HETATM   12  C10 UNK     1      18.871   7.736  34.747  1.00  0.00     0.056 C 
HETATM   13  C11 UNK     1      19.382   6.517  34.466  1.00  0.00     0.015 C 
BRANCH  13  14
HETATM   14  C6  UNK     1      19.262   5.830  33.189  1.00  0.00    -0.036 A 
HETATM   15  C12 UNK     1      20.122   6.155  32.140  1.00  0.00     0.014 A 
HETATM   16  C15 UNK     1      20.006   5.498  30.914  1.00  0.00     0.037 A 
HETATM   17  C14 UNK     1      19.031   4.517  30.740  1.00  0.00     0.068 A 
HETATM   18  C16 UNK     1      18.171   4.192  31.790  1.00  0.00     0.037 A 
HETATM   19  C13 UNK     1      18.288   4.848  33.014  1.00  0.00     0.014 A 
BRANCH  17  20
HETATM   20  O2  UNK     1      18.917   3.876  29.544  1.00  0.00    -0.356 OA
HETATM   21  C17 UNK     1      18.472   2.521  29.573  1.00  0.00     0.210 C 
ENDBRANCH  17  20
ENDBRANCH  13  14
ENDBRANCH   2  12
TORSDOF 5
ENDMDL
MODEL 2
REMARK VINA RESULT:      -6.7     14.267     16.543
REMARK  5 active torsions:
REMARK  status: ('A' for Active; 'I' for Inactive)
REMARK    1  A    between atoms: C8_11  and  O1_1 
REMARK    2  A    between atoms: C14_17  and  O2_2 
REMARK    3  A    between atoms: C1_4  and  C5_8 
REMARK    4  A    between atoms: C10_13  and  C5_8 
REMARK    5  A    between atoms: C11_14  and  C6_9 
ROOT
HETATM    1  O3  UNK     1      19.481 -10.948  37.652  1.00  0.00    -0.288 OA
HETATM    2  C5  UNK     1      19.345  -9.731  37.684  1.00  0.00     0.182 C 
ENDROOT
BRANCH   2   3
HETATM    3  C1  UNK     1      19.770  -8.913  36.523  1.00  0.00     0.020 A 
HETATM    4  C2  UNK     1      21.001  -9.127  35.902  1.00  0.00    -0.045 A 
HETATM    5  C4  UNK     1      21.377  -8.344  34.810  1.00  0.00     0.044 A 
HETATM    6  C7  UNK     1      21.934 -10.189  36.383  1.00  0.00     0.049 C 
HETATM    7  C8  UNK     1      20.523  -7.347  34.340  1.00  0.00     0.066 A 
HETATM    8  C9  UNK     1      19.292  -7.131  34.962  1.00  0.00     0.037 A 
HETATM    9  C3  UNK     1      18.916  -7.914  36.053  1.00  0.00     0.019 A 
BRANCH   7  10
HETATM   10  O1  UNK     1      20.890  -6.583  33.275  1.00  0.00    -0.361 OA
HETATM   11  H13 UNK     1      20.441  -5.721  33.336  1.00  0.00     0.217 HD
ENDBRANCH   7  10
ENDBRANCH   2   3
BRANCH   2  12
HETATM   12  C10 UNK     1      18.730  -9.022  38.841  1.00  0.00     0.056 C 
HETATM   13  C11 UNK     1      19.461  -8.153  39.576  1.00  0.00     0.015 C 
BRANCH  13  14
HETATM   14  C6  UNK     1      20.858  -7.823  39.340  1.00  0.00    -0.036 A 
HETATM   15  C12 UNK     1      21.859  -8.723  39.708  1.00  0.00     0.014 A 
HETATM   16  C15 UNK     1      23.199  -8.406  39.484  1.00  0.00     0.037 A 
HETATM   17  C14 UNK     1      23.537  -7.189  38.892  1.00  0.00     0.068 A 
HETATM   18  C16 UNK     1      22.536  -6.290  38.524  1.00  0.00     0.037 A 
HETATM   19  C13 UNK     1      21.197  -6.607  38.748  1.00  0.00     0.014 A 
BRANCH  17  20
HETATM   20  O2  UNK     1      24.845  -6.880  38.674  1.00  0.00    -0.356 OA
HETATM   21  C17 UNK     1      25.776  -7.960  38.671  1.00  0.00     0.210 C 
ENDBRANCH  17  20
ENDBRANCH  13  14
ENDBRANCH   2  12
TORSDOF 5
ENDMDL
MODEL 3
REMARK VINA RESULT:      -6.6     22.187     24.326
REMARK  5 active torsions:
REMARK  status: ('A' for Active; 'I' for Inactive)
REMARK    1  A    between atoms: C8_11  and  O1_1 
REMARK    2  A    between atoms: C14_17  and  O2_2 
REMARK    3  A    between atoms: C1_4  and  C5_8 
REMARK    4  A    between atoms: C10_13  and  C5_8 
REMARK    5  A    between atoms: C11_14  and  C6_9 
ROOT
HETATM    1  O3  UNK     1      14.433   7.752  11.409  1.00  0.00    -0.288 OA
HETATM    2  C5  UNK     1      15.298   7.637  10.548  1.00  0.00     0.182 C 
ENDROOT
BRANCH   2   3
HETATM    3  C1  UNK     1      15.712   8.822   9.759  1.00  0.00     0.020 A 
HETATM    4  C2  UNK     1      14.795   9.528   8.982  1.00  0.00    -0.045 A 
HETATM    5  C4  UNK     1      15.210  10.641   8.250  1.00  0.00     0.044 A 
HETATM    6  C7  UNK     1      13.360   9.117   8.917  1.00  0.00     0.049 C 
HETATM    7  C8  UNK     1      16.543  11.046   8.295  1.00  0.00     0.066 A 
HETATM    8  C9  UNK     1      17.463  10.339   9.072  1.00  0.00     0.037 A 
HETATM    9  C3  UNK     1      17.047   9.227   9.804  1.00  0.00     0.019 A 
BRANCH   7  10
HETATM   10  O1  UNK     1      16.949  12.132   7.581  1.00  0.00    -0.361 OA
HETATM   11  H13 UNK     1      17.556  11.838   6.879  1.00  0.00     0.217 HD
ENDBRANCH   7  10
ENDBRANCH   2   3
BRANCH   2  12
HETATM   12  C10 UNK     1      15.989   6.346  10.272  1.00  0.00     0.056 C 
HETATM   13  C11 UNK     1      15.374   5.382   9.552  1.00  0.00     0.015 C 
BRANCH  13  14
HETATM   14  C6  UNK     1      14.035   5.480   8.991  1.00  0.00    -0.036 A 
HETATM   15  C12 UNK     1      12.925   5.166   9.776  1.00  0.00     0.014 A 
HETATM   16  C15 UNK     1      11.641   5.258   9.237  1.00  0.00     0.037 A 
HETATM   17  C14 UNK     1      11.469   5.664   7.914  1.00  0.00     0.068 A 
HETATM   18  C16 UNK     1      12.579   5.977   7.130  1.00  0.00     0.037 A 
HETATM   19  C13 UNK     1      13.861   5.886   7.669  1.00  0.00     0.014 A 
BRANCH  17  20
HETATM   20  O2  UNK     1      10.216   5.753   7.388  1.00  0.00    -0.356 OA
HETATM   21  C17 UNK     1      10.115   6.114   6.012  1.00  0.00     0.210 C 
ENDBRANCH  17  20
ENDBRANCH  13  14
ENDBRANCH   2  12
TORSDOF 5
ENDMDL
MODEL 4
REMARK VINA RESULT:      -6.6     22.381     24.792
REMARK  5 active torsions:
REMARK  status: ('A' for Active; 'I' for Inactive)
REMARK    1  A    between atoms: C8_11  and  O1_1 
REMARK    2  A    between atoms: C14_17  and  O2_2 
REMARK    3  A    between atoms: C1_4  and  C5_8 
REMARK    4  A    between atoms: C10_13  and  C5_8 
REMARK    5  A    between atoms: C11_14  and  C6_9 
ROOT
HETATM    1  O3  UNK     1      13.522   7.117  10.659  1.00  0.00    -0.288 OA
HETATM    2  C5  UNK     1      14.382   7.079   9.786  1.00  0.00     0.182 C 
ENDROOT
BRANCH   2   3
HETATM    3  C1  UNK     1      15.091   8.322   9.398  1.00  0.00     0.020 A 
HETATM    4  C2  UNK     1      16.382   8.589   9.854  1.00  0.00    -0.045 A 
HETATM    5  C4  UNK     1      17.028   9.765   9.473  1.00  0.00     0.044 A 
HETATM    6  C7  UNK     1      17.097   7.631  10.750  1.00  0.00     0.049 C 
HETATM    7  C8  UNK     1      16.382  10.675   8.636  1.00  0.00     0.066 A 
HETATM    8  C9  UNK     1      15.090  10.409   8.180  1.00  0.00     0.037 A 
HETATM    9  C3  UNK     1      14.445   9.233   8.561  1.00  0.00     0.019 A 
BRANCH   7  10
HETATM   10  O1  UNK     1      17.012  11.823   8.264  1.00  0.00    -0.361 OA
HETATM   11  H13 UNK     1      17.933  11.614   8.028  1.00  0.00     0.217 HD
ENDBRANCH   7  10
ENDBRANCH   2   3
BRANCH   2  12
HETATM   12  C10 UNK     1      14.779   5.815   9.106  1.00  0.00     0.056 C 
HETATM   13  C11 UNK     1      13.915   5.182   8.281  1.00  0.00     0.015 C 
BRANCH  13  14
HETATM   14  C6  UNK     1      12.566   5.633   7.974  1.00  0.00    -0.036 A 
HETATM   15  C12 UNK     1      11.495   5.213   8.763  1.00  0.00     0.014 A 
HETATM   16  C15 UNK     1      10.201   5.643   8.468  1.00  0.00     0.037 A 
HETATM   17  C14 UNK     1       9.980   6.493   7.385  1.00  0.00     0.068 A 
HETATM   18  C16 UNK     1      11.051   6.912   6.596  1.00  0.00     0.037 A 
HETATM   19  C13 UNK     1      12.344   6.482   6.892  1.00  0.00     0.014 A 
BRANCH  17  20
HETATM   20  O2  UNK     1       8.717   6.912   7.096  1.00  0.00    -0.356 OA
HETATM   21  C17 UNK     1       7.877   7.249   8.199  1.00  0.00     0.210 C 
ENDBRANCH  17  20
ENDBRANCH  13  14
ENDBRANCH   2  12
TORSDOF 5
ENDMDL
MODEL 5
REMARK VINA RESULT:      -6.6     17.973     20.146
REMARK  5 active torsions:
REMARK  status: ('A' for Active; 'I' for Inactive)
REMARK    1  A    between atoms: C8_11  and  O1_1 
REMARK    2  A    between atoms: C14_17  and  O2_2 
REMARK    3  A    between atoms: C1_4  and  C5_8 
REMARK    4  A    between atoms: C10_13  and  C5_8 
REMARK    5  A    between atoms: C11_14  and  C6_9 
ROOT
HETATM    1  O3  UNK     1      29.190  -7.610  35.285  1.00  0.00    -0.288 OA
HETATM    2  C5  UNK     1      29.483  -7.787  36.462  1.00  0.00     0.182 C 
ENDROOT
BRANCH   2   3
HETATM    3  C1  UNK     1      29.486  -6.639  37.400  1.00  0.00     0.020 A 
HETATM    4  C2  UNK     1      30.226  -5.488  37.129  1.00  0.00    -0.045 A 
HETATM    5  C4  UNK     1      30.210  -4.421  38.028  1.00  0.00     0.044 A 
HETATM    6  C7  UNK     1      31.041  -5.370  35.884  1.00  0.00     0.049 C 
HETATM    7  C8  UNK     1      29.455  -4.506  39.198  1.00  0.00     0.066 A 
HETATM    8  C9  UNK     1      28.715  -5.657  39.469  1.00  0.00     0.037 A 
HETATM    9  C3  UNK     1      28.731  -6.724  38.570  1.00  0.00     0.019 A 
BRANCH   7  10
HETATM   10  O1  UNK     1      29.440  -3.465  40.075  1.00  0.00    -0.361 OA
HETATM   11  H13 UNK     1      28.954  -3.734  40.873  1.00  0.00     0.217 HD
ENDBRANCH   7  10
ENDBRANCH   2   3
BRANCH   2  12
HETATM   12  C10 UNK     1      29.812  -9.131  37.014  1.00  0.00     0.056 C 
HETATM   13  C11 UNK     1      31.100  -9.507  37.175  1.00  0.00     0.015 C 
BRANCH  13  14
HETATM   14  C6  UNK     1      32.259  -8.691  36.847  1.00  0.00    -0.036 A 
HETATM   15  C12 UNK     1      32.864  -7.911  37.833  1.00  0.00     0.014 A 
HETATM   16  C15 UNK     1      33.974  -7.127  37.519  1.00  0.00     0.037 A 
HETATM   17  C14 UNK     1      34.478  -7.123  36.219  1.00  0.00     0.068 A 
HETATM   18  C16 UNK     1      33.873  -7.903  35.233  1.00  0.00     0.037 A 
HETATM   19  C13 UNK     1      32.764  -8.687  35.548  1.00  0.00     0.014 A 
BRANCH  17  20
HETATM   20  O2  UNK     1      35.562  -6.357  35.911  1.00  0.00    -0.356 OA
HETATM   21  C17 UNK     1      36.434  -6.845  34.893  1.00  0.00     0.210 C 
ENDBRANCH  17  20
ENDBRANCH  13  14
ENDBRANCH   2  12
TORSDOF 5
ENDMDL
MODEL 6
REMARK VINA RESULT:      -6.6      2.659      6.496
REMARK  5 active torsions:
REMARK  status: ('A' for Active; 'I' for Inactive)
REMARK    1  A    between atoms: C8_11  and  O1_1 
REMARK    2  A    between atoms: C14_17  and  O2_2 
REMARK    3  A    between atoms: C1_4  and  C5_8 
REMARK    4  A    between atoms: C10_13  and  C5_8 
REMARK    5  A    between atoms: C11_14  and  C6_9 
ROOT
HETATM    1  O3  UNK     1      16.783   8.066  30.799  1.00  0.00    -0.288 OA
HETATM    2  C5  UNK     1      17.097   7.229  31.638  1.00  0.00     0.182 C 
ENDROOT
BRANCH   2   3
HETATM    3  C1  UNK     1      18.526   6.888  31.837  1.00  0.00     0.020 A 
HETATM    4  C2  UNK     1      19.246   6.197  30.862  1.00  0.00    -0.045 A 
HETATM    5  C4  UNK     1      20.591   5.890  31.074  1.00  0.00     0.044 A 
HETATM    6  C7  UNK     1      18.604   5.777  29.581  1.00  0.00     0.049 C 
HETATM    7  C8  UNK     1      21.214   6.273  32.261  1.00  0.00     0.066 A 
HETATM    8  C9  UNK     1      20.494   6.963  33.237  1.00  0.00     0.037 A 
HETATM    9  C3  UNK     1      19.150   7.270  33.025  1.00  0.00     0.019 A 
BRANCH   7  10
HETATM   10  O1  UNK     1      22.526   5.973  32.468  1.00  0.00    -0.361 OA
HETATM   11  H13 UNK     1      22.686   5.905  33.425  1.00  0.00     0.217 HD
ENDBRANCH   7  10
ENDBRANCH   2   3
BRANCH   2  12
HETATM   12  C10 UNK     1      16.097   6.547  32.506  1.00  0.00     0.056 C 
HETATM   13  C11 UNK     1      15.365   7.258  33.392  1.00  0.00     0.015 C 
BRANCH  13  14
HETATM   14  C6  UNK     1      15.460   8.695  33.596  1.00  0.00    -0.036 A 
HETATM   15  C12 UNK     1      16.520   9.227  34.330  1.00  0.00     0.014 A 
HETATM   16  C15 UNK     1      16.611  10.605  34.528  1.00  0.00     0.037 A 
HETATM   17  C14 UNK     1      15.639  11.450  33.991  1.00  0.00     0.068 A 
HETATM   18  C16 UNK     1      14.579  10.919  33.258  1.00  0.00     0.037 A 
HETATM   19  C13 UNK     1      14.490   9.541  33.060  1.00  0.00     0.014 A 
BRANCH  17  20
HETATM   20  O2  UNK     1      15.727  12.795  34.185  1.00  0.00    -0.356 OA
HETATM   21  C17 UNK     1      16.313  13.239  35.407  1.00  0.00     0.210 C 
ENDBRANCH  17  20
ENDBRANCH  13  14
ENDBRANCH   2  12
TORSDOF 5
ENDMDL
MODEL 7
REMARK VINA RESULT:      -6.6     22.446     24.600
REMARK  5 active torsions:
REMARK  status: ('A' for Active; 'I' for Inactive)
REMARK    1  A    between atoms: C8_11  and  O1_1 
REMARK    2  A    between atoms: C14_17  and  O2_2 
REMARK    3  A    between atoms: C1_4  and  C5_8 
REMARK    4  A    between atoms: C10_13  and  C5_8 
REMARK    5  A    between atoms: C11_14  and  C6_9 
ROOT
HETATM    1  O3  UNK     1      12.932   6.472  10.584  1.00  0.00    -0.288 OA
HETATM    2  C5  UNK     1      13.892   6.288   9.845  1.00  0.00     0.182 C 
ENDROOT
BRANCH   2   3
HETATM    3  C1  UNK     1      14.969   7.304   9.772  1.00  0.00     0.020 A 
HETATM    4  C2  UNK     1      14.748   8.548   9.182  1.00  0.00    -0.045 A 
HETATM    5  C4  UNK     1      15.779   9.488   9.127  1.00  0.00     0.044 A 
HETATM    6  C7  UNK     1      13.418   8.903   8.604  1.00  0.00     0.049 C 
HETATM    7  C8  UNK     1      17.030   9.182   9.661  1.00  0.00     0.066 A 
HETATM    8  C9  UNK     1      17.252   7.936  10.251  1.00  0.00     0.037 A 
HETATM    9  C3  UNK     1      16.221   6.998  10.306  1.00  0.00     0.019 A 
BRANCH   7  10
HETATM   10  O1  UNK     1      18.035  10.098   9.608  1.00  0.00    -0.361 OA
HETATM   11  H13 UNK     1      18.848   9.656   9.305  1.00  0.00     0.217 HD
ENDBRANCH   7  10
ENDBRANCH   2   3
BRANCH   2  12
HETATM   12  C10 UNK     1      14.049   5.054   9.025  1.00  0.00     0.056 C 
HETATM   13  C11 UNK     1      13.039   4.625   8.236  1.00  0.00     0.015 C 
BRANCH  13  14
HETATM   14  C6  UNK     1      11.746   5.279   8.099  1.00  0.00    -0.036 A 
HETATM   15  C12 UNK     1      11.498   6.109   7.006  1.00  0.00     0.014 A 
HETATM   16  C15 UNK     1      10.260   6.738   6.875  1.00  0.00     0.037 A 
HETATM   17  C14 UNK     1       9.270   6.535   7.837  1.00  0.00     0.068 A 
HETATM   18  C16 UNK     1       9.519   5.704   8.930  1.00  0.00     0.037 A 
HETATM   19  C13 UNK     1      10.757   5.076   9.060  1.00  0.00     0.014 A 
BRANCH  17  20
HETATM   20  O2  UNK     1       8.061   7.149   7.709  1.00  0.00    -0.356 OA
HETATM   21  C17 UNK     1       7.419   7.573   8.910  1.00  0.00     0.210 C 
ENDBRANCH  17  20
ENDBRANCH  13  14
ENDBRANCH   2  12
TORSDOF 5
ENDMDL
MODEL 8
REMARK VINA RESULT:      -6.6      2.149      5.804
REMARK  5 active torsions:
REMARK  status: ('A' for Active; 'I' for Inactive)
REMARK    1  A    between atoms: C8_11  and  O1_1 
REMARK    2  A    between atoms: C14_17  and  O2_2 
REMARK    3  A    between atoms: C1_4  and  C5_8 
REMARK    4  A    between atoms: C10_13  and  C5_8 
REMARK    5  A    between atoms: C11_14  and  C6_9 
ROOT
HETATM    1  O3  UNK     1      18.063   7.094  31.339  1.00  0.00    -0.288 OA
HETATM    2  C5  UNK     1      18.867   6.254  31.725  1.00  0.00     0.182 C 
ENDROOT
BRANCH   2   3
HETATM    3  C1  UNK     1      18.711   4.840  31.307  1.00  0.00     0.020 A 
HETATM    4  C2  UNK     1      18.364   3.850  32.227  1.00  0.00    -0.045 A 
HETATM    5  C4  UNK     1      18.222   2.527  31.807  1.00  0.00     0.044 A 
HETATM    6  C7  UNK     1      18.136   4.179  33.666  1.00  0.00     0.049 C 
HETATM    7  C8  UNK     1      18.429   2.194  30.469  1.00  0.00     0.066 A 
HETATM    8  C9  UNK     1      18.777   3.184  29.549  1.00  0.00     0.037 A 
HETATM    9  C3  UNK     1      18.918   4.507  29.969  1.00  0.00     0.019 A 
BRANCH   7  10
HETATM   10  O1  UNK     1      18.290   0.903  30.060  1.00  0.00    -0.361 OA
HETATM   11  H13 UNK     1      19.004   0.694  29.432  1.00  0.00     0.217 HD
ENDBRANCH   7  10
ENDBRANCH   2   3
BRANCH   2  12
HETATM   12  C10 UNK     1      20.036   6.596  32.584  1.00  0.00     0.056 C 
HETATM   13  C11 UNK     1      19.890   7.438  33.631  1.00  0.00     0.015 C 
BRANCH  13  14
HETATM   14  C6  UNK     1      18.645   8.078  34.026  1.00  0.00    -0.036 A 
HETATM   15  C12 UNK     1      18.401   9.406  33.674  1.00  0.00     0.014 A 
HETATM   16  C15 UNK     1      17.208  10.021  34.054  1.00  0.00     0.037 A 
HETATM   17  C14 UNK     1      16.259   9.307  34.786  1.00  0.00     0.068 A 
HETATM   18  C16 UNK     1      16.503   7.979  35.138  1.00  0.00     0.037 A 
HETATM   19  C13 UNK     1      17.696   7.365  34.757  1.00  0.00     0.014 A 
BRANCH  17  20
HETATM   20  O2  UNK     1      15.095   9.907  35.157  1.00  0.00    -0.356 OA
HETATM   21  C17 UNK     1      14.085  10.040  34.158  1.00  0.00     0.210 C 
ENDBRANCH  17  20
ENDBRANCH  13  14
ENDBRANCH   2  12
TORSDOF 5
ENDMDL
MODEL 9
REMARK VINA RESULT:      -6.5      2.637      6.694
REMARK  5 active torsions:
REMARK  status: ('A' for Active; 'I' for Inactive)
REMARK    1  A    between atoms: C8_11  and  O1_1 
REMARK    2  A    between atoms: C14_17  and  O2_2 
REMARK    3  A    between atoms: C1_4  and  C5_8 
REMARK    4  A    between atoms: C10_13  and  C5_8 
REMARK    5  A    between atoms: C11_14  and  C6_9 
ROOT
HETATM    1  O3  UNK     1      16.862   8.179  31.417  1.00  0.00    -0.288 OA
HETATM    2  C5  UNK     1      17.299   7.248  32.083  1.00  0.00     0.182 C 
ENDROOT
BRANCH   2   3
HETATM    3  C1  UNK     1      18.703   6.807  31.899  1.00  0.00     0.020 A 
HETATM    4  C2  UNK     1      19.655   6.995  32.901  1.00  0.00    -0.045 A 
HETATM    5  C4  UNK     1      20.970   6.570  32.703  1.00  0.00     0.044 A 
HETATM    6  C7  UNK     1      19.295   7.645  34.196  1.00  0.00     0.049 C 
HETATM    7  C8  UNK     1      21.331   5.959  31.503  1.00  0.00     0.066 A 
HETATM    8  C9  UNK     1      20.379   5.771  30.500  1.00  0.00     0.037 A 
HETATM    9  C3  UNK     1      19.065   6.196  30.699  1.00  0.00     0.019 A 
BRANCH   7  10
HETATM   10  O1  UNK     1      22.613   5.544  31.310  1.00  0.00    -0.361 OA
HETATM   11  H13 UNK     1      23.053   5.468  32.174  1.00  0.00     0.217 HD
ENDBRANCH   7  10
ENDBRANCH   2   3
BRANCH   2  12
HETATM   12  C10 UNK     1      16.484   6.545  33.113  1.00  0.00     0.056 C 
HETATM   13  C11 UNK     1      15.642   7.241  33.910  1.00  0.00     0.015 C 
BRANCH  13  14
HETATM   14  C6  UNK     1      15.441   8.682  33.862  1.00  0.00    -0.036 A 
HETATM   15  C12 UNK     1      14.362   9.212  33.156  1.00  0.00     0.014 A 
HETATM   16  C15 UNK     1      14.170  10.593  33.108  1.00  0.00     0.037 A 
HETATM   17  C14 UNK     1      15.058  11.442  33.768  1.00  0.00     0.068 A 
HETATM   18  C16 UNK     1      16.138  10.912  34.474  1.00  0.00     0.037 A 
HETATM   19  C13 UNK     1      16.329   9.531  34.521  1.00  0.00     0.014 A 
BRANCH  17  20
HETATM   20  O2  UNK     1      14.872  12.791  33.721  1.00  0.00    -0.356 OA
HETATM   21  C17 UNK     1      13.914  13.281  32.785  1.00  0.00     0.210 C 
ENDBRANCH  17  20
ENDBRANCH  13  14
ENDBRANCH   2  12
TORSDOF 5
ENDMDL
MODEL 10
REMARK VINA RESULT:      -6.5     17.786     20.097
REMARK  5 active torsions:
REMARK  status: ('A' for Active; 'I' for Inactive)
REMARK    1  A    between atoms: C8_11  and  O1_1 
REMARK    2  A    between atoms: C14_17  and  O2_2 
REMARK    3  A    between atoms: C1_4  and  C5_8 
REMARK    4  A    between atoms: C10_13  and  C5_8 
REMARK    5  A    between atoms: C11_14  and  C6_9 
ROOT
HETATM    1  O3  UNK     1      28.122  -6.606  36.603  1.00  0.00    -0.288 OA
HETATM    2  C5  UNK     1      28.537  -6.704  37.752  1.00  0.00     0.182 C 
ENDROOT
BRANCH   2   3
HETATM    3  C1  UNK     1      29.182  -7.963  38.196  1.00  0.00     0.020 A 
HETATM    4  C2  UNK     1      28.502  -8.880  38.996  1.00  0.00    -0.045 A 
HETATM    5  C4  UNK     1      29.132 -10.059  39.398  1.00  0.00     0.044 A 
HETATM    6  C7  UNK     1      27.096  -8.629  39.434  1.00  0.00     0.049 C 
HETATM    7  C8  UNK     1      30.443 -10.318  39.001  1.00  0.00     0.066 A 
HETATM    8  C9  UNK     1      31.125  -9.400  38.201  1.00  0.00     0.037 A 
HETATM    9  C3  UNK     1      30.495  -8.222  37.799  1.00  0.00     0.019 A 
BRANCH   7  10
HETATM   10  O1  UNK     1      31.058 -11.467  39.394  1.00  0.00    -0.361 OA
HETATM   11  H13 UNK     1      32.019 -11.365  39.276  1.00  0.00     0.217 HD
ENDBRANCH   7  10
ENDBRANCH   2   3
BRANCH   2  12
HETATM   12  C10 UNK     1      28.451  -5.588  38.735  1.00  0.00     0.056 C 
HETATM   13  C11 UNK     1      29.476  -4.716  38.868  1.00  0.00     0.015 C 
BRANCH  13  14
HETATM   14  C6  UNK     1      30.717  -4.758  38.111  1.00  0.00    -0.036 A 
HETATM   15  C12 UNK     1      31.855  -5.342  38.669  1.00  0.00     0.014 A 
HETATM   16  C15 UNK     1      33.046  -5.382  37.945  1.00  0.00     0.037 A 
HETATM   17  C14 UNK     1      33.099  -4.837  36.662  1.00  0.00     0.068 A 
HETATM   18  C16 UNK     1      31.961  -4.253  36.103  1.00  0.00     0.037 A 
HETATM   19  C13 UNK     1      30.771  -4.215  36.828  1.00  0.00     0.014 A 
BRANCH  17  20
HETATM   20  O2  UNK     1      34.262  -4.875  35.954  1.00  0.00    -0.356 OA
HETATM   21  C17 UNK     1      35.257  -5.799  36.390  1.00  0.00     0.210 C 
ENDBRANCH  17  20
ENDBRANCH  13  14
ENDBRANCH   2  12
TORSDOF 5
ENDMDL
