MODEL 1
REMARK VINA RESULT:      -9.4      0.000      0.000
REMARK  5 active torsions:
REMARK  status: ('A' for Active; 'I' for Inactive)
REMARK    1  A    between atoms: C5_10  and  N1_4 
REMARK    2  A    between atoms: C6_11  and  N2_5 
REMARK    3  A    between atoms: C5_10  and  C7_12 
REMARK    4  A    between atoms: C6_11  and  C8_13 
REMARK    5  A    between atoms: C15_20  and  C19_24 
ROOT
HETATM    1  N1  UNK     1      18.073   5.115  31.576  1.00  0.00     0.096 N 
HETATM    2  N2  UNK     1      18.987   2.766  30.159  1.00  0.00     0.096 N 
HETATM    3  C1  UNK     1      18.040   3.787  32.200  1.00  0.00     0.303 C 
HETATM    4  C2  UNK     1      19.164   5.192  30.596  1.00  0.00     0.303 C 
HETATM    5  C3  UNK     1      17.897   2.690  31.140  1.00  0.00     0.303 C 
HETATM    6  C4  UNK     1      19.022   4.095  29.535  1.00  0.00     0.303 C 
ENDROOT
BRANCH   1   7
HETATM    7  C5  UNK     1      18.211   6.161  32.587  1.00  0.00     0.312 C 
BRANCH   7   8
HETATM    8  C7  UNK     1      17.002   7.028  32.666  1.00  0.00    -0.011 A 
HETATM    9  C10 UNK     1      15.800   6.577  32.278  1.00  0.00     0.092 A 
HETATM   10  C16 UNK     1      14.578   7.396  32.337  1.00  0.00     0.288 A 
HETATM   11  O1  UNK     1      14.716   8.688  32.822  1.00  0.00    -0.275 OA
HETATM   12  O2  UNK     1      13.496   6.949  31.972  1.00  0.00    -0.260 OA
HETATM   13  C11 UNK     1      15.965   9.188  33.238  1.00  0.00     0.090 A 
HETATM   14  C9  UNK     1      17.116   8.401  33.176  1.00  0.00     0.007 A 
HETATM   15  C17 UNK     1      15.985  10.502  33.709  1.00  0.00     0.039 A 
HETATM   16  C12 UNK     1      18.320   8.974  33.608  1.00  0.00     0.022 A 
HETATM   17  C15 UNK     1      18.356  10.290  34.083  1.00  0.00    -0.058 A 
HETATM   18  C18 UNK     1      17.191  11.053  34.133  1.00  0.00     0.010 A 
BRANCH  17  19
HETATM   19  C19 UNK     1      19.649  10.879  34.538  1.00  0.00     0.034 C 
HETATM   20  C23 UNK     1      20.770   9.845  34.593  1.00  0.00     0.010 C 
ENDBRANCH  17  19
ENDBRANCH   7   8
ENDBRANCH   1   7
BRANCH   2  21
HETATM   21  C6  UNK     1      18.848   1.720  29.147  1.00  0.00     0.311 C 
BRANCH  21  22
HETATM   22  C8  UNK     1      19.411   0.442  29.680  1.00  0.00    -0.030 A 
HETATM   23  C13 UNK     1      19.376   0.182  31.051  1.00  0.00     0.010 A 
HETATM   24  C20 UNK     1      19.902  -1.010  31.548  1.00  0.00     0.024 A 
HETATM   25  C22 UNK     1      20.464  -1.942  30.676  1.00  0.00     0.034 A 
HETATM   26  C21 UNK     1      20.500  -1.682  29.306  1.00  0.00     0.024 A 
HETATM   27 Cl1  UNK     1      21.113  -3.413  31.290  1.00  0.00    -0.084 Cl
HETATM   28  C14 UNK     1      19.974  -0.490  28.808  1.00  0.00     0.010 A 
ENDBRANCH  21  22
ENDBRANCH   2  21
TORSDOF 5
ENDMDL
MODEL 2
REMARK VINA RESULT:      -9.0      4.608      9.321
REMARK  5 active torsions:
REMARK  status: ('A' for Active; 'I' for Inactive)
REMARK    1  A    between atoms: C5_10  and  N1_4 
REMARK    2  A    between atoms: C6_11  and  N2_5 
REMARK    3  A    between atoms: C5_10  and  C7_12 
REMARK    4  A    between atoms: C6_11  and  C8_13 
REMARK    5  A    between atoms: C15_20  and  C19_24 
ROOT
HETATM    1  N1  UNK     1      18.886   3.849  31.413  1.00  0.00     0.096 N 
HETATM    2  N2  UNK     1      19.198   6.414  32.711  1.00  0.00     0.096 N 
HETATM    3  C1  UNK     1      17.985   4.273  32.491  1.00  0.00     0.303 C 
HETATM    4  C2  UNK     1      19.392   5.017  30.681  1.00  0.00     0.303 C 
HETATM    5  C3  UNK     1      18.691   5.246  33.441  1.00  0.00     0.303 C 
HETATM    6  C4  UNK     1      20.098   5.991  31.630  1.00  0.00     0.303 C 
ENDROOT
BRANCH   1   7
HETATM    7  C5  UNK     1      18.212   2.922  30.506  1.00  0.00     0.312 C 
BRANCH   7   8
HETATM    8  C7  UNK     1      18.848   1.575  30.505  1.00  0.00    -0.011 A 
HETATM    9  C10 UNK     1      19.464   1.102  29.412  1.00  0.00     0.092 A 
HETATM   10  C16 UNK     1      20.106  -0.222  29.362  1.00  0.00     0.288 A 
HETATM   11  O1  UNK     1      20.051  -0.986  30.518  1.00  0.00    -0.275 OA
HETATM   12  O2  UNK     1      20.660  -0.622  28.343  1.00  0.00    -0.260 OA
HETATM   13  C11 UNK     1      19.411  -0.514  31.681  1.00  0.00     0.090 A 
HETATM   14  C9  UNK     1      18.806   0.743  31.715  1.00  0.00     0.007 A 
HETATM   15  C17 UNK     1      19.417  -1.368  32.786  1.00  0.00     0.039 A 
HETATM   16  C12 UNK     1      18.191   1.137  32.910  1.00  0.00     0.022 A 
HETATM   17  C15 UNK     1      18.188   0.292  34.026  1.00  0.00    -0.058 A 
HETATM   18  C18 UNK     1      18.801  -0.958  33.964  1.00  0.00     0.010 A 
BRANCH  17  19
HETATM   19  C19 UNK     1      17.527   0.734  35.289  1.00  0.00     0.034 C 
HETATM   20  C23 UNK     1      18.340   1.791  36.031  1.00  0.00     0.010 C 
ENDBRANCH  17  19
ENDBRANCH   7   8
ENDBRANCH   1   7
BRANCH   2  21
HETATM   21  C6  UNK     1      19.874   7.340  33.618  1.00  0.00     0.311 C 
BRANCH  21  22
HETATM   22  C8  UNK     1      19.036   8.567  33.781  1.00  0.00    -0.030 A 
HETATM   23  C13 UNK     1      17.655   8.499  33.592  1.00  0.00     0.010 A 
HETATM   24  C20 UNK     1      16.873   9.644  33.744  1.00  0.00     0.024 A 
HETATM   25  C22 UNK     1      17.471  10.857  34.085  1.00  0.00     0.034 A 
HETATM   26  C21 UNK     1      18.852  10.925  34.274  1.00  0.00     0.024 A 
HETATM   27 Cl1  UNK     1      16.507  12.269  34.273  1.00  0.00    -0.084 Cl
HETATM   28  C14 UNK     1      19.633   9.780  34.122  1.00  0.00     0.010 A 
ENDBRANCH  21  22
ENDBRANCH   2  21
TORSDOF 5
ENDMDL
MODEL 3
REMARK VINA RESULT:      -8.8     15.157     18.481
REMARK  5 active torsions:
REMARK  status: ('A' for Active; 'I' for Inactive)
REMARK    1  A    between atoms: C5_10  and  N1_4 
REMARK    2  A    between atoms: C6_11  and  N2_5 
REMARK    3  A    between atoms: C5_10  and  C7_12 
REMARK    4  A    between atoms: C6_11  and  C8_13 
REMARK    5  A    between atoms: C15_20  and  C19_24 
ROOT
HETATM    1  N1  UNK     1      26.801  -9.346  37.553  1.00  0.00     0.096 N 
HETATM    2  N2  UNK     1      29.629  -9.078  38.089  1.00  0.00     0.096 N 
HETATM    3  C1  UNK     1      27.319  -9.338  38.927  1.00  0.00     0.303 C 
HETATM    4  C2  UNK     1      27.672  -8.557  36.673  1.00  0.00     0.303 C 
HETATM    5  C3  UNK     1      28.757  -9.866  38.970  1.00  0.00     0.303 C 
HETATM    6  C4  UNK     1      29.111  -9.084  36.715  1.00  0.00     0.303 C 
ENDROOT
BRANCH   1   7
HETATM    7  C5  UNK     1      25.430  -8.841  37.512  1.00  0.00     0.312 C 
BRANCH   7   8
HETATM    8  C7  UNK     1      24.509  -9.774  36.803  1.00  0.00    -0.011 A 
HETATM    9  C10 UNK     1      24.960 -10.917  36.267  1.00  0.00     0.092 A 
HETATM   10  C16 UNK     1      24.089 -11.869  35.557  1.00  0.00     0.288 A 
HETATM   11  O1  UNK     1      22.748 -11.532  35.458  1.00  0.00    -0.275 OA
HETATM   12  O2  UNK     1      24.538 -12.905  35.079  1.00  0.00    -0.260 OA
HETATM   13  C11 UNK     1      22.246 -10.338  36.012  1.00  0.00     0.090 A 
HETATM   14  C9  UNK     1      23.082  -9.445  36.683  1.00  0.00     0.007 A 
HETATM   15  C17 UNK     1      20.879 -10.103  35.852  1.00  0.00     0.039 A 
HETATM   16  C12 UNK     1      22.505  -8.279  37.204  1.00  0.00     0.022 A 
HETATM   17  C15 UNK     1      21.136  -8.029  37.052  1.00  0.00    -0.058 A 
HETATM   18  C18 UNK     1      20.325  -8.939  36.378  1.00  0.00     0.010 A 
BRANCH  17  19
HETATM   19  C19 UNK     1      20.544  -6.781  37.616  1.00  0.00     0.034 C 
HETATM   20  C23 UNK     1      20.221  -6.911  39.102  1.00  0.00     0.010 C 
ENDBRANCH  17  19
ENDBRANCH   7   8
ENDBRANCH   1   7
BRANCH   2  21
HETATM   21  C6  UNK     1      31.000  -9.584  38.129  1.00  0.00     0.311 C 
BRANCH  21  22
HETATM   22  C8  UNK     1      31.933  -8.515  37.657  1.00  0.00    -0.030 A 
HETATM   23  C13 UNK     1      32.038  -7.318  38.366  1.00  0.00     0.010 A 
HETATM   24  C20 UNK     1      32.907  -6.320  37.925  1.00  0.00     0.024 A 
HETATM   25  C22 UNK     1      33.671  -6.519  36.775  1.00  0.00     0.034 A 
HETATM   26  C21 UNK     1      33.566  -7.716  36.066  1.00  0.00     0.024 A 
HETATM   27 Cl1  UNK     1      34.743  -5.288  36.231  1.00  0.00    -0.084 Cl
HETATM   28  C14 UNK     1      32.697  -8.713  36.507  1.00  0.00     0.010 A 
ENDBRANCH  21  22
ENDBRANCH   2  21
TORSDOF 5
ENDMDL
MODEL 4
REMARK VINA RESULT:      -8.8      7.926     11.300
REMARK  5 active torsions:
REMARK  status: ('A' for Active; 'I' for Inactive)
REMARK    1  A    between atoms: C5_10  and  N1_4 
REMARK    2  A    between atoms: C6_11  and  N2_5 
REMARK    3  A    between atoms: C5_10  and  C7_12 
REMARK    4  A    between atoms: C6_11  and  C8_13 
REMARK    5  A    between atoms: C15_20  and  C19_24 
ROOT
HETATM    1  N1  UNK     1      20.070  -4.239  36.867  1.00  0.00     0.096 N 
HETATM    2  N2  UNK     1      20.465  -7.101  36.743  1.00  0.00     0.096 N 
HETATM    3  C1  UNK     1      20.861  -4.945  37.883  1.00  0.00     0.303 C 
HETATM    4  C2  UNK     1      20.146  -4.944  35.581  1.00  0.00     0.303 C 
HETATM    5  C3  UNK     1      20.391  -6.396  38.029  1.00  0.00     0.303 C 
HETATM    6  C4  UNK     1      19.676  -6.395  35.726  1.00  0.00     0.303 C 
ENDROOT
BRANCH   1   7
HETATM    7  C5  UNK     1      20.520  -2.856  36.728  1.00  0.00     0.312 C 
BRANCH   7   8
HETATM    8  C7  UNK     1      19.428  -1.955  36.263  1.00  0.00    -0.011 A 
HETATM    9  C10 UNK     1      18.571  -1.402  37.132  1.00  0.00     0.092 A 
HETATM   10  C16 UNK     1      17.476  -0.506  36.721  1.00  0.00     0.288 A 
HETATM   11  O1  UNK     1      17.359  -0.247  35.364  1.00  0.00    -0.275 OA
HETATM   12  O2  UNK     1      16.710  -0.018  37.545  1.00  0.00    -0.260 OA
HETATM   13  C11 UNK     1      18.246  -0.814  34.428  1.00  0.00     0.090 A 
HETATM   14  C9  UNK     1      19.279  -1.661  34.831  1.00  0.00     0.007 A 
HETATM   15  C17 UNK     1      18.035  -0.483  33.088  1.00  0.00     0.039 A 
HETATM   16  C12 UNK     1      20.118  -2.184  33.838  1.00  0.00     0.022 A 
HETATM   17  C15 UNK     1      19.918  -1.862  32.490  1.00  0.00    -0.058 A 
HETATM   18  C18 UNK     1      18.878  -1.013  32.116  1.00  0.00     0.010 A 
BRANCH  17  19
HETATM   19  C19 UNK     1      20.823  -2.431  31.450  1.00  0.00     0.034 C 
HETATM   20  C23 UNK     1      20.394  -2.050  30.036  1.00  0.00     0.010 C 
ENDBRANCH  17  19
ENDBRANCH   7   8
ENDBRANCH   1   7
BRANCH   2  21
HETATM   21  C6  UNK     1      20.014  -8.485  36.883  1.00  0.00     0.311 C 
BRANCH  21  22
HETATM   22  C8  UNK     1      21.146  -9.406  36.560  1.00  0.00    -0.030 A 
HETATM   23  C13 UNK     1      20.888 -10.670  36.028  1.00  0.00     0.010 A 
HETATM   24  C20 UNK     1      21.944 -11.529  35.727  1.00  0.00     0.024 A 
HETATM   25  C22 UNK     1      23.259 -11.126  35.959  1.00  0.00     0.034 A 
HETATM   26  C21 UNK     1      23.518  -9.863  36.492  1.00  0.00     0.024 A 
HETATM   27 Cl1  UNK     1      24.563 -12.187  35.589  1.00  0.00    -0.084 Cl
HETATM   28  C14 UNK     1      22.461  -9.003  36.793  1.00  0.00     0.010 A 
ENDBRANCH  21  22
ENDBRANCH   2  21
TORSDOF 5
ENDMDL
MODEL 5
REMARK VINA RESULT:      -8.8     17.232     19.483
REMARK  5 active torsions:
REMARK  status: ('A' for Active; 'I' for Inactive)
REMARK    1  A    between atoms: C5_10  and  N1_4 
REMARK    2  A    between atoms: C6_11  and  N2_5 
REMARK    3  A    between atoms: C5_10  and  C7_12 
REMARK    4  A    between atoms: C6_11  and  C8_13 
REMARK    5  A    between atoms: C15_20  and  C19_24 
ROOT
HETATM    1  N1  UNK     1      31.755  -5.705  35.703  1.00  0.00     0.096 N 
HETATM    2  N2  UNK     1      34.312  -6.293  34.488  1.00  0.00     0.096 N 
HETATM    3  C1  UNK     1      32.424  -4.735  34.827  1.00  0.00     0.303 C 
HETATM    4  C2  UNK     1      32.122  -7.075  35.323  1.00  0.00     0.303 C 
HETATM    5  C3  UNK     1      33.944  -4.923  34.867  1.00  0.00     0.303 C 
HETATM    6  C4  UNK     1      33.641  -7.264  35.362  1.00  0.00     0.303 C 
ENDROOT
BRANCH   1   7
HETATM    7  C5  UNK     1      30.305  -5.527  35.664  1.00  0.00     0.312 C 
BRANCH   7   8
HETATM    8  C7  UNK     1      29.701  -5.534  37.025  1.00  0.00    -0.011 A 
HETATM    9  C10 UNK     1      29.950  -4.549  37.899  1.00  0.00     0.092 A 
HETATM   10  C16 UNK     1      29.378  -4.513  39.255  1.00  0.00     0.288 A 
HETATM   11  O1  UNK     1      28.547  -5.564  39.608  1.00  0.00    -0.275 OA
HETATM   12  O2  UNK     1      29.630  -3.594  40.027  1.00  0.00    -0.260 OA
HETATM   13  C11 UNK     1      28.266  -6.614  38.711  1.00  0.00     0.090 A 
HETATM   14  C9  UNK     1      28.815  -6.635  37.429  1.00  0.00     0.007 A 
HETATM   15  C17 UNK     1      27.416  -7.620  39.175  1.00  0.00     0.039 A 
HETATM   16  C12 UNK     1      28.487  -7.715  36.598  1.00  0.00     0.022 A 
HETATM   17  C15 UNK     1      27.636  -8.731  37.048  1.00  0.00    -0.058 A 
HETATM   18  C18 UNK     1      27.102  -8.684  38.334  1.00  0.00     0.010 A 
BRANCH  17  19
HETATM   19  C19 UNK     1      27.300  -9.871  36.146  1.00  0.00     0.034 C 
HETATM   20  C23 UNK     1      26.017 -10.584  36.564  1.00  0.00     0.010 C 
ENDBRANCH  17  19
ENDBRANCH   7   8
ENDBRANCH   1   7
BRANCH   2  21
HETATM   21  C6  UNK     1      35.762  -6.471  34.529  1.00  0.00     0.311 C 
BRANCH  21  22
HETATM   22  C8  UNK     1      36.153  -7.543  33.564  1.00  0.00    -0.030 A 
HETATM   23  C13 UNK     1      35.526  -7.625  32.320  1.00  0.00     0.010 A 
HETATM   24  C20 UNK     1      35.890  -8.626  31.419  1.00  0.00     0.024 A 
HETATM   25  C22 UNK     1      36.881  -9.545  31.762  1.00  0.00     0.034 A 
HETATM   26  C21 UNK     1      37.508  -9.464  33.006  1.00  0.00     0.024 A 
HETATM   27 Cl1  UNK     1      37.330 -10.780  30.651  1.00  0.00    -0.084 Cl
HETATM   28  C14 UNK     1      37.144  -8.464  33.906  1.00  0.00     0.010 A 
ENDBRANCH  21  22
ENDBRANCH   2  21
TORSDOF 5
ENDMDL
MODEL 6
REMARK VINA RESULT:      -8.7     22.476     24.468
REMARK  5 active torsions:
REMARK  status: ('A' for Active; 'I' for Inactive)
REMARK    1  A    between atoms: C5_10  and  N1_4 
REMARK    2  A    between atoms: C6_11  and  N2_5 
REMARK    3  A    between atoms: C5_10  and  C7_12 
REMARK    4  A    between atoms: C6_11  and  C8_13 
REMARK    5  A    between atoms: C15_20  and  C19_24 
ROOT
HETATM    1  N1  UNK     1      11.873   6.332   7.425  1.00  0.00     0.096 N 
HETATM    2  N2  UNK     1       9.066   6.279   8.121  1.00  0.00     0.096 N 
HETATM    3  C1  UNK     1      10.847   6.820   6.495  1.00  0.00     0.303 C 
HETATM    4  C2  UNK     1      11.427   6.505   8.814  1.00  0.00     0.303 C 
HETATM    5  C3  UNK     1       9.512   6.107   6.732  1.00  0.00     0.303 C 
HETATM    6  C4  UNK     1      10.093   5.792   9.052  1.00  0.00     0.303 C 
ENDROOT
BRANCH   1   7
HETATM    7  C5  UNK     1      13.145   7.013   7.200  1.00  0.00     0.312 C 
BRANCH   7   8
HETATM    8  C7  UNK     1      14.145   6.702   8.259  1.00  0.00    -0.011 A 
HETATM    9  C10 UNK     1      14.431   5.435   8.590  1.00  0.00     0.092 A 
HETATM   10  C16 UNK     1      15.410   5.078   9.630  1.00  0.00     0.288 A 
HETATM   11  O1  UNK     1      16.045   6.128  10.276  1.00  0.00    -0.275 OA
HETATM   12  O2  UNK     1      15.646   3.906   9.906  1.00  0.00    -0.260 OA
HETATM   13  C11 UNK     1      15.764   7.469   9.949  1.00  0.00     0.090 A 
HETATM   14  C9  UNK     1      14.834   7.794   8.961  1.00  0.00     0.007 A 
HETATM   15  C17 UNK     1      16.463   8.444  10.664  1.00  0.00     0.039 A 
HETATM   16  C12 UNK     1      14.612   9.152   8.697  1.00  0.00     0.022 A 
HETATM   17  C15 UNK     1      15.304  10.141   9.405  1.00  0.00    -0.058 A 
HETATM   18  C18 UNK     1      16.228   9.788  10.386  1.00  0.00     0.010 A 
BRANCH  17  19
HETATM   19  C19 UNK     1      15.052  11.581   9.106  1.00  0.00     0.034 C 
HETATM   20  C23 UNK     1      15.616  12.000   7.752  1.00  0.00     0.010 C 
ENDBRANCH  17  19
ENDBRANCH   7   8
ENDBRANCH   1   7
BRANCH   2  21
HETATM   21  C6  UNK     1       7.794   5.596   8.347  1.00  0.00     0.311 C 
BRANCH  21  22
HETATM   22  C8  UNK     1       7.260   5.981   9.689  1.00  0.00    -0.030 A 
HETATM   23  C13 UNK     1       6.951   4.994  10.626  1.00  0.00     0.010 A 
HETATM   24  C20 UNK     1       6.453   5.353  11.878  1.00  0.00     0.024 A 
HETATM   25  C22 UNK     1       6.263   6.698  12.194  1.00  0.00     0.034 A 
HETATM   26  C21 UNK     1       6.571   7.684  11.257  1.00  0.00     0.024 A 
HETATM   27 Cl1  UNK     1       5.648   7.141  13.738  1.00  0.00    -0.084 Cl
HETATM   28  C14 UNK     1       7.070   7.326  10.005  1.00  0.00     0.010 A 
ENDBRANCH  21  22
ENDBRANCH   2  21
TORSDOF 5
ENDMDL
MODEL 7
REMARK VINA RESULT:      -8.6      4.963      9.800
REMARK  5 active torsions:
REMARK  status: ('A' for Active; 'I' for Inactive)
REMARK    1  A    between atoms: C5_10  and  N1_4 
REMARK    2  A    between atoms: C6_11  and  N2_5 
REMARK    3  A    between atoms: C5_10  and  C7_12 
REMARK    4  A    between atoms: C6_11  and  C8_13 
REMARK    5  A    between atoms: C15_20  and  C19_24 
ROOT
HETATM    1  N1  UNK     1      17.206   6.245  32.916  1.00  0.00     0.096 N 
HETATM    2  N2  UNK     1      15.515   8.575  33.184  1.00  0.00     0.096 N 
HETATM    3  C1  UNK     1      17.258   7.342  31.941  1.00  0.00     0.303 C 
HETATM    4  C2  UNK     1      16.811   6.753  34.235  1.00  0.00     0.303 C 
HETATM    5  C3  UNK     1      15.911   8.068  31.864  1.00  0.00     0.303 C 
HETATM    6  C4  UNK     1      15.464   7.479  34.160  1.00  0.00     0.303 C 
ENDROOT
BRANCH   1   7
HETATM    7  C5  UNK     1      18.491   5.554  32.989  1.00  0.00     0.312 C 
BRANCH   7   8
HETATM    8  C7  UNK     1      18.437   4.200  32.369  1.00  0.00    -0.011 A 
HETATM    9  C10 UNK     1      18.450   4.047  31.038  1.00  0.00     0.092 A 
HETATM   10  C16 UNK     1      18.397   2.731  30.379  1.00  0.00     0.288 A 
HETATM   11  O1  UNK     1      18.331   1.622  31.209  1.00  0.00    -0.275 OA
HETATM   12  O2  UNK     1      18.411   2.631  29.157  1.00  0.00    -0.260 OA
HETATM   13  C11 UNK     1      18.316   1.751  32.611  1.00  0.00     0.090 A 
HETATM   14  C9  UNK     1      18.367   3.005  33.222  1.00  0.00     0.007 A 
HETATM   15  C17 UNK     1      18.249   0.567  33.347  1.00  0.00     0.039 A 
HETATM   16  C12 UNK     1      18.347   3.049  34.622  1.00  0.00     0.022 A 
HETATM   17  C15 UNK     1      18.279   1.869  35.373  1.00  0.00    -0.058 A 
HETATM   18  C18 UNK     1      18.230   0.631  34.737  1.00  0.00     0.010 A 
BRANCH  17  19
HETATM   19  C19 UNK     1      18.260   1.940  36.864  1.00  0.00     0.034 C 
HETATM   20  C23 UNK     1      17.112   1.135  37.468  1.00  0.00     0.010 C 
ENDBRANCH  17  19
ENDBRANCH   7   8
ENDBRANCH   1   7
BRANCH   2  21
HETATM   21  C6  UNK     1      14.228   9.266  33.110  1.00  0.00     0.311 C 
BRANCH  21  22
HETATM   22  C8  UNK     1      14.453  10.739  33.229  1.00  0.00    -0.030 A 
HETATM   23  C13 UNK     1      13.558  11.631  32.638  1.00  0.00     0.010 A 
HETATM   24  C20 UNK     1      13.768  13.005  32.748  1.00  0.00     0.024 A 
HETATM   25  C22 UNK     1      14.874  13.488  33.448  1.00  0.00     0.034 A 
HETATM   26  C21 UNK     1      15.769  12.596  34.038  1.00  0.00     0.024 A 
HETATM   27 Cl1  UNK     1      15.134  15.184  33.583  1.00  0.00    -0.084 Cl
HETATM   28  C14 UNK     1      15.559  11.222  33.928  1.00  0.00     0.010 A 
ENDBRANCH  21  22
ENDBRANCH   2  21
TORSDOF 5
ENDMDL
MODEL 8
REMARK VINA RESULT:      -8.6      4.669      9.804
REMARK  5 active torsions:
REMARK  status: ('A' for Active; 'I' for Inactive)
REMARK    1  A    between atoms: C5_10  and  N1_4 
REMARK    2  A    between atoms: C6_11  and  N2_5 
REMARK    3  A    between atoms: C5_10  and  C7_12 
REMARK    4  A    between atoms: C6_11  and  C8_13 
REMARK    5  A    between atoms: C15_20  and  C19_24 
ROOT
HETATM    1  N1  UNK     1      18.342   2.041  33.217  1.00  0.00     0.096 N 
HETATM    2  N2  UNK     1      18.625   4.841  32.556  1.00  0.00     0.096 N 
HETATM    3  C1  UNK     1      18.100   3.089  34.217  1.00  0.00     0.303 C 
HETATM    4  C2  UNK     1      18.041   2.540  31.870  1.00  0.00     0.303 C 
HETATM    5  C3  UNK     1      18.925   4.342  33.903  1.00  0.00     0.303 C 
HETATM    6  C4  UNK     1      18.865   3.793  31.556  1.00  0.00     0.303 C 
ENDROOT
BRANCH   1   7
HETATM    7  C5  UNK     1      17.554   0.847  33.516  1.00  0.00     0.312 C 
BRANCH   7   8
HETATM    8  C7  UNK     1      18.401  -0.278  34.003  1.00  0.00    -0.011 A 
HETATM    9  C10 UNK     1      18.421  -0.618  35.300  1.00  0.00     0.092 A 
HETATM   10  C16 UNK     1      19.242  -1.720  35.829  1.00  0.00     0.288 A 
HETATM   11  O1  UNK     1      20.017  -2.415  34.913  1.00  0.00    -0.275 OA
HETATM   12  O2  UNK     1      19.234  -2.002  37.022  1.00  0.00    -0.260 OA
HETATM   13  C11 UNK     1      20.016  -2.080  33.544  1.00  0.00     0.090 A 
HETATM   14  C9  UNK     1      19.233  -1.033  33.057  1.00  0.00     0.007 A 
HETATM   15  C17 UNK     1      20.834  -2.848  32.714  1.00  0.00     0.039 A 
HETATM   16  C12 UNK     1      19.289  -0.764  31.683  1.00  0.00     0.022 A 
HETATM   17  C15 UNK     1      20.105  -1.524  30.837  1.00  0.00    -0.058 A 
HETATM   18  C18 UNK     1      20.876  -2.564  31.352  1.00  0.00     0.010 A 
BRANCH  17  19
HETATM   19  C19 UNK     1      20.149  -1.219  29.377  1.00  0.00     0.034 C 
HETATM   20  C23 UNK     1      19.823   0.242  29.080  1.00  0.00     0.010 C 
ENDBRANCH  17  19
ENDBRANCH   7   8
ENDBRANCH   1   7
BRANCH   2  21
HETATM   21  C6  UNK     1      19.415   6.035  32.257  1.00  0.00     0.311 C 
BRANCH  21  22
HETATM   22  C8  UNK     1      18.715   7.237  32.805  1.00  0.00    -0.030 A 
HETATM   23  C13 UNK     1      17.416   7.536  32.393  1.00  0.00     0.010 A 
HETATM   24  C20 UNK     1      16.763   8.657  32.903  1.00  0.00     0.024 A 
HETATM   25  C22 UNK     1      17.409   9.481  33.825  1.00  0.00     0.034 A 
HETATM   26  C21 UNK     1      18.708   9.183  34.236  1.00  0.00     0.024 A 
HETATM   27 Cl1  UNK     1      16.604  10.866  34.454  1.00  0.00    -0.084 Cl
HETATM   28  C14 UNK     1      19.361   8.061  33.726  1.00  0.00     0.010 A 
ENDBRANCH  21  22
ENDBRANCH   2  21
TORSDOF 5
ENDMDL
MODEL 9
REMARK VINA RESULT:      -8.6     14.016     17.184
REMARK  5 active torsions:
REMARK  status: ('A' for Active; 'I' for Inactive)
REMARK    1  A    between atoms: C5_10  and  N1_4 
REMARK    2  A    between atoms: C6_11  and  N2_5 
REMARK    3  A    between atoms: C5_10  and  C7_12 
REMARK    4  A    between atoms: C6_11  and  C8_13 
REMARK    5  A    between atoms: C15_20  and  C19_24 
ROOT
HETATM    1  N1  UNK     1      25.341  -8.205  38.594  1.00  0.00     0.096 N 
HETATM    2  N2  UNK     1      28.227  -8.078  38.473  1.00  0.00     0.096 N 
HETATM    3  C1  UNK     1      26.178  -9.148  39.347  1.00  0.00     0.303 C 
HETATM    4  C2  UNK     1      26.041  -6.927  38.420  1.00  0.00     0.303 C 
HETATM    5  C3  UNK     1      27.526  -9.356  38.649  1.00  0.00     0.303 C 
HETATM    6  C4  UNK     1      27.389  -7.134  37.723  1.00  0.00     0.303 C 
ENDROOT
BRANCH   1   7
HETATM    7  C5  UNK     1      24.055  -8.007  39.261  1.00  0.00     0.312 C 
BRANCH   7   8
HETATM    8  C7  UNK     1      22.982  -7.615  38.305  1.00  0.00    -0.011 A 
HETATM    9  C10 UNK     1      22.327  -6.453  38.437  1.00  0.00     0.092 A 
HETATM   10  C16 UNK     1      21.259  -6.023  37.519  1.00  0.00     0.288 A 
HETATM   11  O1  UNK     1      20.944  -6.888  36.482  1.00  0.00    -0.275 OA
HETATM   12  O2  UNK     1      20.682  -4.952  37.672  1.00  0.00    -0.260 OA
HETATM   13  C11 UNK     1      21.615  -8.116  36.317  1.00  0.00     0.090 A 
HETATM   14  C9  UNK     1      22.626  -8.510  37.196  1.00  0.00     0.007 A 
HETATM   15  C17 UNK     1      21.215  -8.906  35.238  1.00  0.00     0.039 A 
HETATM   16  C12 UNK     1      23.243  -9.747  36.964  1.00  0.00     0.022 A 
HETATM   17  C15 UNK     1      22.853 -10.550  35.886  1.00  0.00    -0.058 A 
HETATM   18  C18 UNK     1      21.841 -10.131  35.025  1.00  0.00     0.010 A 
BRANCH  17  19
HETATM   19  C19 UNK     1      23.525 -11.863  35.658  1.00  0.00     0.034 C 
HETATM   20  C23 UNK     1      24.994 -11.843  36.073  1.00  0.00     0.010 C 
ENDBRANCH  17  19
ENDBRANCH   7   8
ENDBRANCH   1   7
BRANCH   2  21
HETATM   21  C6  UNK     1      29.512  -8.277  37.806  1.00  0.00     0.311 C 
BRANCH  21  22
HETATM   22  C8  UNK     1      30.122  -6.946  37.506  1.00  0.00    -0.030 A 
HETATM   23  C13 UNK     1      30.526  -6.641  36.205  1.00  0.00     0.010 A 
HETATM   24  C20 UNK     1      31.096  -5.399  35.926  1.00  0.00     0.024 A 
HETATM   25  C22 UNK     1      31.263  -4.462  36.946  1.00  0.00     0.034 A 
HETATM   26  C21 UNK     1      30.860  -4.768  38.246  1.00  0.00     0.024 A 
HETATM   27 Cl1  UNK     1      31.966  -2.930  36.601  1.00  0.00    -0.084 Cl
HETATM   28  C14 UNK     1      30.290  -6.010  38.526  1.00  0.00     0.010 A 
ENDBRANCH  21  22
ENDBRANCH   2  21
TORSDOF 5
ENDMDL
MODEL 10
REMARK VINA RESULT:      -8.5     12.349     16.430
REMARK  5 active torsions:
REMARK  status: ('A' for Active; 'I' for Inactive)
REMARK    1  A    between atoms: C5_10  and  N1_4 
REMARK    2  A    between atoms: C6_11  and  N2_5 
REMARK    3  A    between atoms: C5_10  and  C7_12 
REMARK    4  A    between atoms: C6_11  and  C8_13 
REMARK    5  A    between atoms: C15_20  and  C19_24 
ROOT
HETATM    1  N1  UNK     1      23.746  -9.312  37.213  1.00  0.00     0.096 N 
HETATM    2  N2  UNK     1      26.232  -8.430  38.398  1.00  0.00     0.096 N 
HETATM    3  C1  UNK     1      23.816  -8.082  38.012  1.00  0.00     0.303 C 
HETATM    4  C2  UNK     1      25.036  -9.573  36.562  1.00  0.00     0.303 C 
HETATM    5  C3  UNK     1      24.942  -8.168  39.048  1.00  0.00     0.303 C 
HETATM    6  C4  UNK     1      26.162  -9.660  37.597  1.00  0.00     0.303 C 
ENDROOT
BRANCH   1   7
HETATM    7  C5  UNK     1      22.673  -9.229  36.225  1.00  0.00     0.312 C 
BRANCH   7   8
HETATM    8  C7  UNK     1      21.326  -9.386  36.843  1.00  0.00    -0.011 A 
HETATM    9  C10 UNK     1      20.945 -10.552  37.384  1.00  0.00     0.092 A 
HETATM   10  C16 UNK     1      19.626 -10.756  38.005  1.00  0.00     0.288 A 
HETATM   11  O1  UNK     1      18.765  -9.668  38.011  1.00  0.00    -0.275 OA
HETATM   12  O2  UNK     1      19.312 -11.837  38.491  1.00  0.00    -0.260 OA
HETATM   13  C11 UNK     1      19.139  -8.431  37.450  1.00  0.00     0.090 A 
HETATM   14  C9  UNK     1      20.393  -8.252  36.865  1.00  0.00     0.007 A 
HETATM   15  C17 UNK     1      18.192  -7.407  37.513  1.00  0.00     0.039 A 
HETATM   16  C12 UNK     1      20.686  -6.991  36.328  1.00  0.00     0.022 A 
HETATM   17  C15 UNK     1      19.748  -5.954  36.383  1.00  0.00    -0.058 A 
HETATM   18  C18 UNK     1      18.503  -6.162  36.975  1.00  0.00     0.010 A 
BRANCH  17  19
HETATM   19  C19 UNK     1      20.083  -4.620  35.806  1.00  0.00     0.034 C 
HETATM   20  C23 UNK     1      20.086  -3.516  36.860  1.00  0.00     0.010 C 
ENDBRANCH  17  19
ENDBRANCH   7   8
ENDBRANCH   1   7
BRANCH   2  21
HETATM   21  C6  UNK     1      27.305  -8.515  39.387  1.00  0.00     0.311 C 
BRANCH  21  22
HETATM   22  C8  UNK     1      28.403  -7.576  39.003  1.00  0.00    -0.030 A 
HETATM   23  C13 UNK     1      28.303  -6.220  39.318  1.00  0.00     0.010 A 
HETATM   24  C20 UNK     1      29.327  -5.344  38.959  1.00  0.00     0.024 A 
HETATM   25  C22 UNK     1      30.451  -5.823  38.285  1.00  0.00     0.034 A 
HETATM   26  C21 UNK     1      30.550  -7.178  37.970  1.00  0.00     0.024 A 
HETATM   27 Cl1  UNK     1      31.715  -4.742  37.842  1.00  0.00    -0.084 Cl
HETATM   28  C14 UNK     1      29.526  -8.054  38.329  1.00  0.00     0.010 A 
ENDBRANCH  21  22
ENDBRANCH   2  21
TORSDOF 5
ENDMDL
