MODEL 1
REMARK VINA RESULT:      -9.3      0.000      0.000
REMARK  3 active torsions:
REMARK  status: ('A' for Active; 'I' for Inactive)
REMARK       I    between atoms: C10_14  and  N1_4 
REMARK    1  A    between atoms: C2_6  and  N1_4 
REMARK    2  A    between atoms: C1_5  and  C3_7 
REMARK    3  A    between atoms: C10_14  and  C6_10 
ROOT
HETATM    1  O2  UNK     1      17.584   3.243  32.840  1.00  0.00    -0.267 OA
HETATM    2  N1  UNK     1      18.686   4.745  31.400  1.00  0.00    -0.323 N 
HETATM    3  C10 UNK     1      18.260   3.503  31.847  1.00  0.00     0.262 C 
HETATM    4  H6  UNK     1      19.226   4.792  30.539  1.00  0.00     0.169 HD
ENDROOT
BRANCH   3   5
HETATM    5  C6  UNK     1      18.713   2.415  30.971  1.00  0.00     0.108 A 
HETATM    6  C14 UNK     1      18.716   2.542  29.497  1.00  0.00     0.304 A 
HETATM    7  O1  UNK     1      19.170   1.442  28.775  1.00  0.00    -0.274 OA
HETATM    8  O3  UNK     1      18.340   3.565  28.933  1.00  0.00    -0.259 OA
HETATM    9  C7  UNK     1      19.604   0.263  29.411  1.00  0.00     0.089 A 
HETATM   10  C16 UNK     1      20.039  -0.785  28.604  1.00  0.00     0.038 A 
HETATM   11  C4  UNK     1      19.592   0.164  30.798  1.00  0.00    -0.001 A 
HETATM   12  C18 UNK     1      20.474  -1.965  29.204  1.00  0.00     0.003 A 
HETATM   13  C17 UNK     1      20.469  -2.084  30.596  1.00  0.00     0.001 A 
HETATM   14  C13 UNK     1      20.030  -1.023  31.393  1.00  0.00     0.014 A 
HETATM   15  C8  UNK     1      19.125   1.296  31.581  1.00  0.00     0.037 A 
ENDBRANCH   3   5
BRANCH   2  16
HETATM   16  C2  UNK     1      18.435   6.008  31.991  1.00  0.00     0.035 A 
HETATM   17  C11 UNK     1      17.372   6.768  31.536  1.00  0.00     0.029 A 
HETATM   18  C12 UNK     1      17.126   8.013  32.118  1.00  0.00     0.003 A 
HETATM   19  C9  UNK     1      17.946   8.477  33.144  1.00  0.00     0.007 A 
HETATM   20  C1  UNK     1      19.015   7.698  33.592  1.00  0.00    -0.056 A 
HETATM   21  C5  UNK     1      19.261   6.454  33.010  1.00  0.00     0.036 A 
BRANCH  20  22
HETATM   22  C3  UNK     1      19.893   8.195  34.689  1.00  0.00     0.034 C 
HETATM   23  C15 UNK     1      20.402   9.610  34.439  1.00  0.00     0.010 C 
ENDBRANCH  20  22
ENDBRANCH   2  16
TORSDOF 3
ENDMDL
MODEL 2
REMARK VINA RESULT:      -9.1      0.651      2.003
REMARK  3 active torsions:
REMARK  status: ('A' for Active; 'I' for Inactive)
REMARK       I    between atoms: C10_14  and  N1_4 
REMARK    1  A    between atoms: C2_6  and  N1_4 
REMARK    2  A    between atoms: C1_5  and  C3_7 
REMARK    3  A    between atoms: C10_14  and  C6_10 
ROOT
HETATM    1  O2  UNK     1      17.627   3.211  32.871  1.00  0.00    -0.267 OA
HETATM    2  N1  UNK     1      18.750   4.703  31.436  1.00  0.00    -0.323 N 
HETATM    3  C10 UNK     1      18.304   3.465  31.876  1.00  0.00     0.262 C 
HETATM    4  H6  UNK     1      19.288   4.745  30.573  1.00  0.00     0.169 HD
ENDROOT
BRANCH   3   5
HETATM    5  C6  UNK     1      18.735   2.375  30.992  1.00  0.00     0.108 A 
HETATM    6  C14 UNK     1      18.709   2.502  29.518  1.00  0.00     0.304 A 
HETATM    7  O1  UNK     1      19.143   1.400  28.787  1.00  0.00    -0.274 OA
HETATM    8  O3  UNK     1      18.326   3.526  28.962  1.00  0.00    -0.259 OA
HETATM    9  C7  UNK     1      19.584   0.218  29.416  1.00  0.00     0.089 A 
HETATM   10  C16 UNK     1      19.999  -0.832  28.600  1.00  0.00     0.038 A 
HETATM   11  C4  UNK     1      19.600   0.120  30.802  1.00  0.00    -0.001 A 
HETATM   12  C18 UNK     1      20.441  -2.013  29.192  1.00  0.00     0.003 A 
HETATM   13  C17 UNK     1      20.463  -2.132  30.583  1.00  0.00     0.001 A 
HETATM   14  C13 UNK     1      20.044  -1.068  31.389  1.00  0.00     0.014 A 
HETATM   15  C8  UNK     1      19.154   1.255  31.594  1.00  0.00     0.037 A 
ENDBRANCH   3   5
BRANCH   2  16
HETATM   16  C2  UNK     1      18.524   5.966  32.036  1.00  0.00     0.035 A 
HETATM   17  C11 UNK     1      19.523   6.535  32.808  1.00  0.00     0.029 A 
HETATM   18  C12 UNK     1      19.300   7.779  33.400  1.00  0.00     0.003 A 
HETATM   19  C9  UNK     1      18.083   8.433  33.213  1.00  0.00     0.007 A 
HETATM   20  C1  UNK     1      17.087   7.844  32.432  1.00  0.00    -0.056 A 
HETATM   21  C5  UNK     1      17.310   6.601  31.840  1.00  0.00     0.036 A 
BRANCH  20  22
HETATM   22  C3  UNK     1      15.785   8.544  32.233  1.00  0.00     0.034 C 
HETATM   23  C15 UNK     1      14.589   7.606  32.358  1.00  0.00     0.010 C 
ENDBRANCH  20  22
ENDBRANCH   2  16
TORSDOF 3
ENDMDL
MODEL 3
REMARK VINA RESULT:      -9.1      7.341     11.972
REMARK  3 active torsions:
REMARK  status: ('A' for Active; 'I' for Inactive)
REMARK       I    between atoms: C10_14  and  N1_4 
REMARK    1  A    between atoms: C2_6  and  N1_4 
REMARK    2  A    between atoms: C1_5  and  C3_7 
REMARK    3  A    between atoms: C10_14  and  C6_10 
ROOT
HETATM    1  O2  UNK     1      21.232  -4.344  37.264  1.00  0.00    -0.267 OA
HETATM    2  N1  UNK     1      19.365  -5.258  36.158  1.00  0.00    -0.323 N 
HETATM    3  C10 UNK     1      20.198  -4.243  36.607  1.00  0.00     0.262 C 
HETATM    4  H6  UNK     1      18.551  -5.007  35.602  1.00  0.00     0.169 HD
ENDROOT
BRANCH   3   5
HETATM    5  C6  UNK     1      19.717  -2.915  36.206  1.00  0.00     0.108 A 
HETATM    6  C14 UNK     1      19.987  -2.354  34.863  1.00  0.00     0.304 A 
HETATM    7  O1  UNK     1      19.478  -1.086  34.601  1.00  0.00    -0.274 OA
HETATM    8  O3  UNK     1      20.626  -2.973  34.018  1.00  0.00    -0.259 OA
HETATM    9  C7  UNK     1      18.742  -0.366  35.564  1.00  0.00     0.089 A 
HETATM   10  C16 UNK     1      18.274   0.896  35.210  1.00  0.00     0.038 A 
HETATM   11  C4  UNK     1      18.500  -0.912  36.820  1.00  0.00    -0.001 A 
HETATM   12  C18 UNK     1      17.544   1.632  36.141  1.00  0.00     0.003 A 
HETATM   13  C17 UNK     1      17.291   1.101  37.408  1.00  0.00     0.001 A 
HETATM   14  C13 UNK     1      17.768  -0.168  37.749  1.00  0.00     0.014 A 
HETATM   15  C8  UNK     1      19.018  -2.237  37.124  1.00  0.00     0.037 A 
ENDBRANCH   3   5
BRANCH   2  16
HETATM   16  C2  UNK     1      19.519  -6.653  36.357  1.00  0.00     0.035 A 
HETATM   17  C11 UNK     1      18.735  -7.291  37.303  1.00  0.00     0.029 A 
HETATM   18  C12 UNK     1      18.887  -8.664  37.500  1.00  0.00     0.003 A 
HETATM   19  C9  UNK     1      19.820  -9.377  36.749  1.00  0.00     0.007 A 
HETATM   20  C1  UNK     1      20.603  -8.718  35.799  1.00  0.00    -0.056 A 
HETATM   21  C5  UNK     1      20.450  -7.345  35.603  1.00  0.00     0.036 A 
BRANCH  20  22
HETATM   22  C3  UNK     1      21.601  -9.481  34.997  1.00  0.00     0.034 C 
HETATM   23  C15 UNK     1      21.671 -10.953  35.390  1.00  0.00     0.010 C 
ENDBRANCH  20  22
ENDBRANCH   2  16
TORSDOF 3
ENDMDL
MODEL 4
REMARK VINA RESULT:      -9.1      1.702      7.686
REMARK  3 active torsions:
REMARK  status: ('A' for Active; 'I' for Inactive)
REMARK       I    between atoms: C10_14  and  N1_4 
REMARK    1  A    between atoms: C2_6  and  N1_4 
REMARK    2  A    between atoms: C1_5  and  C3_7 
REMARK    3  A    between atoms: C10_14  and  C6_10 
ROOT
HETATM    1  O2  UNK     1      17.100   2.598  30.612  1.00  0.00    -0.267 OA
HETATM    2  N1  UNK     1      19.432   2.325  30.798  1.00  0.00    -0.323 N 
HETATM    3  C10 UNK     1      18.223   2.997  30.914  1.00  0.00     0.262 C 
HETATM    4  H6  UNK     1      20.278   2.792  31.116  1.00  0.00     0.169 HD
ENDROOT
BRANCH   3   5
HETATM    5  C6  UNK     1      18.390   4.344  31.475  1.00  0.00     0.108 A 
HETATM    6  C14 UNK     1      19.261   5.357  30.839  1.00  0.00     0.304 A 
HETATM    7  O1  UNK     1      19.337   6.598  31.464  1.00  0.00    -0.274 OA
HETATM    8  O3  UNK     1      19.886   5.121  29.809  1.00  0.00    -0.259 OA
HETATM    9  C7  UNK     1      18.624   6.879  32.647  1.00  0.00     0.089 A 
HETATM   10  C16 UNK     1      18.764   8.150  33.200  1.00  0.00     0.038 A 
HETATM   11  C4  UNK     1      17.812   5.912  33.228  1.00  0.00    -0.001 A 
HETATM   12  C18 UNK     1      18.072   8.458  34.369  1.00  0.00     0.003 A 
HETATM   13  C17 UNK     1      17.252   7.499  34.969  1.00  0.00     0.001 A 
HETATM   14  C13 UNK     1      17.121   6.228  34.401  1.00  0.00     0.014 A 
HETATM   15  C8  UNK     1      17.710   4.606  32.598  1.00  0.00     0.037 A 
ENDBRANCH   3   5
BRANCH   2  16
HETATM   16  C2  UNK     1      19.648   1.016  30.302  1.00  0.00     0.035 A 
HETATM   17  C11 UNK     1      19.455   0.764  28.954  1.00  0.00     0.029 A 
HETATM   18  C12 UNK     1      19.667  -0.526  28.466  1.00  0.00     0.003 A 
HETATM   19  C9  UNK     1      20.066  -1.543  29.331  1.00  0.00     0.007 A 
HETATM   20  C1  UNK     1      20.256  -1.272  30.687  1.00  0.00    -0.056 A 
HETATM   21  C5  UNK     1      20.044   0.018  31.176  1.00  0.00     0.036 A 
BRANCH  20  22
HETATM   22  C3  UNK     1      20.683  -2.360  31.613  1.00  0.00     0.034 C 
HETATM   23  C15 UNK     1      20.168  -2.159  33.034  1.00  0.00     0.010 C 
ENDBRANCH  20  22
ENDBRANCH   2  16
TORSDOF 3
ENDMDL
MODEL 5
REMARK VINA RESULT:      -9.0      1.940      8.126
REMARK  3 active torsions:
REMARK  status: ('A' for Active; 'I' for Inactive)
REMARK       I    between atoms: C10_14  and  N1_4 
REMARK    1  A    between atoms: C2_6  and  N1_4 
REMARK    2  A    between atoms: C1_5  and  C3_7 
REMARK    3  A    between atoms: C10_14  and  C6_10 
ROOT
HETATM    1  O2  UNK     1      19.514   5.079  30.418  1.00  0.00    -0.267 OA
HETATM    2  N1  UNK     1      18.083   3.356  31.147  1.00  0.00    -0.323 N 
HETATM    3  C10 UNK     1      18.605   4.642  31.122  1.00  0.00     0.262 C 
HETATM    4  H6  UNK     1      17.310   3.160  31.778  1.00  0.00     0.169 HD
ENDROOT
BRANCH   3   5
HETATM    5  C6  UNK     1      17.936   5.529  32.081  1.00  0.00     0.108 A 
HETATM    6  C14 UNK     1      18.005   5.302  33.542  1.00  0.00     0.304 A 
HETATM    7  O1  UNK     1      17.331   6.213  34.349  1.00  0.00    -0.274 OA
HETATM    8  O3  UNK     1      18.626   4.359  34.023  1.00  0.00    -0.259 OA
HETATM    9  C7  UNK     1      16.615   7.299  33.808  1.00  0.00     0.089 A 
HETATM   10  C16 UNK     1      15.971   8.157  34.696  1.00  0.00     0.038 A 
HETATM   11  C4  UNK     1      16.562   7.494  32.432  1.00  0.00    -0.001 A 
HETATM   12  C18 UNK     1      15.255   9.239  34.191  1.00  0.00     0.003 A 
HETATM   13  C17 UNK     1      15.189   9.451  32.812  1.00  0.00     0.001 A 
HETATM   14  C13 UNK     1      15.841   8.581  31.932  1.00  0.00     0.014 A 
HETATM   15  C8  UNK     1      17.257   6.559  31.561  1.00  0.00     0.037 A 
ENDBRANCH   3   5
BRANCH   2  16
HETATM   16  C2  UNK     1      18.481   2.247  30.361  1.00  0.00     0.035 A 
HETATM   17  C11 UNK     1      17.965   2.103  29.085  1.00  0.00     0.029 A 
HETATM   18  C12 UNK     1      18.357   1.010  28.311  1.00  0.00     0.003 A 
HETATM   19  C9  UNK     1      19.257   0.078  28.825  1.00  0.00     0.007 A 
HETATM   20  C1  UNK     1      19.767   0.238  30.115  1.00  0.00    -0.056 A 
HETATM   21  C5  UNK     1      19.376   1.331  30.888  1.00  0.00     0.036 A 
BRANCH  20  22
HETATM   22  C3  UNK     1      20.730  -0.760  30.665  1.00  0.00     0.034 C 
HETATM   23  C15 UNK     1      20.391  -2.190  30.258  1.00  0.00     0.010 C 
ENDBRANCH  20  22
ENDBRANCH   2  16
TORSDOF 3
ENDMDL
MODEL 6
REMARK VINA RESULT:      -8.9      1.285      2.232
REMARK  3 active torsions:
REMARK  status: ('A' for Active; 'I' for Inactive)
REMARK       I    between atoms: C10_14  and  N1_4 
REMARK    1  A    between atoms: C2_6  and  N1_4 
REMARK    2  A    between atoms: C1_5  and  C3_7 
REMARK    3  A    between atoms: C10_14  and  C6_10 
ROOT
HETATM    1  O2  UNK     1      18.716   4.812  30.192  1.00  0.00    -0.267 OA
HETATM    2  N1  UNK     1      17.633   4.722  32.280  1.00  0.00    -0.323 N 
HETATM    3  C10 UNK     1      18.340   4.216  31.200  1.00  0.00     0.262 C 
HETATM    4  H6  UNK     1      17.414   4.096  33.052  1.00  0.00     0.169 HD
ENDROOT
BRANCH   3   5
HETATM    5  C6  UNK     1      18.638   2.786  31.353  1.00  0.00     0.108 A 
HETATM    6  C14 UNK     1      18.380   2.062  32.617  1.00  0.00     0.304 A 
HETATM    7  O1  UNK     1      18.704   0.708  32.639  1.00  0.00    -0.274 OA
HETATM    8  O3  UNK     1      17.903   2.620  33.600  1.00  0.00    -0.259 OA
HETATM    9  C7  UNK     1      19.252   0.056  31.517  1.00  0.00     0.089 A 
HETATM   10  C16 UNK     1      19.544  -1.300  31.635  1.00  0.00     0.038 A 
HETATM   11  C4  UNK     1      19.487   0.756  30.339  1.00  0.00    -0.001 A 
HETATM   12  C18 UNK     1      20.087  -1.973  30.542  1.00  0.00     0.003 A 
HETATM   13  C17 UNK     1      20.331  -1.286  29.351  1.00  0.00     0.001 A 
HETATM   14  C13 UNK     1      20.032   0.076  29.247  1.00  0.00     0.014 A 
HETATM   15  C8  UNK     1      19.158   2.172  30.283  1.00  0.00     0.037 A 
ENDBRANCH   3   5
BRANCH   2  16
HETATM   16  C2  UNK     1      17.180   6.051  32.471  1.00  0.00     0.035 A 
HETATM   17  C11 UNK     1      15.890   6.385  32.096  1.00  0.00     0.029 A 
HETATM   18  C12 UNK     1      15.445   7.694  32.282  1.00  0.00     0.003 A 
HETATM   19  C9  UNK     1      16.295   8.648  32.840  1.00  0.00     0.007 A 
HETATM   20  C1  UNK     1      17.593   8.294  33.212  1.00  0.00    -0.056 A 
HETATM   21  C5  UNK     1      18.038   6.985  33.026  1.00  0.00     0.036 A 
BRANCH  20  22
HETATM   22  C3  UNK     1      18.503   9.314  33.808  1.00  0.00     0.034 C 
HETATM   23  C15 UNK     1      19.741   8.695  34.449  1.00  0.00     0.010 C 
ENDBRANCH  20  22
ENDBRANCH   2  16
TORSDOF 3
ENDMDL
MODEL 7
REMARK VINA RESULT:      -8.8      7.940     11.941
REMARK  3 active torsions:
REMARK  status: ('A' for Active; 'I' for Inactive)
REMARK       I    between atoms: C10_14  and  N1_4 
REMARK    1  A    between atoms: C2_6  and  N1_4 
REMARK    2  A    between atoms: C1_5  and  C3_7 
REMARK    3  A    between atoms: C10_14  and  C6_10 
ROOT
HETATM    1  O2  UNK     1      20.097  -5.259  35.517  1.00  0.00    -0.267 OA
HETATM    2  N1  UNK     1      20.624  -4.548  37.699  1.00  0.00    -0.323 N 
HETATM    3  C10 UNK     1      20.170  -4.402  36.396  1.00  0.00     0.262 C 
HETATM    4  H6  UNK     1      20.600  -3.738  38.314  1.00  0.00     0.169 HD
ENDROOT
BRANCH   3   5
HETATM    5  C6  UNK     1      19.741  -3.028  36.110  1.00  0.00     0.108 A 
HETATM    6  C14 UNK     1      20.099  -2.339  34.850  1.00  0.00     0.304 A 
HETATM    7  O1  UNK     1      19.632  -1.037  34.694  1.00  0.00    -0.274 OA
HETATM    8  O3  UNK     1      20.772  -2.885  33.981  1.00  0.00    -0.259 OA
HETATM    9  C7  UNK     1      18.859  -0.401  35.685  1.00  0.00     0.089 A 
HETATM   10  C16 UNK     1      18.438   0.903  35.439  1.00  0.00     0.038 A 
HETATM   11  C4  UNK     1      18.534  -1.066  36.862  1.00  0.00    -0.001 A 
HETATM   12  C18 UNK     1      17.672   1.559  36.401  1.00  0.00     0.003 A 
HETATM   13  C17 UNK     1      17.337   0.908  37.590  1.00  0.00     0.001 A 
HETATM   14  C13 UNK     1      17.766  -0.402  37.823  1.00  0.00     0.014 A 
HETATM   15  C8  UNK     1      19.006  -2.428  37.055  1.00  0.00     0.037 A 
ENDBRANCH   3   5
BRANCH   2  16
HETATM   16  C2  UNK     1      21.111  -5.726  38.317  1.00  0.00     0.035 A 
HETATM   17  C11 UNK     1      22.448  -5.802  38.668  1.00  0.00     0.029 A 
HETATM   18  C12 UNK     1      22.928  -6.963  39.276  1.00  0.00     0.003 A 
HETATM   19  C9  UNK     1      22.064  -8.029  39.523  1.00  0.00     0.007 A 
HETATM   20  C1  UNK     1      20.719  -7.936  39.163  1.00  0.00    -0.056 A 
HETATM   21  C5  UNK     1      20.240  -6.775  38.555  1.00  0.00     0.036 A 
BRANCH  20  22
HETATM   22  C3  UNK     1      19.796  -9.077  39.426  1.00  0.00     0.034 C 
HETATM   23  C15 UNK     1      19.032  -9.515  38.181  1.00  0.00     0.010 C 
ENDBRANCH  20  22
ENDBRANCH   2  16
TORSDOF 3
ENDMDL
MODEL 8
REMARK VINA RESULT:      -8.8      1.627      2.870
REMARK  3 active torsions:
REMARK  status: ('A' for Active; 'I' for Inactive)
REMARK       I    between atoms: C10_14  and  N1_4 
REMARK    1  A    between atoms: C2_6  and  N1_4 
REMARK    2  A    between atoms: C1_5  and  C3_7 
REMARK    3  A    between atoms: C10_14  and  C6_10 
ROOT
HETATM    1  O2  UNK     1      17.217   4.306  31.358  1.00  0.00    -0.267 OA
HETATM    2  N1  UNK     1      18.758   4.509  33.127  1.00  0.00    -0.323 N 
HETATM    3  C10 UNK     1      18.076   3.852  32.113  1.00  0.00     0.262 C 
HETATM    4  H6  UNK     1      19.460   3.992  33.652  1.00  0.00     0.169 HD
ENDROOT
BRANCH   3   5
HETATM    5  C6  UNK     1      18.486   2.448  31.988  1.00  0.00     0.108 A 
HETATM    6  C14 UNK     1      18.367   1.492  33.111  1.00  0.00     0.304 A 
HETATM    7  O1  UNK     1      18.788   0.188  32.870  1.00  0.00    -0.274 OA
HETATM    8  O3  UNK     1      17.918   1.827  34.203  1.00  0.00    -0.259 OA
HETATM    9  C7  UNK     1      19.305  -0.207  31.620  1.00  0.00     0.089 A 
HETATM   10  C16 UNK     1      19.702  -1.534  31.475  1.00  0.00     0.038 A 
HETATM   11  C4  UNK     1      19.409   0.707  30.579  1.00  0.00    -0.001 A 
HETATM   12  C18 UNK     1      20.217  -1.955  30.250  1.00  0.00     0.003 A 
HETATM   13  C17 UNK     1      20.330  -1.051  29.192  1.00  0.00     0.001 A 
HETATM   14  C13 UNK     1      19.927   0.278  29.354  1.00  0.00     0.014 A 
HETATM   15  C8  UNK     1      18.976   2.078  30.798  1.00  0.00     0.037 A 
ENDBRANCH   3   5
BRANCH   2  16
HETATM   16  C2  UNK     1      18.620   5.861  33.527  1.00  0.00     0.035 A 
HETATM   17  C11 UNK     1      19.743   6.668  33.577  1.00  0.00     0.029 A 
HETATM   18  C12 UNK     1      19.607   8.000  33.972  1.00  0.00     0.003 A 
HETATM   19  C9  UNK     1      18.351   8.502  34.311  1.00  0.00     0.007 A 
HETATM   20  C1  UNK     1      17.229   7.674  34.256  1.00  0.00    -0.056 A 
HETATM   21  C5  UNK     1      17.365   6.343  33.861  1.00  0.00     0.036 A 
BRANCH  20  22
HETATM   22  C3  UNK     1      15.887   8.211  34.619  1.00  0.00     0.034 C 
HETATM   23  C15 UNK     1      14.756   7.543  33.844  1.00  0.00     0.010 C 
ENDBRANCH  20  22
ENDBRANCH   2  16
TORSDOF 3
ENDMDL
MODEL 9
REMARK VINA RESULT:      -8.7      8.050     10.094
REMARK  3 active torsions:
REMARK  status: ('A' for Active; 'I' for Inactive)
REMARK       I    between atoms: C10_14  and  N1_4 
REMARK    1  A    between atoms: C2_6  and  N1_4 
REMARK    2  A    between atoms: C1_5  and  C3_7 
REMARK    3  A    between atoms: C10_14  and  C6_10 
ROOT
HETATM    1  O2  UNK     1      21.181  -3.484  36.899  1.00  0.00    -0.267 OA
HETATM    2  N1  UNK     1      18.838  -3.515  36.664  1.00  0.00    -0.323 N 
HETATM    3  C10 UNK     1      20.104  -4.068  36.793  1.00  0.00     0.262 C 
HETATM    4  H6  UNK     1      18.039  -4.142  36.607  1.00  0.00     0.169 HD
ENDROOT
BRANCH   3   5
HETATM    5  C6  UNK     1      20.069  -5.536  36.794  1.00  0.00     0.108 A 
HETATM    6  C14 UNK     1      20.124  -6.324  35.543  1.00  0.00     0.304 A 
HETATM    7  O1  UNK     1      20.085  -7.709  35.674  1.00  0.00    -0.274 OA
HETATM    8  O3  UNK     1      20.202  -5.789  34.442  1.00  0.00    -0.259 OA
HETATM    9  C7  UNK     1      19.995  -8.335  36.933  1.00  0.00     0.089 A 
HETATM   10  C16 UNK     1      19.961  -9.727  36.963  1.00  0.00     0.038 A 
HETATM   11  C4  UNK     1      19.944  -7.575  38.096  1.00  0.00    -0.001 A 
HETATM   12  C18 UNK     1      19.872 -10.374  38.194  1.00  0.00     0.003 A 
HETATM   13  C17 UNK     1      19.819  -9.628  39.373  1.00  0.00     0.001 A 
HETATM   14  C13 UNK     1      19.855  -8.231  39.327  1.00  0.00     0.014 A 
HETATM   15  C8  UNK     1      19.985  -6.125  37.993  1.00  0.00     0.037 A 
ENDBRANCH   3   5
BRANCH   2  16
HETATM   16  C2  UNK     1      18.496  -2.141  36.626  1.00  0.00     0.035 A 
HETATM   17  C11 UNK     1      18.122  -1.505  37.797  1.00  0.00     0.029 A 
HETATM   18  C12 UNK     1      17.784  -0.152  37.760  1.00  0.00     0.003 A 
HETATM   19  C9  UNK     1      17.823   0.544  36.552  1.00  0.00     0.007 A 
HETATM   20  C1  UNK     1      18.202  -0.113  35.380  1.00  0.00    -0.056 A 
HETATM   21  C5  UNK     1      18.540  -1.466  35.418  1.00  0.00     0.036 A 
BRANCH  20  22
HETATM   22  C3  UNK     1      18.243   0.631  34.089  1.00  0.00     0.034 C 
HETATM   23  C15 UNK     1      18.194   2.144  34.279  1.00  0.00     0.010 C 
ENDBRANCH  20  22
ENDBRANCH   2  16
TORSDOF 3
ENDMDL
MODEL 10
REMARK VINA RESULT:      -8.6      1.667      7.850
REMARK  3 active torsions:
REMARK  status: ('A' for Active; 'I' for Inactive)
REMARK       I    between atoms: C10_14  and  N1_4 
REMARK    1  A    between atoms: C2_6  and  N1_4 
REMARK    2  A    between atoms: C1_5  and  C3_7 
REMARK    3  A    between atoms: C10_14  and  C6_10 
ROOT
HETATM    1  O2  UNK     1      18.020   3.332  33.170  1.00  0.00    -0.267 OA
HETATM    2  N1  UNK     1      18.477   4.009  30.961  1.00  0.00    -0.323 N 
HETATM    3  C10 UNK     1      18.189   4.191  32.306  1.00  0.00     0.262 C 
HETATM    4  H6  UNK     1      18.610   4.832  30.378  1.00  0.00     0.169 HD
ENDROOT
BRANCH   3   5
HETATM    5  C6  UNK     1      18.091   5.611  32.664  1.00  0.00     0.108 A 
HETATM    6  C14 UNK     1      16.845   6.386  32.468  1.00  0.00     0.304 A 
HETATM    7  O1  UNK     1      16.875   7.725  32.846  1.00  0.00    -0.274 OA
HETATM    8  O3  UNK     1      15.832   5.879  31.997  1.00  0.00    -0.259 OA
HETATM    9  C7  UNK     1      18.033   8.319  33.388  1.00  0.00     0.089 A 
HETATM   10  C16 UNK     1      17.967   9.666  33.736  1.00  0.00     0.038 A 
HETATM   11  C4  UNK     1      19.193   7.573  33.562  1.00  0.00    -0.001 A 
HETATM   12  C18 UNK     1      19.096  10.281  34.273  1.00  0.00     0.003 A 
HETATM   13  C17 UNK     1      20.271   9.548  34.455  1.00  0.00     0.001 A 
HETATM   14  C13 UNK     1      20.321   8.196  34.102  1.00  0.00     0.014 A 
HETATM   15  C8  UNK     1      19.193   6.170  33.178  1.00  0.00     0.037 A 
ENDBRANCH   3   5
BRANCH   2  16
HETATM   16  C2  UNK     1      18.643   2.782  30.272  1.00  0.00     0.035 A 
HETATM   17  C11 UNK     1      17.924   2.557  29.111  1.00  0.00     0.029 A 
HETATM   18  C12 UNK     1      18.087   1.348  28.433  1.00  0.00     0.003 A 
HETATM   19  C9  UNK     1      18.966   0.385  28.925  1.00  0.00     0.007 A 
HETATM   20  C1  UNK     1      19.683   0.628  30.098  1.00  0.00    -0.056 A 
HETATM   21  C5  UNK     1      19.520   1.837  30.776  1.00  0.00     0.036 A 
BRANCH  20  22
HETATM   22  C3  UNK     1      20.622  -0.403  30.625  1.00  0.00     0.034 C 
HETATM   23  C15 UNK     1      19.905  -1.655  31.118  1.00  0.00     0.010 C 
ENDBRANCH  20  22
ENDBRANCH   2  16
TORSDOF 3
ENDMDL
