MODEL 1
REMARK VINA RESULT:      -7.7      0.000      0.000
REMARK  2 active torsions:
REMARK  status: ('A' for Active; 'I' for Inactive)
REMARK    1  A    between atoms: C13_18  and  O4_4 
REMARK       I    between atoms: C5_10  and  N1_5 
REMARK    2  A    between atoms: C5_10  and  C6_11 
ROOT
HETATM    1  O2  UNK     1      11.591   6.743   6.491  1.00  0.00    -0.274 OA
HETATM    2  O3  UNK     1      13.860   6.996   6.412  1.00  0.00    -0.259 OA
HETATM    3  C6  UNK     1      12.960   6.102   8.413  1.00  0.00     0.108 A 
HETATM    4  C7  UNK     1      11.873   5.723   9.095  1.00  0.00     0.037 A 
HETATM    5  C8  UNK     1      10.553   5.839   8.495  1.00  0.00     0.002 A 
HETATM    6  C9  UNK     1      12.867   6.646   7.040  1.00  0.00     0.304 A 
HETATM    7  C10 UNK     1      10.443   6.347   7.204  1.00  0.00     0.089 A 
HETATM    8  C11 UNK     1       9.392   5.457   9.170  1.00  0.00     0.051 A 
HETATM    9  C12 UNK     1       9.208   6.483   6.572  1.00  0.00     0.041 A 
HETATM   10  C13 UNK     1       8.146   5.587   8.549  1.00  0.00     0.069 A 
HETATM   11  C14 UNK     1       8.055   6.100   7.252  1.00  0.00     0.039 A 
ENDROOT
BRANCH   3  12
HETATM   12  C5  UNK     1      14.253   5.946   9.108  1.00  0.00     0.259 C 
HETATM   13  O1  UNK     1      14.907   4.920   8.921  1.00  0.00    -0.267 OA
HETATM   14  N1  UNK     1      14.643   6.985   9.930  1.00  0.00    -0.348 N 
HETATM   15  C3  UNK     1      15.901   6.946  10.663  1.00  0.00     0.126 C 
HETATM   16  C4  UNK     1      13.925   8.230  10.199  1.00  0.00     0.126 C 
HETATM   17  C1  UNK     1      16.110   8.375  11.139  1.00  0.00     0.021 C 
HETATM   18  C2  UNK     1      14.687   8.872  11.351  1.00  0.00     0.021 C 
ENDBRANCH   3  12
BRANCH  10  19
HETATM   19  O4  UNK     1       7.015   5.214   9.210  1.00  0.00    -0.356 OA
HETATM   20  C15 UNK     1       7.001   3.911   9.789  1.00  0.00     0.210 C 
ENDBRANCH  10  19
TORSDOF 2
ENDMDL
MODEL 2
REMARK VINA RESULT:      -7.6      2.219      6.743
REMARK  2 active torsions:
REMARK  status: ('A' for Active; 'I' for Inactive)
REMARK    1  A    between atoms: C13_18  and  O4_4 
REMARK       I    between atoms: C5_10  and  N1_5 
REMARK    2  A    between atoms: C5_10  and  C6_11 
ROOT
HETATM    1  O2  UNK     1      14.248   5.311   9.348  1.00  0.00    -0.274 OA
HETATM    2  O3  UNK     1      12.628   4.116   8.269  1.00  0.00    -0.259 OA
HETATM    3  C6  UNK     1      12.755   6.428   7.766  1.00  0.00     0.108 A 
HETATM    4  C7  UNK     1      13.362   7.601   7.980  1.00  0.00     0.037 A 
HETATM    5  C8  UNK     1      14.472   7.693   8.916  1.00  0.00     0.002 A 
HETATM    6  C9  UNK     1      13.181   5.193   8.461  1.00  0.00     0.304 A 
HETATM    7  C10 UNK     1      14.890   6.543   9.579  1.00  0.00     0.089 A 
HETATM    8  C11 UNK     1      15.134   8.897   9.170  1.00  0.00     0.051 A 
HETATM    9  C12 UNK     1      15.948   6.563  10.486  1.00  0.00     0.041 A 
HETATM   10  C13 UNK     1      16.197   8.932  10.078  1.00  0.00     0.069 A 
HETATM   11  C14 UNK     1      16.602   7.767  10.735  1.00  0.00     0.039 A 
ENDROOT
BRANCH   3  12
HETATM   12  C5  UNK     1      11.639   6.438   6.800  1.00  0.00     0.259 C 
HETATM   13  O1  UNK     1      11.888   6.279   5.605  1.00  0.00    -0.267 OA
HETATM   14  N1  UNK     1      10.372   6.624   7.319  1.00  0.00    -0.348 N 
HETATM   15  C3  UNK     1       9.194   6.648   6.463  1.00  0.00     0.126 C 
HETATM   16  C4  UNK     1      10.000   6.816   8.720  1.00  0.00     0.126 C 
HETATM   17  C1  UNK     1       8.022   6.517   7.424  1.00  0.00     0.021 C 
HETATM   18  C2  UNK     1       8.532   7.219   8.675  1.00  0.00     0.021 C 
ENDBRANCH   3  12
BRANCH  10  19
HETATM   19  O4  UNK     1      16.839  10.107  10.325  1.00  0.00    -0.356 OA
HETATM   20  C15 UNK     1      17.486  10.737   9.222  1.00  0.00     0.210 C 
ENDBRANCH  10  19
TORSDOF 2
ENDMDL
MODEL 3
REMARK VINA RESULT:      -7.4      1.724      1.966
REMARK  2 active torsions:
REMARK  status: ('A' for Active; 'I' for Inactive)
REMARK    1  A    between atoms: C13_18  and  O4_4 
REMARK       I    between atoms: C5_10  and  N1_5 
REMARK    2  A    between atoms: C5_10  and  C6_11 
ROOT
HETATM    1  O2  UNK     1      12.563   5.799   7.073  1.00  0.00    -0.274 OA
HETATM    2  O3  UNK     1      14.783   5.725   7.607  1.00  0.00    -0.259 OA
HETATM    3  C6  UNK     1      13.368   6.895   9.105  1.00  0.00     0.108 A 
HETATM    4  C7  UNK     1      12.130   7.304   9.407  1.00  0.00     0.037 A 
HETATM    5  C8  UNK     1      11.014   6.974   8.533  1.00  0.00     0.002 A 
HETATM    6  C9  UNK     1      13.650   6.101   7.888  1.00  0.00     0.304 A 
HETATM    7  C10 UNK     1      11.258   6.227   7.384  1.00  0.00     0.089 A 
HETATM    8  C11 UNK     1       9.707   7.381   8.808  1.00  0.00     0.051 A 
HETATM    9  C12 UNK     1      10.234   5.876   6.506  1.00  0.00     0.041 A 
HETATM   10  C13 UNK     1       8.669   7.036   7.937  1.00  0.00     0.069 A 
HETATM   11  C14 UNK     1       8.932   6.286   6.788  1.00  0.00     0.039 A 
ENDROOT
BRANCH   3  12
HETATM   12  C5  UNK     1      14.431   7.281  10.053  1.00  0.00     0.259 C 
HETATM   13  O1  UNK     1      14.681   6.534  10.999  1.00  0.00    -0.267 OA
HETATM   14  N1  UNK     1      15.082   8.473   9.802  1.00  0.00    -0.348 N 
HETATM   15  C3  UNK     1      16.152   8.954  10.665  1.00  0.00     0.126 C 
HETATM   16  C4  UNK     1      14.843   9.407   8.702  1.00  0.00     0.126 C 
HETATM   17  C1  UNK     1      16.815  10.066   9.867  1.00  0.00     0.021 C 
HETATM   18  C2  UNK     1      15.657  10.642   9.064  1.00  0.00     0.021 C 
ENDBRANCH   3  12
BRANCH  10  19
HETATM   19  O4  UNK     1       7.395   7.435   8.208  1.00  0.00    -0.356 OA
HETATM   20  C15 UNK     1       7.030   7.551   9.581  1.00  0.00     0.210 C 
ENDBRANCH  10  19
TORSDOF 2
ENDMDL
MODEL 4
REMARK VINA RESULT:      -7.4      2.801      7.138
REMARK  2 active torsions:
REMARK  status: ('A' for Active; 'I' for Inactive)
REMARK    1  A    between atoms: C13_18  and  O4_4 
REMARK       I    between atoms: C5_10  and  N1_5 
REMARK    2  A    between atoms: C5_10  and  C6_11 
ROOT
HETATM    1  O2  UNK     1      14.473   6.928  10.274  1.00  0.00    -0.274 OA
HETATM    2  O3  UNK     1      12.574   5.670  10.455  1.00  0.00    -0.259 OA
HETATM    3  C6  UNK     1      12.392   7.702   9.250  1.00  0.00     0.108 A 
HETATM    4  C7  UNK     1      12.996   8.806   8.794  1.00  0.00     0.037 A 
HETATM    5  C8  UNK     1      14.407   9.034   9.063  1.00  0.00     0.002 A 
HETATM    6  C9  UNK     1      13.124   6.683  10.034  1.00  0.00     0.304 A 
HETATM    7  C10 UNK     1      15.114   8.087   9.798  1.00  0.00     0.089 A 
HETATM    8  C11 UNK     1      15.077  10.172   8.607  1.00  0.00     0.051 A 
HETATM    9  C12 UNK     1      16.468   8.246  10.089  1.00  0.00     0.041 A 
HETATM   10  C13 UNK     1      16.436  10.345   8.891  1.00  0.00     0.069 A 
HETATM   11  C14 UNK     1      17.129   9.383   9.631  1.00  0.00     0.039 A 
ENDROOT
BRANCH   3  12
HETATM   12  C5  UNK     1      10.959   7.562   8.926  1.00  0.00     0.259 C 
HETATM   13  O1  UNK     1      10.125   7.925   9.755  1.00  0.00    -0.267 OA
HETATM   14  N1  UNK     1      10.653   7.026   7.690  1.00  0.00    -0.348 N 
HETATM   15  C3  UNK     1       9.275   6.844   7.257  1.00  0.00     0.126 C 
HETATM   16  C4  UNK     1      11.585   6.576   6.657  1.00  0.00     0.126 C 
HETATM   17  C1  UNK     1       9.375   6.579   5.763  1.00  0.00     0.021 C 
HETATM   18  C2  UNK     1      10.710   5.858   5.638  1.00  0.00     0.021 C 
ENDBRANCH   3  12
BRANCH  10  19
HETATM   19  O4  UNK     1      17.086  11.456   8.447  1.00  0.00    -0.356 OA
HETATM   20  C15 UNK     1      16.392  12.286   7.518  1.00  0.00     0.210 C 
ENDBRANCH  10  19
TORSDOF 2
ENDMDL
MODEL 5
REMARK VINA RESULT:      -7.3     24.132     26.498
REMARK  2 active torsions:
REMARK  status: ('A' for Active; 'I' for Inactive)
REMARK    1  A    between atoms: C13_18  and  O4_4 
REMARK       I    between atoms: C5_10  and  N1_5 
REMARK    2  A    between atoms: C5_10  and  C6_11 
ROOT
HETATM    1  O2  UNK     1      20.561  -2.609  32.059  1.00  0.00    -0.274 OA
HETATM    2  O3  UNK     1      20.606  -3.446  34.184  1.00  0.00    -0.259 OA
HETATM    3  C6  UNK     1      19.489  -1.379  33.881  1.00  0.00     0.108 A 
HETATM    4  C7  UNK     1      19.109  -0.411  33.039  1.00  0.00     0.037 A 
HETATM    5  C8  UNK     1      19.446  -0.493  31.626  1.00  0.00     0.002 A 
HETATM    6  C9  UNK     1      20.255  -2.557  33.417  1.00  0.00     0.304 A 
HETATM    7  C10 UNK     1      20.165  -1.593  31.169  1.00  0.00     0.089 A 
HETATM    8  C11 UNK     1      19.070   0.495  30.712  1.00  0.00     0.051 A 
HETATM    9  C12 UNK     1      20.518  -1.732  29.827  1.00  0.00     0.041 A 
HETATM   10  C13 UNK     1      19.418   0.369  29.363  1.00  0.00     0.069 A 
HETATM   11  C14 UNK     1      20.141  -0.742  28.923  1.00  0.00     0.039 A 
ENDROOT
BRANCH   3  12
HETATM   12  C5  UNK     1      19.100  -1.204  35.294  1.00  0.00     0.259 C 
HETATM   13  O1  UNK     1      19.885  -1.558  36.173  1.00  0.00    -0.267 OA
HETATM   14  N1  UNK     1      17.860  -0.643  35.529  1.00  0.00    -0.348 N 
HETATM   15  C3  UNK     1      17.370  -0.417  36.882  1.00  0.00     0.126 C 
HETATM   16  C4  UNK     1      16.878  -0.198  34.541  1.00  0.00     0.126 C 
HETATM   17  C1  UNK     1      16.178   0.510  36.707  1.00  0.00     0.021 C 
HETATM   18  C2  UNK     1      15.622   0.092  35.352  1.00  0.00     0.021 C 
ENDBRANCH   3  12
BRANCH  10  19
HETATM   19  O4  UNK     1      19.052   1.334  28.476  1.00  0.00    -0.356 OA
HETATM   20  C15 UNK     1      17.933   2.147  28.825  1.00  0.00     0.210 C 
ENDBRANCH  10  19
TORSDOF 2
ENDMDL
MODEL 6
REMARK VINA RESULT:      -7.2     21.986     24.218
REMARK  2 active torsions:
REMARK  status: ('A' for Active; 'I' for Inactive)
REMARK    1  A    between atoms: C13_18  and  O4_4 
REMARK       I    between atoms: C5_10  and  N1_5 
REMARK    2  A    between atoms: C5_10  and  C6_11 
ROOT
HETATM    1  O2  UNK     1      19.207   0.521  28.691  1.00  0.00    -0.274 OA
HETATM    2  O3  UNK     1      18.158   2.483  28.169  1.00  0.00    -0.259 OA
HETATM    3  C6  UNK     1      18.463   2.020  30.473  1.00  0.00     0.108 A 
HETATM    4  C7  UNK     1      18.928   1.183  31.408  1.00  0.00     0.037 A 
HETATM    5  C8  UNK     1      19.572  -0.063  31.022  1.00  0.00     0.002 A 
HETATM    6  C9  UNK     1      18.584   1.719  29.029  1.00  0.00     0.304 A 
HETATM    7  C10 UNK     1      19.697  -0.364  29.669  1.00  0.00     0.089 A 
HETATM    8  C11 UNK     1      20.071  -0.966  31.964  1.00  0.00     0.051 A 
HETATM    9  C12 UNK     1      20.305  -1.541  29.234  1.00  0.00     0.041 A 
HETATM   10  C13 UNK     1      20.684  -2.150  31.541  1.00  0.00     0.069 A 
HETATM   11  C14 UNK     1      20.800  -2.436  30.179  1.00  0.00     0.039 A 
ENDROOT
BRANCH   3  12
HETATM   12  C5  UNK     1      17.825   3.258  30.965  1.00  0.00     0.259 C 
HETATM   13  O1  UNK     1      16.645   3.218  31.313  1.00  0.00    -0.267 OA
HETATM   14  N1  UNK     1      18.616   4.389  31.001  1.00  0.00    -0.348 N 
HETATM   15  C3  UNK     1      18.098   5.666  31.472  1.00  0.00     0.126 C 
HETATM   16  C4  UNK     1      20.019   4.511  30.608  1.00  0.00     0.126 C 
HETATM   17  C1  UNK     1      19.335   6.525  31.685  1.00  0.00     0.021 C 
HETATM   18  C2  UNK     1      20.291   6.010  30.618  1.00  0.00     0.021 C 
ENDBRANCH   3  12
BRANCH  10  19
HETATM   19  O4  UNK     1      21.168  -3.029  32.462  1.00  0.00    -0.356 OA
HETATM   20  C15 UNK     1      20.681  -2.905  33.796  1.00  0.00     0.210 C 
ENDBRANCH  10  19
TORSDOF 2
ENDMDL
MODEL 7
REMARK VINA RESULT:      -7.1     23.240     24.659
REMARK  2 active torsions:
REMARK  status: ('A' for Active; 'I' for Inactive)
REMARK    1  A    between atoms: C13_18  and  O4_4 
REMARK       I    between atoms: C5_10  and  N1_5 
REMARK    2  A    between atoms: C5_10  and  C6_11 
ROOT
HETATM    1  O2  UNK     1      18.788   4.670  30.292  1.00  0.00    -0.274 OA
HETATM    2  O3  UNK     1      18.518   6.934  30.431  1.00  0.00    -0.259 OA
HETATM    3  C6  UNK     1      18.067   5.688  32.395  1.00  0.00     0.108 A 
HETATM    4  C7  UNK     1      18.014   4.489  32.988  1.00  0.00     0.037 A 
HETATM    5  C8  UNK     1      18.352   3.286  32.242  1.00  0.00     0.002 A 
HETATM    6  C9  UNK     1      18.468   5.838  30.978  1.00  0.00     0.304 A 
HETATM    7  C10 UNK     1      18.732   3.406  30.909  1.00  0.00     0.089 A 
HETATM    8  C11 UNK     1      18.308   2.015  32.820  1.00  0.00     0.051 A 
HETATM    9  C12 UNK     1      19.069   2.293  30.140  1.00  0.00     0.041 A 
HETATM   10  C13 UNK     1      18.644   0.889  32.061  1.00  0.00     0.069 A 
HETATM   11  C14 UNK     1      19.023   1.029  30.723  1.00  0.00     0.039 A 
ENDROOT
BRANCH   3  12
HETATM   12  C5  UNK     1      17.705   6.847  33.235  1.00  0.00     0.259 C 
HETATM   13  O1  UNK     1      18.557   7.325  33.983  1.00  0.00    -0.267 OA
HETATM   14  N1  UNK     1      16.414   7.320  33.112  1.00  0.00    -0.348 N 
HETATM   15  C3  UNK     1      15.943   8.461  33.885  1.00  0.00     0.126 C 
HETATM   16  C4  UNK     1      15.353   6.807  32.246  1.00  0.00     0.126 C 
HETATM   17  C1  UNK     1      14.640   8.865  33.215  1.00  0.00     0.021 C 
HETATM   18  C2  UNK     1      14.097   7.537  32.705  1.00  0.00     0.021 C 
ENDBRANCH   3  12
BRANCH  10  19
HETATM   19  O4  UNK     1      18.599  -0.348  32.626  1.00  0.00    -0.356 OA
HETATM   20  C15 UNK     1      19.370  -1.374  32.005  1.00  0.00     0.210 C 
ENDBRANCH  10  19
TORSDOF 2
ENDMDL
MODEL 8
REMARK VINA RESULT:      -7.0     24.571     26.709
REMARK  2 active torsions:
REMARK  status: ('A' for Active; 'I' for Inactive)
REMARK    1  A    between atoms: C13_18  and  O4_4 
REMARK       I    between atoms: C5_10  and  N1_5 
REMARK    2  A    between atoms: C5_10  and  C6_11 
ROOT
HETATM    1  O2  UNK     1      17.901   2.411  32.536  1.00  0.00    -0.274 OA
HETATM    2  O3  UNK     1      18.112   4.218  31.155  1.00  0.00    -0.259 OA
HETATM    3  C6  UNK     1      18.679   4.549  33.431  1.00  0.00     0.108 A 
HETATM    4  C7  UNK     1      18.790   4.025  34.658  1.00  0.00     0.037 A 
HETATM    5  C8  UNK     1      18.452   2.630  34.893  1.00  0.00     0.002 A 
HETATM    6  C9  UNK     1      18.216   3.743  32.280  1.00  0.00     0.304 A 
HETATM    7  C10 UNK     1      18.015   1.854  33.824  1.00  0.00     0.089 A 
HETATM    8  C11 UNK     1      18.551   2.043  36.157  1.00  0.00     0.051 A 
HETATM    9  C12 UNK     1      17.676   0.511  33.983  1.00  0.00     0.041 A 
HETATM   10  C13 UNK     1      18.215   0.697  36.331  1.00  0.00     0.069 A 
HETATM   11  C14 UNK     1      17.778  -0.067  35.246  1.00  0.00     0.039 A 
ENDROOT
BRANCH   3  12
HETATM   12  C5  UNK     1      19.046   5.972  33.294  1.00  0.00     0.259 C 
HETATM   13  O1  UNK     1      20.193   6.259  32.953  1.00  0.00    -0.267 OA
HETATM   14  N1  UNK     1      18.053   6.895  33.561  1.00  0.00    -0.348 N 
HETATM   15  C3  UNK     1      18.296   8.327  33.455  1.00  0.00     0.126 C 
HETATM   16  C4  UNK     1      16.674   6.631  33.968  1.00  0.00     0.126 C 
HETATM   17  C1  UNK     1      16.909   8.952  33.476  1.00  0.00     0.021 C 
HETATM   18  C2  UNK     1      16.123   7.995  34.361  1.00  0.00     0.021 C 
ENDBRANCH   3  12
BRANCH  10  19
HETATM   19  O4  UNK     1      18.312   0.127  37.564  1.00  0.00    -0.356 OA
HETATM   20  C15 UNK     1      17.992  -1.258  37.667  1.00  0.00     0.210 C 
ENDBRANCH  10  19
TORSDOF 2
ENDMDL
MODEL 9
REMARK VINA RESULT:      -7.0      3.100      7.453
REMARK  2 active torsions:
REMARK  status: ('A' for Active; 'I' for Inactive)
REMARK    1  A    between atoms: C13_18  and  O4_4 
REMARK       I    between atoms: C5_10  and  N1_5 
REMARK    2  A    between atoms: C5_10  and  C6_11 
ROOT
HETATM    1  O2  UNK     1      15.325   7.704  10.090  1.00  0.00    -0.274 OA
HETATM    2  O3  UNK     1      13.621   6.235  10.490  1.00  0.00    -0.259 OA
HETATM    3  C6  UNK     1      13.086   8.165   9.223  1.00  0.00     0.108 A 
HETATM    4  C7  UNK     1      13.507   9.308   8.669  1.00  0.00     0.037 A 
HETATM    5  C8  UNK     1      14.896   9.721   8.803  1.00  0.00     0.002 A 
HETATM    6  C9  UNK     1      14.002   7.284   9.981  1.00  0.00     0.304 A 
HETATM    7  C10 UNK     1      15.774   8.906   9.512  1.00  0.00     0.089 A 
HETATM    8  C11 UNK     1      15.377  10.906   8.244  1.00  0.00     0.051 A 
HETATM    9  C12 UNK     1      17.116   9.244   9.676  1.00  0.00     0.041 A 
HETATM   10  C13 UNK     1      16.722  11.258   8.400  1.00  0.00     0.069 A 
HETATM   11  C14 UNK     1      17.589  10.428   9.115  1.00  0.00     0.039 A 
ENDROOT
BRANCH   3  12
HETATM   12  C5  UNK     1      11.660   7.834   9.032  1.00  0.00     0.259 C 
HETATM   13  O1  UNK     1      10.857   8.146   9.910  1.00  0.00    -0.267 OA
HETATM   14  N1  UNK     1      11.326   7.189   7.857  1.00  0.00    -0.348 N 
HETATM   15  C3  UNK     1       9.951   6.817   7.556  1.00  0.00     0.126 C 
HETATM   16  C4  UNK     1      12.221   6.790   6.772  1.00  0.00     0.126 C 
HETATM   17  C1  UNK     1       9.964   6.473   6.075  1.00  0.00     0.021 C 
HETATM   18  C2  UNK     1      11.364   5.910   5.872  1.00  0.00     0.021 C 
ENDBRANCH   3  12
BRANCH  10  19
HETATM   19  O4  UNK     1      17.188  12.415   7.854  1.00  0.00    -0.356 OA
HETATM   20  C15 UNK     1      18.302  12.313   6.970  1.00  0.00     0.210 C 
ENDBRANCH  10  19
TORSDOF 2
ENDMDL
MODEL 10
REMARK VINA RESULT:      -7.0     22.938     24.700
REMARK  2 active torsions:
REMARK  status: ('A' for Active; 'I' for Inactive)
REMARK    1  A    between atoms: C13_18  and  O4_4 
REMARK       I    between atoms: C5_10  and  N1_5 
REMARK    2  A    between atoms: C5_10  and  C6_11 
ROOT
HETATM    1  O2  UNK     1      19.022   3.983  29.856  1.00  0.00    -0.274 OA
HETATM    2  O3  UNK     1      18.689   6.239  29.721  1.00  0.00    -0.259 OA
HETATM    3  C6  UNK     1      18.034   5.188  31.741  1.00  0.00     0.108 A 
HETATM    4  C7  UNK     1      17.936   4.055  32.448  1.00  0.00     0.037 A 
HETATM    5  C8  UNK     1      18.386   2.794  31.878  1.00  0.00     0.002 A 
HETATM    6  C9  UNK     1      18.598   5.204  30.373  1.00  0.00     0.304 A 
HETATM    7  C10 UNK     1      18.920   2.788  30.594  1.00  0.00     0.089 A 
HETATM    8  C11 UNK     1      18.301   1.589  32.579  1.00  0.00     0.051 A 
HETATM    9  C12 UNK     1      19.370   1.614  29.992  1.00  0.00     0.041 A 
HETATM   10  C13 UNK     1      18.749   0.403  31.989  1.00  0.00     0.069 A 
HETATM   11  C14 UNK     1      19.282   0.416  30.697  1.00  0.00     0.039 A 
ENDROOT
BRANCH   3  12
HETATM   12  C5  UNK     1      17.550   6.414  32.405  1.00  0.00     0.259 C 
HETATM   13  O1  UNK     1      16.355   6.698  32.326  1.00  0.00    -0.267 OA
HETATM   14  N1  UNK     1      18.493   7.165  33.080  1.00  0.00    -0.348 N 
HETATM   15  C3  UNK     1      18.132   8.392  33.777  1.00  0.00     0.126 C 
HETATM   16  C4  UNK     1      19.922   6.891  33.218  1.00  0.00     0.126 C 
HETATM   17  C1  UNK     1      19.336   8.701  34.654  1.00  0.00     0.021 C 
HETATM   18  C2  UNK     1      20.498   8.159  33.834  1.00  0.00     0.021 C 
ENDBRANCH   3  12
BRANCH  10  19
HETATM   19  O4  UNK     1      18.664  -0.771  32.674  1.00  0.00    -0.356 OA
HETATM   20  C15 UNK     1      18.254  -0.698  34.038  1.00  0.00     0.210 C 
ENDBRANCH  10  19
TORSDOF 2
ENDMDL
