MODEL 1
REMARK VINA RESULT:      -9.2      0.000      0.000
REMARK  5 active torsions:
REMARK  status: ('A' for Active; 'I' for Inactive)
REMARK    1  A    between atoms: C5_14  and  N1_6 
REMARK    2  A    between atoms: C6_15  and  N2_7 
REMARK    3  A    between atoms: C6_15  and  N3_8 
REMARK    4  A    between atoms: C9_18  and  N3_8 
REMARK    5  A    between atoms: C12_21  and  N4_9 
ROOT
HETATM    1  S1  UNK     1      17.813  -1.678  37.982  1.00  0.00    -0.041 SA
HETATM    2  C6  UNK     1      18.446  -1.749  36.429  1.00  0.00     0.174 C 
ENDROOT
BRANCH   2   3
HETATM    3  N2  UNK     1      18.424  -0.647  35.638  1.00  0.00    -0.355 N 
HETATM    4  C3  UNK     1      17.910  -0.707  34.278  1.00  0.00     0.145 C 
HETATM    5  C1  UNK     1      18.545   0.352  33.378  1.00  0.00     0.143 C 
HETATM    6  N1  UNK     1      18.380   1.691  33.957  1.00  0.00    -0.378 N 
HETATM    7  C2  UNK     1      18.239   1.809  35.413  1.00  0.00     0.143 C 
HETATM    8  C4  UNK     1      18.913   0.636  36.120  1.00  0.00     0.145 C 
BRANCH   6   9
HETATM    9  C5  UNK     1      18.362   2.821  33.144  1.00  0.00     0.030 A 
HETATM   10  C7  UNK     1      18.288   4.124  33.694  1.00  0.00     0.032 A 
HETATM   11  C10 UNK     1      18.272   5.256  32.879  1.00  0.00     0.038 A 
HETATM   12  C12 UNK     1      18.330   5.118  31.492  1.00  0.00     0.103 A 
HETATM   13  C11 UNK     1      18.404   3.849  30.919  1.00  0.00     0.038 A 
HETATM   14  C8  UNK     1      18.420   2.716  31.734  1.00  0.00     0.032 A 
BRANCH  12  15
HETATM   15  N4  UNK     1      18.312   6.271  30.663  1.00  0.00    -0.116 N 
HETATM   16  O2  UNK     1      17.459   7.165  30.882  1.00  0.00    -0.532 OA
HETATM   17  O3  UNK     1      19.150   6.365  29.734  1.00  0.00    -0.532 OA
ENDBRANCH  12  15
ENDBRANCH   6   9
ENDBRANCH   2   3
BRANCH   2  18
HETATM   18  N3  UNK     1      19.046  -2.906  35.962  1.00  0.00    -0.333 N 
HETATM   19  H11 UNK     1      19.093  -2.970  34.948  1.00  0.00     0.168 HD
BRANCH  18  20
HETATM   20  C9  UNK     1      19.615  -3.992  36.627  1.00  0.00     0.036 A 
HETATM   21  C13 UNK     1      18.975  -5.227  36.623  1.00  0.00     0.067 A 
HETATM   22  C15 UNK     1      19.564  -6.301  37.294  1.00  0.00     0.092 A 
HETATM   23  C14 UNK     1      20.778  -6.181  37.974  1.00  0.00     0.004 A 
HETATM   24  O1  UNK     1      18.869  -7.526  37.254  1.00  0.00    -0.275 OA
HETATM   25  C17 UNK     1      21.406  -4.928  37.965  1.00  0.00     0.017 A 
HETATM   26  C18 UNK     1      21.324  -7.363  38.653  1.00  0.00    -0.043 A 
HETATM   27  C16 UNK     1      20.828  -3.843  37.297  1.00  0.00     0.030 A 
HETATM   28  C19 UNK     1      20.641  -8.516  38.598  1.00  0.00     0.090 A 
HETATM   29  C20 UNK     1      22.626  -7.267  39.391  1.00  0.00     0.049 C 
HETATM   30  C21 UNK     1      19.361  -8.659  37.885  1.00  0.00     0.288 A 
HETATM   31  O4  UNK     1      18.765  -9.730  37.857  1.00  0.00    -0.260 OA
ENDBRANCH  18  20
ENDBRANCH   2  18
TORSDOF 5
ENDMDL
MODEL 2
REMARK VINA RESULT:      -9.2      2.388     10.970
REMARK  5 active torsions:
REMARK  status: ('A' for Active; 'I' for Inactive)
REMARK    1  A    between atoms: C5_14  and  N1_6 
REMARK    2  A    between atoms: C6_15  and  N2_7 
REMARK    3  A    between atoms: C6_15  and  N3_8 
REMARK    4  A    between atoms: C9_18  and  N3_8 
REMARK    5  A    between atoms: C12_21  and  N4_9 
ROOT
HETATM    1  S1  UNK     1      15.754   0.599  35.724  1.00  0.00    -0.041 SA
HETATM    2  C6  UNK     1      17.430   0.521  35.687  1.00  0.00     0.174 C 
ENDROOT
BRANCH   2   3
HETATM    3  N2  UNK     1      18.058  -0.659  35.913  1.00  0.00    -0.355 N 
HETATM    4  C3  UNK     1      17.323  -1.828  36.372  1.00  0.00     0.145 C 
HETATM    5  C1  UNK     1      18.207  -2.783  37.173  1.00  0.00     0.143 C 
HETATM    6  N1  UNK     1      19.394  -3.164  36.398  1.00  0.00    -0.378 N 
HETATM    7  C2  UNK     1      19.884  -2.238  35.371  1.00  0.00     0.143 C 
HETATM    8  C4  UNK     1      19.492  -0.800  35.706  1.00  0.00     0.145 C 
BRANCH   6   9
HETATM    9  C5  UNK     1      20.041  -4.374  36.635  1.00  0.00     0.030 A 
HETATM   10  C7  UNK     1      19.783  -5.517  35.840  1.00  0.00     0.032 A 
HETATM   11  C10 UNK     1      20.433  -6.728  36.077  1.00  0.00     0.038 A 
HETATM   12  C12 UNK     1      21.360  -6.831  37.114  1.00  0.00     0.103 A 
HETATM   13  C11 UNK     1      21.637  -5.724  37.915  1.00  0.00     0.038 A 
HETATM   14  C8  UNK     1      20.987  -4.512  37.679  1.00  0.00     0.032 A 
BRANCH  12  15
HETATM   15  N4  UNK     1      22.021  -8.065  37.355  1.00  0.00    -0.116 N 
HETATM   16  O2  UNK     1      23.264  -8.066  37.521  1.00  0.00    -0.532 OA
HETATM   17  O3  UNK     1      21.343  -9.120  37.396  1.00  0.00    -0.532 OA
ENDBRANCH  12  15
ENDBRANCH   6   9
ENDBRANCH   2   3
BRANCH   2  18
HETATM   18  N3  UNK     1      18.182   1.640  35.370  1.00  0.00    -0.333 N 
HETATM   19  H11 UNK     1      18.782   1.965  36.125  1.00  0.00     0.168 HD
BRANCH  18  20
HETATM   20  C9  UNK     1      18.284   2.391  34.201  1.00  0.00     0.036 A 
HETATM   21  C13 UNK     1      18.210   1.767  32.959  1.00  0.00     0.067 A 
HETATM   22  C15 UNK     1      18.313   2.539  31.801  1.00  0.00     0.092 A 
HETATM   23  C14 UNK     1      18.491   3.923  31.841  1.00  0.00     0.004 A 
HETATM   24  O1  UNK     1      18.230   1.850  30.574  1.00  0.00    -0.275 OA
HETATM   25  C17 UNK     1      18.563   4.533  33.101  1.00  0.00     0.017 A 
HETATM   26  C18 UNK     1      18.590   4.656  30.572  1.00  0.00    -0.043 A 
HETATM   27  C16 UNK     1      18.461   3.772  34.270  1.00  0.00     0.030 A 
HETATM   28  C19 UNK     1      18.507   3.975  29.420  1.00  0.00     0.090 A 
HETATM   29  C20 UNK     1      18.780   6.145  30.580  1.00  0.00     0.049 C 
HETATM   30  C21 UNK     1      18.319   2.516  29.361  1.00  0.00     0.288 A 
HETATM   31  O4  UNK     1      18.249   1.926  28.289  1.00  0.00    -0.260 OA
ENDBRANCH  18  20
ENDBRANCH   2  18
TORSDOF 5
ENDMDL
MODEL 3
REMARK VINA RESULT:      -9.2      6.063      9.235
REMARK  5 active torsions:
REMARK  status: ('A' for Active; 'I' for Inactive)
REMARK    1  A    between atoms: C5_14  and  N1_6 
REMARK    2  A    between atoms: C6_15  and  N2_7 
REMARK    3  A    between atoms: C6_15  and  N3_8 
REMARK    4  A    between atoms: C9_18  and  N3_8 
REMARK    5  A    between atoms: C12_21  and  N4_9 
ROOT
HETATM    1  S1  UNK     1      19.707   5.911  31.909  1.00  0.00    -0.041 SA
HETATM    2  C6  UNK     1      18.083   5.603  32.202  1.00  0.00     0.174 C 
ENDROOT
BRANCH   2   3
HETATM    3  N2  UNK     1      17.272   6.599  32.636  1.00  0.00    -0.355 N 
HETATM    4  C3  UNK     1      16.027   6.910  31.950  1.00  0.00     0.145 C 
HETATM    5  C1  UNK     1      15.623   8.372  32.131  1.00  0.00     0.143 C 
HETATM    6  N1  UNK     1      15.552   8.718  33.555  1.00  0.00    -0.378 N 
HETATM    7  C2  UNK     1      16.380   7.959  34.500  1.00  0.00     0.143 C 
HETATM    8  C4  UNK     1      17.617   7.396  33.804  1.00  0.00     0.145 C 
BRANCH   6   9
HETATM    9  C5  UNK     1      14.723   9.745  33.999  1.00  0.00     0.030 A 
HETATM   10  C7  UNK     1      14.777  10.212  35.335  1.00  0.00     0.032 A 
HETATM   11  C10 UNK     1      13.947  11.242  35.778  1.00  0.00     0.038 A 
HETATM   12  C12 UNK     1      13.040  11.834  34.900  1.00  0.00     0.103 A 
HETATM   13  C11 UNK     1      12.963  11.398  33.578  1.00  0.00     0.038 A 
HETATM   14  C8  UNK     1      13.792  10.367  33.133  1.00  0.00     0.032 A 
BRANCH  12  15
HETATM   15  N4  UNK     1      12.195  12.881  35.352  1.00  0.00    -0.116 N 
HETATM   16  O2  UNK     1      11.080  12.592  35.850  1.00  0.00    -0.532 OA
HETATM   17  O3  UNK     1      12.585  14.069  35.242  1.00  0.00    -0.532 OA
ENDBRANCH  12  15
ENDBRANCH   6   9
ENDBRANCH   2   3
BRANCH   2  18
HETATM   18  N3  UNK     1      17.545   4.352  31.949  1.00  0.00    -0.333 N 
HETATM   19  H11 UNK     1      16.542   4.290  32.113  1.00  0.00     0.168 HD
BRANCH  18  20
HETATM   20  C9  UNK     1      18.120   3.167  31.495  1.00  0.00     0.036 A 
HETATM   21  C13 UNK     1      18.381   2.129  32.385  1.00  0.00     0.067 A 
HETATM   22  C15 UNK     1      18.957   0.951  31.908  1.00  0.00     0.092 A 
HETATM   23  C14 UNK     1      19.284   0.772  30.562  1.00  0.00     0.004 A 
HETATM   24  O1  UNK     1      19.196  -0.063  32.856  1.00  0.00    -0.275 OA
HETATM   25  C17 UNK     1      19.013   1.829  29.682  1.00  0.00     0.017 A 
HETATM   26  C18 UNK     1      19.887  -0.502  30.148  1.00  0.00    -0.043 A 
HETATM   27  C16 UNK     1      18.436   3.016  30.146  1.00  0.00     0.030 A 
HETATM   28  C19 UNK     1      20.103  -1.449  31.072  1.00  0.00     0.090 A 
HETATM   29  C20 UNK     1      20.249  -0.725  28.709  1.00  0.00     0.049 C 
HETATM   30  C21 UNK     1      19.764  -1.276  32.495  1.00  0.00     0.288 A 
HETATM   31  O4  UNK     1      19.977  -2.164  33.312  1.00  0.00    -0.260 OA
ENDBRANCH  18  20
ENDBRANCH   2  18
TORSDOF 5
ENDMDL
MODEL 4
REMARK VINA RESULT:      -9.1      1.345      2.027
REMARK  5 active torsions:
REMARK  status: ('A' for Active; 'I' for Inactive)
REMARK    1  A    between atoms: C5_14  and  N1_6 
REMARK    2  A    between atoms: C6_15  and  N2_7 
REMARK    3  A    between atoms: C6_15  and  N3_8 
REMARK    4  A    between atoms: C9_18  and  N3_8 
REMARK    5  A    between atoms: C12_21  and  N4_9 
ROOT
HETATM    1  S1  UNK     1      17.914  -1.643  37.998  1.00  0.00    -0.041 SA
HETATM    2  C6  UNK     1      18.487  -1.720  36.422  1.00  0.00     0.174 C 
ENDROOT
BRANCH   2   3
HETATM    3  N2  UNK     1      18.453  -0.616  35.634  1.00  0.00    -0.355 N 
HETATM    4  C3  UNK     1      17.931  -0.676  34.277  1.00  0.00     0.145 C 
HETATM    5  C1  UNK     1      18.554   0.389  33.377  1.00  0.00     0.143 C 
HETATM    6  N1  UNK     1      18.385   1.726  33.960  1.00  0.00    -0.378 N 
HETATM    7  C2  UNK     1      18.253   1.840  35.417  1.00  0.00     0.143 C 
HETATM    8  C4  UNK     1      18.938   0.668  36.117  1.00  0.00     0.145 C 
BRANCH   6   9
HETATM    9  C5  UNK     1      18.356   2.858  33.150  1.00  0.00     0.030 A 
HETATM   10  C7  UNK     1      18.278   4.159  33.704  1.00  0.00     0.032 A 
HETATM   11  C10 UNK     1      18.250   5.293  32.893  1.00  0.00     0.038 A 
HETATM   12  C12 UNK     1      18.300   5.160  31.505  1.00  0.00     0.103 A 
HETATM   13  C11 UNK     1      18.378   3.892  30.928  1.00  0.00     0.038 A 
HETATM   14  C8  UNK     1      18.406   2.757  31.740  1.00  0.00     0.032 A 
BRANCH  12  15
HETATM   15  N4  UNK     1      18.270   6.315  30.680  1.00  0.00    -0.116 N 
HETATM   16  O2  UNK     1      19.125   6.433  29.769  1.00  0.00    -0.532 OA
HETATM   17  O3  UNK     1      17.391   7.186  30.883  1.00  0.00    -0.532 OA
ENDBRANCH  12  15
ENDBRANCH   6   9
ENDBRANCH   2   3
BRANCH   2  18
HETATM   18  N3  UNK     1      19.049  -2.886  35.931  1.00  0.00    -0.333 N 
HETATM   19  H11 UNK     1      19.218  -2.876  34.928  1.00  0.00     0.168 HD
BRANCH  18  20
HETATM   20  C9  UNK     1      19.444  -4.065  36.561  1.00  0.00     0.036 A 
HETATM   21  C13 UNK     1      20.720  -4.173  37.107  1.00  0.00     0.067 A 
HETATM   22  C15 UNK     1      21.095  -5.362  37.734  1.00  0.00     0.092 A 
HETATM   23  C14 UNK     1      20.232  -6.456  37.835  1.00  0.00     0.004 A 
HETATM   24  O1  UNK     1      22.398  -5.411  38.268  1.00  0.00    -0.275 OA
HETATM   25  C17 UNK     1      18.952  -6.327  37.279  1.00  0.00     0.017 A 
HETATM   26  C18 UNK     1      20.710  -7.668  38.512  1.00  0.00    -0.043 A 
HETATM   27  C16 UNK     1      18.563  -5.141  36.647  1.00  0.00     0.030 A 
HETATM   28  C19 UNK     1      21.955  -7.686  39.010  1.00  0.00     0.090 A 
HETATM   29  C20 UNK     1      19.808  -8.861  38.638  1.00  0.00     0.049 C 
HETATM   30  C21 UNK     1      22.876  -6.541  38.913  1.00  0.00     0.288 A 
HETATM   31  O4  UNK     1      24.008  -6.594  39.379  1.00  0.00    -0.260 OA
ENDBRANCH  18  20
ENDBRANCH   2  18
TORSDOF 5
ENDMDL
MODEL 5
REMARK VINA RESULT:      -8.8      6.210      9.442
REMARK  5 active torsions:
REMARK  status: ('A' for Active; 'I' for Inactive)
REMARK    1  A    between atoms: C5_14  and  N1_6 
REMARK    2  A    between atoms: C6_15  and  N2_7 
REMARK    3  A    between atoms: C6_15  and  N3_8 
REMARK    4  A    between atoms: C9_18  and  N3_8 
REMARK    5  A    between atoms: C12_21  and  N4_9 
ROOT
HETATM    1  S1  UNK     1      19.688   5.799  33.358  1.00  0.00    -0.041 SA
HETATM    2  C6  UNK     1      18.085   5.703  32.871  1.00  0.00     0.174 C 
ENDROOT
BRANCH   2   3
HETATM    3  N2  UNK     1      17.228   6.714  33.158  1.00  0.00    -0.355 N 
HETATM    4  C3  UNK     1      16.030   6.935  32.362  1.00  0.00     0.145 C 
HETATM    5  C1  UNK     1      15.589   8.398  32.385  1.00  0.00     0.143 C 
HETATM    6  N1  UNK     1      15.410   8.864  33.766  1.00  0.00    -0.378 N 
HETATM    7  C2  UNK     1      16.182   8.209  34.829  1.00  0.00     0.143 C 
HETATM    8  C4  UNK     1      17.475   7.617  34.273  1.00  0.00     0.145 C 
BRANCH   6   9
HETATM    9  C5  UNK     1      14.534   9.906  34.059  1.00  0.00     0.030 A 
HETATM   10  C7  UNK     1      13.662  10.434  33.077  1.00  0.00     0.032 A 
HETATM   11  C10 UNK     1      12.783  11.477  33.371  1.00  0.00     0.038 A 
HETATM   12  C12 UNK     1      12.751  12.020  34.655  1.00  0.00     0.103 A 
HETATM   13  C11 UNK     1      13.597  11.522  35.646  1.00  0.00     0.038 A 
HETATM   14  C8  UNK     1      14.477  10.479  35.351  1.00  0.00     0.032 A 
BRANCH  12  15
HETATM   15  N4  UNK     1      11.857  13.082  34.955  1.00  0.00    -0.116 N 
HETATM   16  O2  UNK     1      12.202  14.260  34.692  1.00  0.00    -0.532 OA
HETATM   17  O3  UNK     1      10.747  12.814  35.474  1.00  0.00    -0.532 OA
ENDBRANCH  12  15
ENDBRANCH   6   9
ENDBRANCH   2   3
BRANCH   2  18
HETATM   18  N3  UNK     1      17.636   4.625  32.126  1.00  0.00    -0.333 N 
HETATM   19  H11 UNK     1      16.832   4.832  31.537  1.00  0.00     0.168 HD
BRANCH  18  20
HETATM   20  C9  UNK     1      18.094   3.313  32.020  1.00  0.00     0.036 A 
HETATM   21  C13 UNK     1      18.571   2.835  30.804  1.00  0.00     0.067 A 
HETATM   22  C15 UNK     1      19.025   1.518  30.720  1.00  0.00     0.092 A 
HETATM   23  C14 UNK     1      19.018   0.655  31.819  1.00  0.00     0.004 A 
HETATM   24  O1  UNK     1      19.498   1.092  29.463  1.00  0.00    -0.275 OA
HETATM   25  C17 UNK     1      18.534   1.156  33.035  1.00  0.00     0.017 A 
HETATM   26  C18 UNK     1      19.515  -0.715  31.640  1.00  0.00    -0.043 A 
HETATM   27  C16 UNK     1      18.075   2.474  33.133  1.00  0.00     0.030 A 
HETATM   28  C19 UNK     1      19.959  -1.093  30.432  1.00  0.00     0.090 A 
HETATM   29  C20 UNK     1      19.522  -1.667  32.801  1.00  0.00     0.049 C 
HETATM   30  C21 UNK     1      19.973  -0.196  29.264  1.00  0.00     0.288 A 
HETATM   31  O4  UNK     1      20.385  -0.577  28.175  1.00  0.00    -0.260 OA
ENDBRANCH  18  20
ENDBRANCH   2  18
TORSDOF 5
ENDMDL
MODEL 6
REMARK VINA RESULT:      -8.7      6.258      9.355
REMARK  5 active torsions:
REMARK  status: ('A' for Active; 'I' for Inactive)
REMARK    1  A    between atoms: C5_14  and  N1_6 
REMARK    2  A    between atoms: C6_15  and  N2_7 
REMARK    3  A    between atoms: C6_15  and  N3_8 
REMARK    4  A    between atoms: C9_18  and  N3_8 
REMARK    5  A    between atoms: C12_21  and  N4_9 
ROOT
HETATM    1  S1  UNK     1      19.702   5.843  30.989  1.00  0.00    -0.041 SA
HETATM    2  C6  UNK     1      18.305   5.658  31.900  1.00  0.00     0.174 C 
ENDROOT
BRANCH   2   3
HETATM    3  N2  UNK     1      17.757   6.731  32.524  1.00  0.00    -0.355 N 
HETATM    4  C3  UNK     1      16.378   7.122  32.278  1.00  0.00     0.145 C 
HETATM    5  C1  UNK     1      16.157   8.617  32.501  1.00  0.00     0.143 C 
HETATM    6  N1  UNK     1      16.596   9.011  33.846  1.00  0.00    -0.378 N 
HETATM    7  C2  UNK     1      17.641   8.215  34.500  1.00  0.00     0.143 C 
HETATM    8  C4  UNK     1      18.530   7.532  33.463  1.00  0.00     0.145 C 
BRANCH   6   9
HETATM    9  C5  UNK     1      16.036  10.115  34.483  1.00  0.00     0.030 A 
HETATM   10  C7  UNK     1      16.677  11.378  34.469  1.00  0.00     0.032 A 
HETATM   11  C10 UNK     1      16.115  12.484  35.106  1.00  0.00     0.038 A 
HETATM   12  C12 UNK     1      14.897  12.360  35.775  1.00  0.00     0.103 A 
HETATM   13  C11 UNK     1      14.241  11.130  35.807  1.00  0.00     0.038 A 
HETATM   14  C8  UNK     1      14.802  10.023  35.170  1.00  0.00     0.032 A 
BRANCH  12  15
HETATM   15  N4  UNK     1      14.326  13.486  36.425  1.00  0.00    -0.116 N 
HETATM   16  O2  UNK     1      13.522  14.211  35.791  1.00  0.00    -0.532 OA
HETATM   17  O3  UNK     1      14.641  13.726  37.616  1.00  0.00    -0.532 OA
ENDBRANCH  12  15
ENDBRANCH   6   9
ENDBRANCH   2   3
BRANCH   2  18
HETATM   18  N3  UNK     1      17.669   4.431  31.978  1.00  0.00    -0.333 N 
HETATM   19  H11 UNK     1      16.661   4.493  32.109  1.00  0.00     0.168 HD
BRANCH  18  20
HETATM   20  C9  UNK     1      18.151   3.126  31.890  1.00  0.00     0.036 A 
HETATM   21  C13 UNK     1      18.633   2.639  30.679  1.00  0.00     0.067 A 
HETATM   22  C15 UNK     1      19.112   1.329  30.614  1.00  0.00     0.092 A 
HETATM   23  C14 UNK     1      19.125   0.484  31.725  1.00  0.00     0.004 A 
HETATM   24  O1  UNK     1      19.588   0.893  29.361  1.00  0.00    -0.275 OA
HETATM   25  C17 UNK     1      18.635   0.994  32.935  1.00  0.00     0.017 A 
HETATM   26  C18 UNK     1      19.647  -0.880  31.565  1.00  0.00    -0.043 A 
HETATM   27  C16 UNK     1      18.152   2.304  33.015  1.00  0.00     0.030 A 
HETATM   28  C19 UNK     1      20.094  -1.267  30.362  1.00  0.00     0.090 A 
HETATM   29  C20 UNK     1      19.676  -1.813  32.740  1.00  0.00     0.049 C 
HETATM   30  C21 UNK     1      20.088  -0.388  29.181  1.00  0.00     0.288 A 
HETATM   31  O4  UNK     1      20.503  -0.777  28.096  1.00  0.00    -0.260 OA
ENDBRANCH  18  20
ENDBRANCH   2  18
TORSDOF 5
ENDMDL
MODEL 7
REMARK VINA RESULT:      -8.6      3.227     11.954
REMARK  5 active torsions:
REMARK  status: ('A' for Active; 'I' for Inactive)
REMARK    1  A    between atoms: C5_14  and  N1_6 
REMARK    2  A    between atoms: C6_15  and  N2_7 
REMARK    3  A    between atoms: C6_15  and  N3_8 
REMARK    4  A    between atoms: C9_18  and  N3_8 
REMARK    5  A    between atoms: C12_21  and  N4_9 
ROOT
HETATM    1  S1  UNK     1      18.672   3.257  30.153  1.00  0.00    -0.041 SA
HETATM    2  C6  UNK     1      18.113   3.183  31.733  1.00  0.00     0.174 C 
ENDROOT
BRANCH   2   3
HETATM    3  N2  UNK     1      18.356   2.082  32.487  1.00  0.00    -0.355 N 
HETATM    4  C3  UNK     1      17.910   2.003  33.870  1.00  0.00     0.145 C 
HETATM    5  C1  UNK     1      18.793   1.076  34.705  1.00  0.00     0.143 C 
HETATM    6  N1  UNK     1      18.877  -0.254  34.089  1.00  0.00    -0.378 N 
HETATM    7  C2  UNK     1      18.689  -0.365  32.638  1.00  0.00     0.143 C 
HETATM    8  C4  UNK     1      19.073   0.939  31.941  1.00  0.00     0.145 C 
BRANCH   6   9
HETATM    9  C5  UNK     1      19.132  -1.383  34.864  1.00  0.00     0.030 A 
HETATM   10  C7  UNK     1      18.450  -1.610  36.084  1.00  0.00     0.032 A 
HETATM   11  C10 UNK     1      18.705  -2.742  36.858  1.00  0.00     0.038 A 
HETATM   12  C12 UNK     1      19.647  -3.678  36.435  1.00  0.00     0.103 A 
HETATM   13  C11 UNK     1      20.335  -3.485  35.237  1.00  0.00     0.038 A 
HETATM   14  C8  UNK     1      20.081  -2.352  34.462  1.00  0.00     0.032 A 
BRANCH  12  15
HETATM   15  N4  UNK     1      19.907  -4.830  37.224  1.00  0.00    -0.116 N 
HETATM   16  O2  UNK     1      19.126  -5.809  37.147  1.00  0.00    -0.532 OA
HETATM   17  O3  UNK     1      20.910  -4.837  37.978  1.00  0.00    -0.532 OA
ENDBRANCH  12  15
ENDBRANCH   6   9
ENDBRANCH   2   3
BRANCH   2  18
HETATM   18  N3  UNK     1      17.452   4.260  32.300  1.00  0.00    -0.333 N 
HETATM   19  H11 UNK     1      16.453   4.116  32.426  1.00  0.00     0.168 HD
BRANCH  18  20
HETATM   20  C9  UNK     1      17.907   5.499  32.748  1.00  0.00     0.036 A 
HETATM   21  C13 UNK     1      17.031   6.576  32.836  1.00  0.00     0.067 A 
HETATM   22  C15 UNK     1      17.508   7.808  33.287  1.00  0.00     0.092 A 
HETATM   23  C14 UNK     1      18.841   8.002  33.656  1.00  0.00     0.004 A 
HETATM   24  O1  UNK     1      16.573   8.860  33.356  1.00  0.00    -0.275 OA
HETATM   25  C17 UNK     1      19.707   6.904  33.560  1.00  0.00     0.017 A 
HETATM   26  C18 UNK     1      19.256   9.332  34.120  1.00  0.00    -0.043 A 
HETATM   27  C16 UNK     1      19.243   5.664  33.109  1.00  0.00     0.030 A 
HETATM   28  C19 UNK     1      18.345  10.314  34.175  1.00  0.00     0.090 A 
HETATM   29  C20 UNK     1      20.681   9.573  34.524  1.00  0.00     0.049 C 
HETATM   30  C21 UNK     1      16.936  10.126  33.790  1.00  0.00     0.288 A 
HETATM   31  O4  UNK     1      16.131  11.048  33.852  1.00  0.00    -0.260 OA
ENDBRANCH  18  20
ENDBRANCH   2  18
TORSDOF 5
ENDMDL
MODEL 8
REMARK VINA RESULT:      -8.6      2.180     11.499
REMARK  5 active torsions:
REMARK  status: ('A' for Active; 'I' for Inactive)
REMARK    1  A    between atoms: C5_14  and  N1_6 
REMARK    2  A    between atoms: C6_15  and  N2_7 
REMARK    3  A    between atoms: C6_15  and  N3_8 
REMARK    4  A    between atoms: C9_18  and  N3_8 
REMARK    5  A    between atoms: C12_21  and  N4_9 
ROOT
HETATM    1  S1  UNK     1      17.861   1.670  36.842  1.00  0.00    -0.041 SA
HETATM    2  C6  UNK     1      18.180   0.613  35.577  1.00  0.00     0.174 C 
ENDROOT
BRANCH   2   3
HETATM    3  N2  UNK     1      18.688  -0.618  35.835  1.00  0.00    -0.355 N 
HETATM    4  C3  UNK     1      18.108  -1.472  36.860  1.00  0.00     0.145 C 
HETATM    5  C1  UNK     1      19.134  -2.440  37.448  1.00  0.00     0.143 C 
HETATM    6  N1  UNK     1      19.769  -3.229  36.386  1.00  0.00    -0.378 N 
HETATM    7  C2  UNK     1      19.841  -2.656  35.037  1.00  0.00     0.143 C 
HETATM    8  C4  UNK     1      19.833  -1.130  35.097  1.00  0.00     0.145 C 
BRANCH   6   9
HETATM    9  C5  UNK     1      20.295  -4.491  36.653  1.00  0.00     0.030 A 
HETATM   10  C7  UNK     1      21.144  -4.716  37.763  1.00  0.00     0.032 A 
HETATM   11  C10 UNK     1      21.669  -5.981  38.031  1.00  0.00     0.038 A 
HETATM   12  C12 UNK     1      21.360  -7.055  37.198  1.00  0.00     0.103 A 
HETATM   13  C11 UNK     1      20.525  -6.867  36.096  1.00  0.00     0.038 A 
HETATM   14  C8  UNK     1      20.000  -5.602  35.827  1.00  0.00     0.032 A 
BRANCH  12  15
HETATM   15  N4  UNK     1      21.895  -8.342  37.470  1.00  0.00    -0.116 N 
HETATM   16  O2  UNK     1      23.076  -8.594  37.130  1.00  0.00    -0.532 OA
HETATM   17  O3  UNK     1      21.172  -9.192  38.044  1.00  0.00    -0.532 OA
ENDBRANCH  12  15
ENDBRANCH   6   9
ENDBRANCH   2   3
BRANCH   2  18
HETATM   18  N3  UNK     1      17.877   0.961  34.272  1.00  0.00    -0.333 N 
HETATM   19  H11 UNK     1      17.395   0.234  33.749  1.00  0.00     0.168 HD
BRANCH  18  20
HETATM   20  C9  UNK     1      18.095   2.132  33.547  1.00  0.00     0.036 A 
HETATM   21  C13 UNK     1      18.143   3.360  34.201  1.00  0.00     0.067 A 
HETATM   22  C15 UNK     1      18.363   4.520  33.456  1.00  0.00     0.092 A 
HETATM   23  C14 UNK     1      18.537   4.495  32.070  1.00  0.00     0.004 A 
HETATM   24  O1  UNK     1      18.402   5.732  34.173  1.00  0.00    -0.275 OA
HETATM   25  C17 UNK     1      18.485   3.248  31.432  1.00  0.00     0.017 A 
HETATM   26  C18 UNK     1      18.763   5.764  31.367  1.00  0.00    -0.043 A 
HETATM   27  C16 UNK     1      18.265   2.078  32.165  1.00  0.00     0.030 A 
HETATM   28  C19 UNK     1      18.796   6.902  32.075  1.00  0.00     0.090 A 
HETATM   29  C20 UNK     1      18.955   5.771  29.878  1.00  0.00     0.049 C 
HETATM   30  C21 UNK     1      18.614   6.946  33.536  1.00  0.00     0.288 A 
HETATM   31  O4  UNK     1      18.649   8.006  34.149  1.00  0.00    -0.260 OA
ENDBRANCH  18  20
ENDBRANCH   2  18
TORSDOF 5
ENDMDL
MODEL 9
REMARK VINA RESULT:      -8.6     12.230     14.880
REMARK  5 active torsions:
REMARK  status: ('A' for Active; 'I' for Inactive)
REMARK    1  A    between atoms: C5_14  and  N1_6 
REMARK    2  A    between atoms: C6_15  and  N2_7 
REMARK    3  A    between atoms: C6_15  and  N3_8 
REMARK    4  A    between atoms: C9_18  and  N3_8 
REMARK    5  A    between atoms: C12_21  and  N4_9 
ROOT
HETATM    1  S1  UNK     1      35.156  -5.787  36.449  1.00  0.00    -0.041 SA
HETATM    2  C6  UNK     1      33.647  -6.521  36.462  1.00  0.00     0.174 C 
ENDROOT
BRANCH   2   3
HETATM    3  N2  UNK     1      33.106  -6.978  35.305  1.00  0.00    -0.355 N 
HETATM    4  C3  UNK     1      32.253  -6.131  34.486  1.00  0.00     0.145 C 
HETATM    5  C1  UNK     1      31.257  -6.946  33.663  1.00  0.00     0.143 C 
HETATM    6  N1  UNK     1      31.954  -7.951  32.851  1.00  0.00    -0.378 N 
HETATM    7  C2  UNK     1      33.253  -8.449  33.321  1.00  0.00     0.143 C 
HETATM    8  C4  UNK     1      33.359  -8.334  34.840  1.00  0.00     0.145 C 
BRANCH   6   9
HETATM    9  C5  UNK     1      31.396  -8.423  31.666  1.00  0.00     0.030 A 
HETATM   10  C7  UNK     1      31.626  -9.747  31.219  1.00  0.00     0.032 A 
HETATM   11  C10 UNK     1      31.065 -10.220  30.032  1.00  0.00     0.038 A 
HETATM   12  C12 UNK     1      30.258  -9.384  29.261  1.00  0.00     0.103 A 
HETATM   13  C11 UNK     1      30.011  -8.075  29.675  1.00  0.00     0.038 A 
HETATM   14  C8  UNK     1      30.572  -7.601  30.861  1.00  0.00     0.032 A 
BRANCH  12  15
HETATM   15  N4  UNK     1      29.687  -9.866  28.053  1.00  0.00    -0.116 N 
HETATM   16  O2  UNK     1      30.419  -9.989  27.041  1.00  0.00    -0.532 OA
HETATM   17  O3  UNK     1      28.467 -10.155  28.030  1.00  0.00    -0.532 OA
ENDBRANCH  12  15
ENDBRANCH   6   9
ENDBRANCH   2   3
BRANCH   2  18
HETATM   18  N3  UNK     1      32.968  -6.719  37.652  1.00  0.00    -0.333 N 
HETATM   19  H11 UNK     1      33.518  -6.517  38.484  1.00  0.00     0.168 HD
BRANCH  18  20
HETATM   20  C9  UNK     1      31.661  -7.125  37.920  1.00  0.00     0.036 A 
HETATM   21  C13 UNK     1      30.643  -6.183  38.026  1.00  0.00     0.067 A 
HETATM   22  C15 UNK     1      29.343  -6.612  38.294  1.00  0.00     0.092 A 
HETATM   23  C14 UNK     1      29.022  -7.961  38.463  1.00  0.00     0.004 A 
HETATM   24  O1  UNK     1      28.355  -5.612  38.388  1.00  0.00    -0.275 OA
HETATM   25  C17 UNK     1      30.062  -8.894  38.353  1.00  0.00     0.017 A 
HETATM   26  C18 UNK     1      27.627  -8.323  38.743  1.00  0.00    -0.043 A 
HETATM   27  C16 UNK     1      31.371  -8.478  38.085  1.00  0.00     0.030 A 
HETATM   28  C19 UNK     1      26.708  -7.350  38.827  1.00  0.00     0.090 A 
HETATM   29  C20 UNK     1      27.250  -9.763  38.929  1.00  0.00     0.049 C 
HETATM   30  C21 UNK     1      27.029  -5.923  38.651  1.00  0.00     0.288 A 
HETATM   31  O4  UNK     1      26.162  -5.061  38.735  1.00  0.00    -0.260 OA
ENDBRANCH  18  20
ENDBRANCH   2  18
TORSDOF 5
ENDMDL
MODEL 10
REMARK VINA RESULT:      -8.6      4.006      5.428
REMARK  5 active torsions:
REMARK  status: ('A' for Active; 'I' for Inactive)
REMARK    1  A    between atoms: C5_14  and  N1_6 
REMARK    2  A    between atoms: C6_15  and  N2_7 
REMARK    3  A    between atoms: C6_15  and  N3_8 
REMARK    4  A    between atoms: C9_18  and  N3_8 
REMARK    5  A    between atoms: C12_21  and  N4_9 
ROOT
HETATM    1  S1  UNK     1      20.004   0.284  29.209  1.00  0.00    -0.041 SA
HETATM    2  C6  UNK     1      19.139   0.536  30.624  1.00  0.00     0.174 C 
ENDROOT
BRANCH   2   3
HETATM    3  N2  UNK     1      18.895   1.800  31.053  1.00  0.00    -0.355 N 
HETATM    4  C3  UNK     1      18.649   2.880  30.110  1.00  0.00     0.145 C 
HETATM    5  C1  UNK     1      19.051   4.240  30.679  1.00  0.00     0.143 C 
HETATM    6  N1  UNK     1      18.383   4.483  31.963  1.00  0.00    -0.378 N 
HETATM    7  C2  UNK     1      17.983   3.326  32.772  1.00  0.00     0.143 C 
HETATM    8  C4  UNK     1      18.872   2.122  32.472  1.00  0.00     0.145 C 
BRANCH   6   9
HETATM    9  C5  UNK     1      18.138   5.781  32.405  1.00  0.00     0.030 A 
HETATM   10  C7  UNK     1      16.860   6.376  32.274  1.00  0.00     0.032 A 
HETATM   11  C10 UNK     1      16.615   7.676  32.718  1.00  0.00     0.038 A 
HETATM   12  C12 UNK     1      17.640   8.417  33.305  1.00  0.00     0.103 A 
HETATM   13  C11 UNK     1      18.910   7.859  33.449  1.00  0.00     0.038 A 
HETATM   14  C8  UNK     1      19.156   6.560  33.005  1.00  0.00     0.032 A 
BRANCH  12  15
HETATM   15  N4  UNK     1      17.391   9.740  33.756  1.00  0.00    -0.116 N 
HETATM   16  O2  UNK     1      16.392   9.956  34.485  1.00  0.00    -0.532 OA
HETATM   17  O3  UNK     1      18.175  10.657  33.413  1.00  0.00    -0.532 OA
ENDBRANCH  12  15
ENDBRANCH   6   9
ENDBRANCH   2   3
BRANCH   2  18
HETATM   18  N3  UNK     1      18.618  -0.532  31.334  1.00  0.00    -0.333 N 
HETATM   19  H11 UNK     1      17.898  -1.052  30.836  1.00  0.00     0.168 HD
BRANCH  18  20
HETATM   20  C9  UNK     1      18.910  -1.040  32.599  1.00  0.00     0.036 A 
HETATM   21  C13 UNK     1      18.195  -0.603  33.710  1.00  0.00     0.067 A 
HETATM   22  C15 UNK     1      18.504  -1.125  34.967  1.00  0.00     0.092 A 
HETATM   23  C14 UNK     1      19.511  -2.074  35.154  1.00  0.00     0.004 A 
HETATM   24  O1  UNK     1      17.744  -0.645  36.053  1.00  0.00    -0.275 OA
HETATM   25  C17 UNK     1      20.220  -2.500  34.022  1.00  0.00     0.017 A 
HETATM   26  C18 UNK     1      19.768  -2.568  36.513  1.00  0.00    -0.043 A 
HETATM   27  C16 UNK     1      19.921  -1.986  32.756  1.00  0.00     0.030 A 
HETATM   28  C19 UNK     1      19.030  -2.094  37.527  1.00  0.00     0.090 A 
HETATM   29  C20 UNK     1      20.843  -3.588  36.747  1.00  0.00     0.049 C 
HETATM   30  C21 UNK     1      17.964  -1.094  37.347  1.00  0.00     0.288 A 
HETATM   31  O4  UNK     1      17.310  -0.683  38.298  1.00  0.00    -0.260 OA
ENDBRANCH  18  20
ENDBRANCH   2  18
TORSDOF 5
ENDMDL
