MODEL 1
REMARK VINA RESULT:      -9.1      0.000      0.000
REMARK  2 active torsions:
REMARK  status: ('A' for Active; 'I' for Inactive)
REMARK    1  A    between atoms: C2_8  and  C5_11 
REMARK    2  A    between atoms: C10_16  and  C9_15 
ROOT
HETATM    1  O1  UNK     1      16.884   7.932  32.938  1.00  0.00    -0.274 OA
HETATM    2  O3  UNK     1      15.854   6.076  32.102  1.00  0.00    -0.259 OA
HETATM    3  C1  UNK     1      19.216   7.826  33.611  1.00  0.00    -0.001 A 
HETATM    4  C2  UNK     1      18.132   5.830  32.745  1.00  0.00     0.096 A 
HETATM    5  C3  UNK     1      18.039   8.550  33.454  1.00  0.00     0.089 A 
HETATM    6  C4  UNK     1      19.231   6.421  33.238  1.00  0.00     0.036 A 
HETATM    7  C6  UNK     1      20.342   8.474  34.124  1.00  0.00     0.014 A 
HETATM    8  C7  UNK     1      16.867   6.591  32.563  1.00  0.00     0.303 A 
HETATM    9  C8  UNK     1      17.956   9.898  33.793  1.00  0.00     0.038 A 
HETATM   10  C11 UNK     1      20.275   9.826  34.469  1.00  0.00     0.001 A 
HETATM   11  C12 UNK     1      19.084  10.537  34.304  1.00  0.00     0.003 A 
ENDROOT
BRANCH   4  12
HETATM   12  C5  UNK     1      18.181   4.443  32.395  1.00  0.00     0.212 A 
HETATM   13  O2  UNK     1      17.773   3.476  33.266  1.00  0.00    -0.190 OA
HETATM   14  N2  UNK     1      17.953   2.251  32.610  1.00  0.00    -0.105 NA
HETATM   15  C9  UNK     1      18.447   2.624  31.425  1.00  0.00     0.196 A 
HETATM   16  N1  UNK     1      18.605   3.968  31.245  1.00  0.00    -0.199 NA
BRANCH  15  17
HETATM   17  C10 UNK     1      18.796   1.645  30.382  1.00  0.00     0.054 A 
HETATM   18  S1  UNK     1      19.942   0.391  30.603  1.00  0.00    -0.098 SA
HETATM   19  C15 UNK     1      19.706  -0.183  29.007  1.00  0.00     0.050 A 
HETATM   20  C14 UNK     1      18.774   0.565  28.322  1.00  0.00     0.009 A 
HETATM   21  C13 UNK     1      18.248   1.623  29.117  1.00  0.00     0.023 A 
ENDBRANCH  15  17
ENDBRANCH   4  12
TORSDOF 2
ENDMDL
MODEL 2
REMARK VINA RESULT:      -8.9      8.731     10.524
REMARK  2 active torsions:
REMARK  status: ('A' for Active; 'I' for Inactive)
REMARK    1  A    between atoms: C2_8  and  C5_11 
REMARK    2  A    between atoms: C10_16  and  C9_15 
ROOT
HETATM    1  O1  UNK     1      19.464  -1.106  34.696  1.00  0.00    -0.274 OA
HETATM    2  O3  UNK     1      20.620  -2.997  34.156  1.00  0.00    -0.259 OA
HETATM    3  C1  UNK     1      18.465  -0.881  36.899  1.00  0.00    -0.001 A 
HETATM    4  C2  UNK     1      19.671  -2.916  36.338  1.00  0.00     0.096 A 
HETATM    5  C3  UNK     1      18.725  -0.362  35.635  1.00  0.00     0.089 A 
HETATM    6  C4  UNK     1      18.965  -2.205  37.230  1.00  0.00     0.036 A 
HETATM    7  C6  UNK     1      17.729  -0.114  37.805  1.00  0.00     0.014 A 
HETATM    8  C7  UNK     1      19.965  -2.373  34.984  1.00  0.00     0.303 A 
HETATM    9  C8  UNK     1      18.272   0.898  35.253  1.00  0.00     0.038 A 
HETATM   10  C11 UNK     1      17.269   1.153  37.436  1.00  0.00     0.001 A 
HETATM   11  C12 UNK     1      17.540   1.659  36.163  1.00  0.00     0.003 A 
ENDROOT
BRANCH   4  12
HETATM   12  C5  UNK     1      20.142  -4.219  36.696  1.00  0.00     0.212 A 
HETATM   13  O2  UNK     1      21.442  -4.431  37.052  1.00  0.00    -0.190 OA
HETATM   14  N2  UNK     1      21.557  -5.798  37.335  1.00  0.00    -0.105 NA
HETATM   15  C9  UNK     1      20.316  -6.246  37.118  1.00  0.00     0.196 A 
HETATM   16  N1  UNK     1      19.407  -5.308  36.722  1.00  0.00    -0.199 NA
BRANCH  15  17
HETATM   17  C10 UNK     1      19.956  -7.663  37.295  1.00  0.00     0.054 A 
HETATM   18  S1  UNK     1      20.439  -8.907  36.220  1.00  0.00    -0.098 SA
HETATM   19  C15 UNK     1      19.631 -10.099  37.147  1.00  0.00     0.050 A 
HETATM   20  C14 UNK     1      19.007  -9.560  38.251  1.00  0.00     0.009 A 
HETATM   21  C13 UNK     1      19.195  -8.151  38.337  1.00  0.00     0.023 A 
ENDBRANCH  15  17
ENDBRANCH   4  12
TORSDOF 2
ENDMDL
MODEL 3
REMARK VINA RESULT:      -8.7      3.135      7.917
REMARK  2 active torsions:
REMARK  status: ('A' for Active; 'I' for Inactive)
REMARK    1  A    between atoms: C2_8  and  C5_11 
REMARK    2  A    between atoms: C10_16  and  C9_15 
ROOT
HETATM    1  O1  UNK     1      18.902   0.696  28.602  1.00  0.00    -0.274 OA
HETATM    2  O3  UNK     1      18.016   2.754  28.171  1.00  0.00    -0.259 OA
HETATM    3  C1  UNK     1      19.775   0.189  30.812  1.00  0.00    -0.001 A 
HETATM    4  C2  UNK     1      18.858   2.396  30.369  1.00  0.00     0.096 A 
HETATM    5  C3  UNK     1      19.503  -0.201  29.505  1.00  0.00     0.089 A 
HETATM    6  C4  UNK     1      19.431   1.539  31.227  1.00  0.00     0.036 A 
HETATM    7  C6  UNK     1      20.370  -0.729  31.679  1.00  0.00     0.014 A 
HETATM    8  C7  UNK     1      18.553   1.993  28.970  1.00  0.00     0.303 A 
HETATM    9  C8  UNK     1      19.808  -1.479  29.043  1.00  0.00     0.038 A 
HETATM   10  C11 UNK     1      20.682  -2.015  31.231  1.00  0.00     0.001 A 
HETATM   11  C12 UNK     1      20.402  -2.390  29.914  1.00  0.00     0.003 A 
ENDROOT
BRANCH   4  12
HETATM   12  C5  UNK     1      18.540   3.720  30.810  1.00  0.00     0.212 A 
HETATM   13  O2  UNK     1      19.080   4.818  30.207  1.00  0.00    -0.190 OA
HETATM   14  N2  UNK     1      18.562   5.933  30.879  1.00  0.00    -0.105 NA
HETATM   15  C9  UNK     1      17.773   5.377  31.803  1.00  0.00     0.196 A 
HETATM   16  N1  UNK     1      17.726   4.012  31.800  1.00  0.00    -0.199 NA
BRANCH  15  17
HETATM   17  C10 UNK     1      17.004   6.187  32.763  1.00  0.00     0.054 A 
HETATM   18  S1  UNK     1      15.537   6.982  32.373  1.00  0.00    -0.098 SA
HETATM   19  C15 UNK     1      15.391   7.610  33.959  1.00  0.00     0.050 A 
HETATM   20  C14 UNK     1      16.437   7.224  34.767  1.00  0.00     0.009 A 
HETATM   21  C13 UNK     1      17.370   6.400  34.075  1.00  0.00     0.023 A 
ENDBRANCH  15  17
ENDBRANCH   4  12
TORSDOF 2
ENDMDL
MODEL 4
REMARK VINA RESULT:      -8.7      3.150      7.748
REMARK  2 active torsions:
REMARK  status: ('A' for Active; 'I' for Inactive)
REMARK    1  A    between atoms: C2_8  and  C5_11 
REMARK    2  A    between atoms: C10_16  and  C9_15 
ROOT
HETATM    1  O1  UNK     1      18.707   0.526  32.682  1.00  0.00    -0.274 OA
HETATM    2  O3  UNK     1      17.910   2.378  33.750  1.00  0.00    -0.259 OA
HETATM    3  C1  UNK     1      19.508   0.695  30.395  1.00  0.00    -0.001 A 
HETATM    4  C2  UNK     1      18.640   2.676  31.505  1.00  0.00     0.096 A 
HETATM    5  C3  UNK     1      19.265  -0.066  31.534  1.00  0.00     0.089 A 
HETATM    6  C4  UNK     1      19.171   2.109  30.411  1.00  0.00     0.036 A 
HETATM    7  C6  UNK     1      20.064   0.073  29.275  1.00  0.00     0.014 A 
HETATM    8  C7  UNK     1      18.381   1.880  32.734  1.00  0.00     0.303 A 
HETATM    9  C8  UNK     1      19.561  -1.425  31.584  1.00  0.00     0.038 A 
HETATM   10  C11 UNK     1      20.368  -1.290  29.310  1.00  0.00     0.001 A 
HETATM   11  C12 UNK     1      20.117  -2.039  30.463  1.00  0.00     0.003 A 
ENDROOT
BRANCH   4  12
HETATM   12  C5  UNK     1      18.315   4.070  31.483  1.00  0.00     0.212 A 
HETATM   13  O2  UNK     1      18.910   4.924  30.601  1.00  0.00    -0.190 OA
HETATM   14  N2  UNK     1      18.367   6.191  30.850  1.00  0.00    -0.105 NA
HETATM   15  C9  UNK     1      17.512   5.951  31.849  1.00  0.00     0.196 A 
HETATM   16  N1  UNK     1      17.444   4.656  32.274  1.00  0.00    -0.199 NA
BRANCH  15  17
HETATM   17  C10 UNK     1      16.695   7.019  32.450  1.00  0.00     0.054 A 
HETATM   18  S1  UNK     1      16.430   7.175  34.136  1.00  0.00    -0.098 SA
HETATM   19  C15 UNK     1      15.457   8.566  33.911  1.00  0.00     0.050 A 
HETATM   20  C14 UNK     1      15.337   8.904  32.581  1.00  0.00     0.009 A 
HETATM   21  C13 UNK     1      16.053   8.008  31.736  1.00  0.00     0.023 A 
ENDBRANCH  15  17
ENDBRANCH   4  12
TORSDOF 2
ENDMDL
MODEL 5
REMARK VINA RESULT:      -8.6      1.377      2.221
REMARK  2 active torsions:
REMARK  status: ('A' for Active; 'I' for Inactive)
REMARK    1  A    between atoms: C2_8  and  C5_11 
REMARK    2  A    between atoms: C10_16  and  C9_15 
ROOT
HETATM    1  O1  UNK     1      19.031   8.082  33.483  1.00  0.00    -0.274 OA
HETATM    2  O3  UNK     1      20.318   6.242  33.076  1.00  0.00    -0.259 OA
HETATM    3  C1  UNK     1      16.613   7.933  33.312  1.00  0.00    -0.001 A 
HETATM    4  C2  UNK     1      17.965   5.966  32.850  1.00  0.00     0.096 A 
HETATM    5  C3  UNK     1      17.758   8.675  33.575  1.00  0.00     0.089 A 
HETATM    6  C4  UNK     1      16.753   6.535  32.937  1.00  0.00     0.036 A 
HETATM    7  C6  UNK     1      15.367   8.556  33.415  1.00  0.00     0.014 A 
HETATM    8  C7  UNK     1      19.201   6.743  33.135  1.00  0.00     0.303 A 
HETATM    9  C8  UNK     1      17.694  10.019  33.937  1.00  0.00     0.038 A 
HETATM   10  C11 UNK     1      15.286   9.903  33.777  1.00  0.00     0.001 A 
HETATM   11  C12 UNK     1      16.448  10.633  34.038  1.00  0.00     0.003 A 
ENDROOT
BRANCH   4  12
HETATM   12  C5  UNK     1      18.066   4.590  32.471  1.00  0.00     0.212 A 
HETATM   13  O2  UNK     1      17.842   3.588  33.369  1.00  0.00    -0.190 OA
HETATM   14  N2  UNK     1      18.022   2.385  32.674  1.00  0.00    -0.105 NA
HETATM   15  C9  UNK     1      18.332   2.803  31.442  1.00  0.00     0.196 A 
HETATM   16  N1  UNK     1      18.371   4.157  31.268  1.00  0.00    -0.199 NA
BRANCH  15  17
HETATM   17  C10 UNK     1      18.613   1.862  30.346  1.00  0.00     0.054 A 
HETATM   18  S1  UNK     1      19.757   0.590  30.455  1.00  0.00    -0.098 SA
HETATM   19  C15 UNK     1      19.426   0.079  28.855  1.00  0.00     0.050 A 
HETATM   20  C14 UNK     1      18.466   0.860  28.251  1.00  0.00     0.009 A 
HETATM   21  C13 UNK     1      17.996   1.892  29.113  1.00  0.00     0.023 A 
ENDBRANCH  15  17
ENDBRANCH   4  12
TORSDOF 2
ENDMDL
MODEL 6
REMARK VINA RESULT:      -8.6      8.861     10.599
REMARK  2 active torsions:
REMARK  status: ('A' for Active; 'I' for Inactive)
REMARK    1  A    between atoms: C2_8  and  C5_11 
REMARK    2  A    between atoms: C10_16  and  C9_15 
ROOT
HETATM    1  O1  UNK     1      19.630  -0.774  34.867  1.00  0.00    -0.274 OA
HETATM    2  O3  UNK     1      20.815  -2.599  34.181  1.00  0.00    -0.259 OA
HETATM    3  C1  UNK     1      18.416  -0.835  36.970  1.00  0.00    -0.001 A 
HETATM    4  C2  UNK     1      19.652  -2.800  36.248  1.00  0.00     0.096 A 
HETATM    5  C3  UNK     1      18.808  -0.151  35.824  1.00  0.00     0.089 A 
HETATM    6  C4  UNK     1      18.867  -2.205  37.158  1.00  0.00     0.036 A 
HETATM    7  C6  UNK     1      17.601  -0.184  37.898  1.00  0.00     0.014 A 
HETATM    8  C7  UNK     1      20.087  -2.081  35.020  1.00  0.00     0.303 A 
HETATM    9  C8  UNK     1      18.409   1.161  35.582  1.00  0.00     0.038 A 
HETATM   10  C11 UNK     1      17.193   1.132  37.670  1.00  0.00     0.001 A 
HETATM   11  C12 UNK     1      17.596   1.804  36.513  1.00  0.00     0.003 A 
ENDROOT
BRANCH   4  12
HETATM   12  C5  UNK     1      20.072  -4.152  36.462  1.00  0.00     0.212 A 
HETATM   13  O2  UNK     1      20.062  -5.067  35.451  1.00  0.00    -0.190 OA
HETATM   14  N2  UNK     1      20.527  -6.269  36.001  1.00  0.00    -0.105 NA
HETATM   15  C9  UNK     1      20.761  -5.936  37.274  1.00  0.00     0.196 A 
HETATM   16  N1  UNK     1      20.496  -4.639  37.607  1.00  0.00    -0.199 NA
BRANCH  15  17
HETATM   17  C10 UNK     1      21.274  -6.909  38.253  1.00  0.00     0.054 A 
HETATM   18  S1  UNK     1      22.763  -6.728  39.081  1.00  0.00    -0.098 SA
HETATM   19  C15 UNK     1      22.538  -8.201  39.925  1.00  0.00     0.050 A 
HETATM   20  C14 UNK     1      21.354  -8.817  39.582  1.00  0.00     0.009 A 
HETATM   21  C13 UNK     1      20.623  -8.070  38.615  1.00  0.00     0.023 A 
ENDBRANCH  15  17
ENDBRANCH   4  12
TORSDOF 2
ENDMDL
MODEL 7
REMARK VINA RESULT:      -8.4      9.998     13.764
REMARK  2 active torsions:
REMARK  status: ('A' for Active; 'I' for Inactive)
REMARK    1  A    between atoms: C2_8  and  C5_11 
REMARK    2  A    between atoms: C10_16  and  C9_15 
ROOT
HETATM    1  O1  UNK     1      20.374  -8.368  35.493  1.00  0.00    -0.274 OA
HETATM    2  O3  UNK     1      20.606  -6.420  34.327  1.00  0.00    -0.259 OA
HETATM    3  C1  UNK     1      19.762  -8.309  37.843  1.00  0.00    -0.001 A 
HETATM    4  C2  UNK     1      20.028  -6.221  36.627  1.00  0.00     0.096 A 
HETATM    5  C3  UNK     1      20.078  -9.032  36.698  1.00  0.00     0.089 A 
HETATM    6  C4  UNK     1      19.747  -6.857  37.774  1.00  0.00     0.036 A 
HETATM    7  C6  UNK     1      19.473  -9.003  39.020  1.00  0.00     0.014 A 
HETATM    8  C7  UNK     1      20.360  -6.978  35.391  1.00  0.00     0.303 A 
HETATM    9  C8  UNK     1      20.112 -10.424  36.696  1.00  0.00     0.038 A 
HETATM   10  C11 UNK     1      19.502 -10.400  39.034  1.00  0.00     0.001 A 
HETATM   11  C12 UNK     1      19.822 -11.110  37.874  1.00  0.00     0.003 A 
ENDROOT
BRANCH   4  12
HETATM   12  C5  UNK     1      20.011  -4.790  36.598  1.00  0.00     0.212 A 
HETATM   13  O2  UNK     1      21.167  -4.067  36.577  1.00  0.00    -0.190 OA
HETATM   14  N2  UNK     1      20.789  -2.718  36.550  1.00  0.00    -0.105 NA
HETATM   15  C9  UNK     1      19.454  -2.788  36.558  1.00  0.00     0.196 A 
HETATM   16  N1  UNK     1      18.927  -4.047  36.587  1.00  0.00    -0.199 NA
BRANCH  15  17
HETATM   17  C10 UNK     1      18.609  -1.583  36.537  1.00  0.00     0.054 A 
HETATM   18  S1  UNK     1      18.339  -0.637  35.134  1.00  0.00    -0.098 SA
HETATM   19  C15 UNK     1      17.330   0.448  35.991  1.00  0.00     0.050 A 
HETATM   20  C14 UNK     1      17.203   0.099  37.317  1.00  0.00     0.009 A 
HETATM   21  C13 UNK     1      17.943  -1.076  37.633  1.00  0.00     0.023 A 
ENDBRANCH  15  17
ENDBRANCH   4  12
TORSDOF 2
ENDMDL
MODEL 8
REMARK VINA RESULT:      -8.4      2.004      2.733
REMARK  2 active torsions:
REMARK  status: ('A' for Active; 'I' for Inactive)
REMARK    1  A    between atoms: C2_8  and  C5_11 
REMARK    2  A    between atoms: C10_16  and  C9_15 
ROOT
HETATM    1  O1  UNK     1      19.231   6.883  31.658  1.00  0.00    -0.274 OA
HETATM    2  O3  UNK     1      19.984   5.430  30.068  1.00  0.00    -0.259 OA
HETATM    3  C1  UNK     1      17.649   6.129  33.340  1.00  0.00    -0.001 A 
HETATM    4  C2  UNK     1      18.418   4.569  31.641  1.00  0.00     0.096 A 
HETATM    5  C3  UNK     1      18.435   7.135  32.791  1.00  0.00     0.089 A 
HETATM    6  C4  UNK     1      17.660   4.813  32.720  1.00  0.00     0.036 A 
HETATM    7  C6  UNK     1      16.874   6.416  34.465  1.00  0.00     0.014 A 
HETATM    8  C7  UNK     1      19.272   5.632  31.046  1.00  0.00     0.303 A 
HETATM    9  C8  UNK     1      18.469   8.417  33.334  1.00  0.00     0.038 A 
HETATM   10  C11 UNK     1      16.897   7.698  35.022  1.00  0.00     0.001 A 
HETATM   11  C12 UNK     1      17.693   8.697  34.457  1.00  0.00     0.003 A 
ENDROOT
BRANCH   4  12
HETATM   12  C5  UNK     1      18.399   3.265  31.053  1.00  0.00     0.212 A 
HETATM   13  O2  UNK     1      17.428   2.899  30.168  1.00  0.00    -0.190 OA
HETATM   14  N2  UNK     1      17.709   1.578  29.796  1.00  0.00    -0.105 NA
HETATM   15  C9  UNK     1      18.813   1.305  30.498  1.00  0.00     0.196 A 
HETATM   16  N1  UNK     1      19.278   2.316  31.289  1.00  0.00    -0.199 NA
BRANCH  15  17
HETATM   17  C10 UNK     1      19.484  -0.004  30.421  1.00  0.00     0.054 A 
HETATM   18  S1  UNK     1      19.542  -1.119  31.720  1.00  0.00    -0.098 SA
HETATM   19  C15 UNK     1      20.442  -2.241  30.792  1.00  0.00     0.050 A 
HETATM   20  C14 UNK     1      20.693  -1.776  29.520  1.00  0.00     0.009 A 
HETATM   21  C13 UNK     1      20.139  -0.481  29.305  1.00  0.00     0.023 A 
ENDBRANCH  15  17
ENDBRANCH   4  12
TORSDOF 2
ENDMDL
MODEL 9
REMARK VINA RESULT:      -8.3      9.521     13.279
REMARK  2 active torsions:
REMARK  status: ('A' for Active; 'I' for Inactive)
REMARK    1  A    between atoms: C2_8  and  C5_11 
REMARK    2  A    between atoms: C10_16  and  C9_15 
ROOT
HETATM    1  O1  UNK     1      21.717  -6.915  38.078  1.00  0.00    -0.274 OA
HETATM    2  O3  UNK     1      22.305  -4.719  37.879  1.00  0.00    -0.259 OA
HETATM    3  C1  UNK     1      19.650  -7.712  37.081  1.00  0.00    -0.001 A 
HETATM    4  C2  UNK     1      20.245  -5.364  36.878  1.00  0.00     0.096 A 
HETATM    5  C3  UNK     1      20.812  -7.958  37.804  1.00  0.00     0.089 A 
HETATM    6  C4  UNK     1      19.384  -6.359  36.619  1.00  0.00     0.036 A 
HETATM    7  C6  UNK     1      18.777  -8.772  36.827  1.00  0.00     0.014 A 
HETATM    8  C7  UNK     1      21.497  -5.610  37.642  1.00  0.00     0.303 A 
HETATM    9  C8  UNK     1      21.126  -9.229  38.277  1.00  0.00     0.038 A 
HETATM   10  C11 UNK     1      19.079 -10.054  37.295  1.00  0.00     0.001 A 
HETATM   11  C12 UNK     1      20.251 -10.282  38.019  1.00  0.00     0.003 A 
ENDROOT
BRANCH   4  12
HETATM   12  C5  UNK     1      19.947  -4.043  36.413  1.00  0.00     0.212 A 
HETATM   13  O2  UNK     1      20.392  -3.599  35.202  1.00  0.00    -0.190 OA
HETATM   14  N2  UNK     1      19.926  -2.285  35.067  1.00  0.00    -0.105 NA
HETATM   15  C9  UNK     1      19.258  -2.093  36.209  1.00  0.00     0.196 A 
HETATM   16  N1  UNK     1      19.242  -3.150  37.072  1.00  0.00    -0.199 NA
BRANCH  15  17
HETATM   17  C10 UNK     1      18.582  -0.821  36.513  1.00  0.00     0.054 A 
HETATM   18  S1  UNK     1      18.538   0.512  35.437  1.00  0.00    -0.098 SA
HETATM   19  C15 UNK     1      17.623   1.446  36.542  1.00  0.00     0.050 A 
HETATM   20  C14 UNK     1      17.358   0.758  37.705  1.00  0.00     0.009 A 
HETATM   21  C13 UNK     1      17.912  -0.553  37.689  1.00  0.00     0.023 A 
ENDBRANCH  15  17
ENDBRANCH   4  12
TORSDOF 2
ENDMDL
MODEL 10
REMARK VINA RESULT:      -8.2     14.864     19.563
REMARK  2 active torsions:
REMARK  status: ('A' for Active; 'I' for Inactive)
REMARK    1  A    between atoms: C2_8  and  C5_11 
REMARK    2  A    between atoms: C10_16  and  C9_15 
ROOT
HETATM    1  O1  UNK     1      19.217  -3.372  12.647  1.00  0.00    -0.274 OA
HETATM    2  O3  UNK     1      18.333  -1.374  13.308  1.00  0.00    -0.259 OA
HETATM    3  C1  UNK     1      19.908  -5.002  14.310  1.00  0.00    -0.001 A 
HETATM    4  C2  UNK     1      18.993  -2.871  15.037  1.00  0.00     0.096 A 
HETATM    5  C3  UNK     1      19.755  -4.629  12.979  1.00  0.00     0.089 A 
HETATM    6  C4  UNK     1      19.507  -4.069  15.350  1.00  0.00     0.036 A 
HETATM    7  C6  UNK     1      20.445  -6.258  14.600  1.00  0.00     0.014 A 
HETATM    8  C7  UNK     1      18.814  -2.458  13.619  1.00  0.00     0.303 A 
HETATM    9  C8  UNK     1      20.121  -5.474  11.934  1.00  0.00     0.038 A 
HETATM   10  C11 UNK     1      20.816  -7.117  13.563  1.00  0.00     0.001 A 
HETATM   11  C12 UNK     1      20.655  -6.726  12.231  1.00  0.00     0.003 A 
ENDROOT
BRANCH   4  12
HETATM   12  C5  UNK     1      18.615  -1.975  16.088  1.00  0.00     0.212 A 
HETATM   13  O2  UNK     1      17.383  -2.042  16.669  1.00  0.00    -0.190 OA
HETATM   14  N2  UNK     1      17.351  -1.036  17.644  1.00  0.00    -0.105 NA
HETATM   15  C9  UNK     1      18.564  -0.485  17.536  1.00  0.00     0.196 A 
HETATM   16  N1  UNK     1      19.381  -1.031  16.589  1.00  0.00    -0.199 NA
BRANCH  15  17
HETATM   17  C10 UNK     1      18.989   0.639  18.386  1.00  0.00     0.054 A 
HETATM   18  S1  UNK     1      19.432   0.470  20.033  1.00  0.00    -0.098 SA
HETATM   19  C15 UNK     1      19.745   2.147  20.179  1.00  0.00     0.050 A 
HETATM   20  C14 UNK     1      19.516   2.821  19.000  1.00  0.00     0.009 A 
HETATM   21  C13 UNK     1      19.078   1.949  17.963  1.00  0.00     0.023 A 
ENDBRANCH  15  17
ENDBRANCH   4  12
TORSDOF 2
ENDMDL
