MODEL 1
REMARK VINA RESULT:      -9.6      0.000      0.000
REMARK  3 active torsions:
REMARK  status: ('A' for Active; 'I' for Inactive)
REMARK    1  A    between atoms: C8_16  and  N1_6 
REMARK    2  A    between atoms: C10_18  and  N2_7 
REMARK    3  A    between atoms: C16_24  and  C8_16 
ROOT
HETATM    1  O1  UNK     1      31.157  -8.566  37.366  1.00  0.00    -0.291 OA
HETATM    2  O2  UNK     1      30.646  -7.235  33.470  1.00  0.00    -0.271 OA
HETATM    3  O3  UNK     1      27.462  -9.710  35.789  1.00  0.00    -0.274 OA
HETATM    4  O4  UNK     1      28.403 -10.087  33.759  1.00  0.00    -0.259 OA
HETATM    5  N1  UNK     1      31.039  -9.211  32.240  1.00  0.00    -0.312 N 
HETATM    6  N3  UNK     1      34.620  -8.757  34.039  1.00  0.00    -0.191 NA
HETATM    7  C1  UNK     1      31.121  -9.379  34.614  1.00  0.00     0.147 A 
HETATM    8  C2  UNK     1      31.350 -10.715  33.937  1.00  0.00    -0.003 A 
HETATM    9  C3  UNK     1      30.895  -8.431  33.401  1.00  0.00     0.248 A 
HETATM   10  C4  UNK     1      29.879  -9.349  35.491  1.00  0.00     0.080 A 
HETATM   11  C5  UNK     1      31.304 -10.554  32.549  1.00  0.00     0.045 A 
HETATM   12  C6  UNK     1      32.375  -8.885  35.335  1.00  0.00     0.100 A 
HETATM   13  C7  UNK     1      29.971  -8.959  36.774  1.00  0.00     0.105 A 
HETATM   14  C9  UNK     1      31.587 -11.958  34.500  1.00  0.00     0.011 A 
HETATM   15  C10 UNK     1      32.337  -8.515  36.635  1.00  0.00     0.160 A 
HETATM   16  C11 UNK     1      31.493 -11.620  31.687  1.00  0.00     0.030 A 
HETATM   17  C12 UNK     1      28.553  -9.744  34.927  1.00  0.00     0.299 A 
HETATM   18  C13 UNK     1      28.803  -8.925  37.652  1.00  0.00     0.033 A 
HETATM   19  C14 UNK     1      31.779 -13.045  33.643  1.00  0.00     0.001 A 
HETATM   20  C15 UNK     1      31.733 -12.876  32.249  1.00  0.00     0.002 A 
HETATM   21  C17 UNK     1      27.573  -9.307  37.130  1.00  0.00     0.092 A 
HETATM   22  C18 UNK     1      33.617  -8.814  34.619  1.00  0.00     0.101 C 
HETATM   23  C19 UNK     1      28.852  -8.530  38.996  1.00  0.00     0.017 A 
HETATM   24  C20 UNK     1      26.408  -9.307  37.896  1.00  0.00     0.038 A 
HETATM   25  C23 UNK     1      27.693  -8.524  39.778  1.00  0.00     0.001 A 
HETATM   26  C24 UNK     1      26.472  -8.912  39.228  1.00  0.00     0.003 A 
ENDROOT
BRANCH  15  27
HETATM   27  N2  UNK     1      33.407  -8.065  37.359  1.00  0.00    -0.379 N 
HETATM   28  H8  UNK     1      33.920  -7.240  37.075  1.00  0.00     0.158 HD
HETATM   29  H9  UNK     1      33.681  -8.572  38.191  1.00  0.00     0.158 HD
ENDBRANCH  15  27
BRANCH   5  30
HETATM   30  C8  UNK     1      30.929  -8.696  30.897  1.00  0.00     0.170 C 
BRANCH  30  31
HETATM   31  C16 UNK     1      29.580  -8.086  30.631  1.00  0.00    -0.040 A 
HETATM   32  C21 UNK     1      29.477  -6.719  30.407  1.00  0.00     0.010 A 
HETATM   33  C25 UNK     1      28.226  -6.154  30.161  1.00  0.00     0.024 A 
HETATM   34  C27 UNK     1      27.087  -6.960  30.142  1.00  0.00     0.034 A 
HETATM   35  C26 UNK     1      27.201  -8.331  30.369  1.00  0.00     0.024 A 
HETATM   36 Cl1  UNK     1      25.544  -6.262  29.840  1.00  0.00    -0.084 Cl
HETATM   37  C22 UNK     1      28.452  -8.896  30.614  1.00  0.00     0.010 A 
ENDBRANCH  30  31
ENDBRANCH   5  30
TORSDOF 3
ENDMDL
MODEL 2
REMARK VINA RESULT:      -9.5      2.923      6.792
REMARK  3 active torsions:
REMARK  status: ('A' for Active; 'I' for Inactive)
REMARK    1  A    between atoms: C8_16  and  N1_6 
REMARK    2  A    between atoms: C10_18  and  N2_7 
REMARK    3  A    between atoms: C16_24  and  C8_16 
ROOT
HETATM    1  O1  UNK     1      33.065  -7.399  33.516  1.00  0.00    -0.291 OA
HETATM    2  O2  UNK     1      30.703  -9.562  36.152  1.00  0.00    -0.271 OA
HETATM    3  O3  UNK     1      28.991  -6.882  32.758  1.00  0.00    -0.274 OA
HETATM    4  O4  UNK     1      28.539  -6.879  34.981  1.00  0.00    -0.259 OA
HETATM    5  N1  UNK     1      29.970  -7.870  37.627  1.00  0.00    -0.312 N 
HETATM    6  N3  UNK     1      33.952  -7.675  38.231  1.00  0.00    -0.191 NA
HETATM    7  C1  UNK     1      31.341  -7.195  35.800  1.00  0.00     0.147 A 
HETATM    8  C2  UNK     1      30.902  -6.021  36.652  1.00  0.00    -0.003 A 
HETATM    9  C3  UNK     1      30.648  -8.393  36.512  1.00  0.00     0.248 A 
HETATM   10  C4  UNK     1      30.838  -7.126  34.366  1.00  0.00     0.080 A 
HETATM   11  C5  UNK     1      30.113  -6.477  37.713  1.00  0.00     0.045 A 
HETATM   12  C6  UNK     1      32.848  -7.434  35.896  1.00  0.00     0.100 A 
HETATM   13  C7  UNK     1      31.705  -7.225  33.344  1.00  0.00     0.105 A 
HETATM   14  C9  UNK     1      31.184  -4.673  36.505  1.00  0.00     0.011 A 
HETATM   15  C10 UNK     1      33.616  -7.521  34.786  1.00  0.00     0.160 A 
HETATM   16  C11 UNK     1      29.587  -5.608  38.652  1.00  0.00     0.030 A 
HETATM   17  C12 UNK     1      29.379  -6.954  34.092  1.00  0.00     0.299 A 
HETATM   18  C13 UNK     1      31.263  -7.155  31.953  1.00  0.00     0.033 A 
HETATM   19  C14 UNK     1      30.659  -3.783  37.445  1.00  0.00     0.001 A 
HETATM   20  C15 UNK     1      29.868  -4.247  38.509  1.00  0.00     0.002 A 
HETATM   21  C17 UNK     1      29.908  -6.981  31.699  1.00  0.00     0.092 A 
HETATM   22  C18 UNK     1      33.459  -7.567  37.187  1.00  0.00     0.101 C 
HETATM   23  C19 UNK     1      32.130  -7.250  30.856  1.00  0.00     0.017 A 
HETATM   24  C20 UNK     1      29.399  -6.901  30.403  1.00  0.00     0.038 A 
HETATM   25  C23 UNK     1      31.636  -7.172  29.550  1.00  0.00     0.001 A 
HETATM   26  C24 UNK     1      30.272  -6.997  29.324  1.00  0.00     0.003 A 
ENDROOT
BRANCH  15  27
HETATM   27  N2  UNK     1      34.968  -7.729  34.776  1.00  0.00    -0.379 N 
HETATM   28  H8  UNK     1      35.384  -8.480  35.311  1.00  0.00     0.158 HD
HETATM   29  H9  UNK     1      35.551  -7.116  34.221  1.00  0.00     0.158 HD
ENDBRANCH  15  27
BRANCH   5  30
HETATM   30  C8  UNK     1      29.218  -8.666  38.567  1.00  0.00     0.170 C 
BRANCH  30  31
HETATM   31  C16 UNK     1      27.757  -8.728  38.219  1.00  0.00    -0.040 A 
HETATM   32  C21 UNK     1      27.336  -9.524  37.161  1.00  0.00     0.010 A 
HETATM   33  C25 UNK     1      25.980  -9.580  36.838  1.00  0.00     0.024 A 
HETATM   34  C27 UNK     1      25.056  -8.840  37.576  1.00  0.00     0.034 A 
HETATM   35  C26 UNK     1      25.488  -8.043  38.636  1.00  0.00     0.024 A 
HETATM   36 Cl1  UNK     1      23.384  -8.909  37.176  1.00  0.00    -0.084 Cl
HETATM   37  C22 UNK     1      26.843  -7.987  38.959  1.00  0.00     0.010 A 
ENDBRANCH  30  31
ENDBRANCH   5  30
TORSDOF 3
ENDMDL
MODEL 3
REMARK VINA RESULT:      -9.5      1.987      2.315
REMARK  3 active torsions:
REMARK  status: ('A' for Active; 'I' for Inactive)
REMARK    1  A    between atoms: C8_16  and  N1_6 
REMARK    2  A    between atoms: C10_18  and  N2_7 
REMARK    3  A    between atoms: C16_24  and  C8_16 
ROOT
HETATM    1  O1  UNK     1      32.939  -6.481  36.603  1.00  0.00    -0.291 OA
HETATM    2  O2  UNK     1      31.804  -6.497  32.613  1.00  0.00    -0.271 OA
HETATM    3  O3  UNK     1      28.805  -6.865  36.149  1.00  0.00    -0.274 OA
HETATM    4  O4  UNK     1      29.090  -8.201  34.338  1.00  0.00    -0.259 OA
HETATM    5  N1  UNK     1      31.393  -8.793  32.247  1.00  0.00    -0.312 N 
HETATM    6  N3  UNK     1      35.311  -8.904  33.198  1.00  0.00    -0.191 NA
HETATM    7  C1  UNK     1      32.023  -8.143  34.450  1.00  0.00     0.147 A 
HETATM    8  C2  UNK     1      31.749  -9.629  34.348  1.00  0.00    -0.003 A 
HETATM    9  C3  UNK     1      31.735  -7.655  33.000  1.00  0.00     0.248 A 
HETATM   10  C4  UNK     1      31.084  -7.416  35.401  1.00  0.00     0.080 A 
HETATM   11  C5  UNK     1      31.398  -9.955  33.034  1.00  0.00     0.045 A 
HETATM   12  C6  UNK     1      33.498  -7.854  34.729  1.00  0.00     0.100 A 
HETATM   13  C7  UNK     1      31.584  -6.657  36.391  1.00  0.00     0.105 A 
HETATM   14  C9  UNK     1      31.815 -10.606  35.328  1.00  0.00     0.011 A 
HETATM   15  C10 UNK     1      33.876  -7.064  35.759  1.00  0.00     0.160 A 
HETATM   16  C11 UNK     1      31.105 -11.255  32.661  1.00  0.00     0.030 A 
HETATM   17  C12 UNK     1      29.605  -7.541  35.233  1.00  0.00     0.299 A 
HETATM   18  C13 UNK     1      30.716  -5.951  37.331  1.00  0.00     0.033 A 
HETATM   19  C14 UNK     1      31.521 -11.923  34.967  1.00  0.00     0.001 A 
HETATM   20  C15 UNK     1      31.169 -12.244  33.646  1.00  0.00     0.002 A 
HETATM   21  C17 UNK     1      29.340  -6.079  37.182  1.00  0.00     0.092 A 
HETATM   22  C18 UNK     1      34.501  -8.435  33.883  1.00  0.00     0.101 C 
HETATM   23  C19 UNK     1      31.192  -5.151  38.378  1.00  0.00     0.017 A 
HETATM   24  C20 UNK     1      28.438  -5.443  38.035  1.00  0.00     0.038 A 
HETATM   25  C23 UNK     1      30.302  -4.506  39.242  1.00  0.00     0.001 A 
HETATM   26  C24 UNK     1      28.926  -4.652  39.070  1.00  0.00     0.003 A 
ENDROOT
BRANCH  15  27
HETATM   27  N2  UNK     1      35.168  -6.755  36.084  1.00  0.00    -0.379 N 
HETATM   28  H8  UNK     1      35.941  -7.313  35.743  1.00  0.00     0.158 HD
HETATM   29  H9  UNK     1      35.344  -5.953  36.676  1.00  0.00     0.158 HD
ENDBRANCH  15  27
BRANCH   5  30
HETATM   30  C8  UNK     1      31.077  -8.769  30.840  1.00  0.00     0.170 C 
BRANCH  30  31
HETATM   31  C16 UNK     1      29.725  -8.169  30.570  1.00  0.00    -0.040 A 
HETATM   32  C21 UNK     1      29.629  -6.836  30.193  1.00  0.00     0.010 A 
HETATM   33  C25 UNK     1      28.374  -6.279  29.944  1.00  0.00     0.024 A 
HETATM   34  C27 UNK     1      27.226  -7.060  30.076  1.00  0.00     0.034 A 
HETATM   35  C26 UNK     1      27.332  -8.398  30.456  1.00  0.00     0.024 A 
HETATM   36 Cl1  UNK     1      25.679  -6.373  29.770  1.00  0.00    -0.084 Cl
HETATM   37  C22 UNK     1      28.587  -8.954  30.704  1.00  0.00     0.010 A 
ENDBRANCH  30  31
ENDBRANCH   5  30
TORSDOF 3
ENDMDL
MODEL 4
REMARK VINA RESULT:      -9.5      2.352      2.891
REMARK  3 active torsions:
REMARK  status: ('A' for Active; 'I' for Inactive)
REMARK    1  A    between atoms: C8_16  and  N1_6 
REMARK    2  A    between atoms: C10_18  and  N2_7 
REMARK    3  A    between atoms: C16_24  and  C8_16 
ROOT
HETATM    1  O1  UNK     1      34.148  -7.346  35.497  1.00  0.00    -0.291 OA
HETATM    2  O2  UNK     1      32.367  -6.950  31.772  1.00  0.00    -0.271 OA
HETATM    3  O3  UNK     1      29.998  -6.967  35.775  1.00  0.00    -0.274 OA
HETATM    4  O4  UNK     1      29.720  -8.235  33.914  1.00  0.00    -0.259 OA
HETATM    5  N1  UNK     1      31.485  -9.114  31.437  1.00  0.00    -0.312 N 
HETATM    6  N3  UNK     1      35.419  -9.968  31.675  1.00  0.00    -0.191 NA
HETATM    7  C1  UNK     1      32.589  -8.703  33.506  1.00  0.00     0.147 A 
HETATM    8  C2  UNK     1      32.034 -10.110  33.423  1.00  0.00    -0.003 A 
HETATM    9  C3  UNK     1      32.153  -8.097  32.141  1.00  0.00     0.248 A 
HETATM   10  C4  UNK     1      31.976  -7.873  34.624  1.00  0.00     0.080 A 
HETATM   11  C5  UNK     1      31.410 -10.298  32.186  1.00  0.00     0.045 A 
HETATM   12  C6  UNK     1      34.118  -8.696  33.525  1.00  0.00     0.100 A 
HETATM   13  C7  UNK     1      32.769  -7.268  35.524  1.00  0.00     0.105 A 
HETATM   14  C9  UNK     1      32.085 -11.134  34.356  1.00  0.00     0.011 A 
HETATM   15  C10 UNK     1      34.805  -8.041  34.489  1.00  0.00     0.160 A 
HETATM   16  C11 UNK     1      30.824 -11.504  31.844  1.00  0.00     0.030 A 
HETATM   17  C12 UNK     1      30.492  -7.725  34.718  1.00  0.00     0.299 A 
HETATM   18  C13 UNK     1      32.218  -6.470  36.618  1.00  0.00     0.033 A 
HETATM   19  C14 UNK     1      31.497 -12.357  34.025  1.00  0.00     0.001 A 
HETATM   20  C15 UNK     1      30.872 -12.540  32.780  1.00  0.00     0.002 A 
HETATM   21  C17 UNK     1      30.837  -6.344  36.713  1.00  0.00     0.092 A 
HETATM   22  C18 UNK     1      34.838  -9.399  32.503  1.00  0.00     0.101 C 
HETATM   23  C19 UNK     1      33.004  -5.824  37.582  1.00  0.00     0.017 A 
HETATM   24  C20 UNK     1      30.226  -5.604  37.725  1.00  0.00     0.038 A 
HETATM   25  C23 UNK     1      32.408  -5.078  38.603  1.00  0.00     0.001 A 
HETATM   26  C24 UNK     1      31.020  -4.968  38.674  1.00  0.00     0.003 A 
ENDROOT
BRANCH  15  27
HETATM   27  N2  UNK     1      36.168  -7.984  34.586  1.00  0.00    -0.379 N 
HETATM   28  H8  UNK     1      36.656  -8.432  35.350  1.00  0.00     0.158 HD
HETATM   29  H9  UNK     1      36.687  -7.482  33.877  1.00  0.00     0.158 HD
ENDBRANCH  15  27
BRANCH   5  30
HETATM   30  C8  UNK     1      30.943  -8.961  30.108  1.00  0.00     0.170 C 
BRANCH  30  31
HETATM   31  C16 UNK     1      29.583  -8.320  30.119  1.00  0.00    -0.040 A 
HETATM   32  C21 UNK     1      29.476  -6.936  30.052  1.00  0.00     0.010 A 
HETATM   33  C25 UNK     1      28.214  -6.343  30.063  1.00  0.00     0.024 A 
HETATM   34  C27 UNK     1      27.069  -7.137  30.142  1.00  0.00     0.034 A 
HETATM   35  C26 UNK     1      27.187  -8.525  30.210  1.00  0.00     0.024 A 
HETATM   36 Cl1  UNK     1      25.513  -6.404  30.157  1.00  0.00    -0.084 Cl
HETATM   37  C22 UNK     1      28.449  -9.119  30.199  1.00  0.00     0.010 A 
ENDBRANCH  30  31
ENDBRANCH   5  30
TORSDOF 3
ENDMDL
MODEL 5
REMARK VINA RESULT:      -9.4      3.156      7.084
REMARK  3 active torsions:
REMARK  status: ('A' for Active; 'I' for Inactive)
REMARK    1  A    between atoms: C8_16  and  N1_6 
REMARK    2  A    between atoms: C10_18  and  N2_7 
REMARK    3  A    between atoms: C16_24  and  C8_16 
ROOT
HETATM    1  O1  UNK     1      33.627  -7.504  31.514  1.00  0.00    -0.291 OA
HETATM    2  O2  UNK     1      32.949  -9.247  35.217  1.00  0.00    -0.271 OA
HETATM    3  O3  UNK     1      29.584  -7.446  32.558  1.00  0.00    -0.274 OA
HETATM    4  O4  UNK     1      30.111  -7.022  34.724  1.00  0.00    -0.259 OA
HETATM    5  N1  UNK     1      32.651  -7.347  36.586  1.00  0.00    -0.312 N 
HETATM    6  N3  UNK     1      36.438  -6.748  35.338  1.00  0.00    -0.191 NA
HETATM    7  C1  UNK     1      33.009  -6.962  34.264  1.00  0.00     0.147 A 
HETATM    8  C2  UNK     1      32.793  -5.674  35.031  1.00  0.00    -0.003 A 
HETATM    9  C3  UNK     1      32.871  -8.037  35.381  1.00  0.00     0.248 A 
HETATM   10  C4  UNK     1      31.948  -7.224  33.206  1.00  0.00     0.080 A 
HETATM   11  C5  UNK     1      32.601  -5.958  36.386  1.00  0.00     0.045 A 
HETATM   12  C6  UNK     1      34.435  -7.068  33.721  1.00  0.00     0.100 A 
HETATM   13  C7  UNK     1      32.311  -7.468  31.935  1.00  0.00     0.105 A 
HETATM   14  C9  UNK     1      32.778  -4.367  34.570  1.00  0.00     0.011 A 
HETATM   15  C10 UNK     1      34.671  -7.324  32.414  1.00  0.00     0.160 A 
HETATM   16  C11 UNK     1      32.391  -4.956  37.317  1.00  0.00     0.030 A 
HETATM   17  C12 UNK     1      30.501  -7.217  33.578  1.00  0.00     0.299 A 
HETATM   18  C13 UNK     1      31.322  -7.714  30.887  1.00  0.00     0.033 A 
HETATM   19  C14 UNK     1      32.565  -3.344  35.498  1.00  0.00     0.001 A 
HETATM   20  C15 UNK     1      32.374  -3.637  36.858  1.00  0.00     0.002 A 
HETATM   21  C17 UNK     1      29.976  -7.694  31.233  1.00  0.00     0.092 A 
HETATM   22  C18 UNK     1      35.543  -6.891  34.614  1.00  0.00     0.101 C 
HETATM   23  C19 UNK     1      31.654  -7.969  29.550  1.00  0.00     0.017 A 
HETATM   24  C20 UNK     1      28.965  -7.916  30.298  1.00  0.00     0.038 A 
HETATM   25  C23 UNK     1      30.653  -8.195  28.600  1.00  0.00     0.001 A 
HETATM   26  C24 UNK     1      29.310  -8.168  28.974  1.00  0.00     0.003 A 
ENDROOT
BRANCH  15  27
HETATM   27  N2  UNK     1      35.908  -7.433  31.842  1.00  0.00    -0.379 N 
HETATM   28  H8  UNK     1      36.704  -6.936  32.221  1.00  0.00     0.158 HD
HETATM   29  H9  UNK     1      36.019  -8.023  31.028  1.00  0.00     0.158 HD
ENDBRANCH  15  27
BRANCH   5  30
HETATM   30  C8  UNK     1      32.494  -7.986  37.870  1.00  0.00     0.170 C 
BRANCH  30  31
HETATM   31  C16 UNK     1      31.052  -8.257  38.199  1.00  0.00    -0.040 A 
HETATM   32  C21 UNK     1      30.175  -7.193  38.367  1.00  0.00     0.010 A 
HETATM   33  C25 UNK     1      28.837  -7.445  38.672  1.00  0.00     0.024 A 
HETATM   34  C27 UNK     1      28.388  -8.759  38.809  1.00  0.00     0.034 A 
HETATM   35  C26 UNK     1      29.277  -9.820  38.640  1.00  0.00     0.024 A 
HETATM   36 Cl1  UNK     1      26.739  -9.069  39.188  1.00  0.00    -0.084 Cl
HETATM   37  C22 UNK     1      30.614  -9.568  38.334  1.00  0.00     0.010 A 
ENDBRANCH  30  31
ENDBRANCH   5  30
TORSDOF 3
ENDMDL
MODEL 6
REMARK VINA RESULT:      -9.4      2.818      3.621
REMARK  3 active torsions:
REMARK  status: ('A' for Active; 'I' for Inactive)
REMARK    1  A    between atoms: C8_16  and  N1_6 
REMARK    2  A    between atoms: C10_18  and  N2_7 
REMARK    3  A    between atoms: C16_24  and  C8_16 
ROOT
HETATM    1  O1  UNK     1      35.036  -8.128  34.544  1.00  0.00    -0.291 OA
HETATM    2  O2  UNK     1      32.862  -7.310  31.107  1.00  0.00    -0.271 OA
HETATM    3  O3  UNK     1      31.052  -7.205  35.390  1.00  0.00    -0.274 OA
HETATM    4  O4  UNK     1      30.360  -8.330  33.546  1.00  0.00    -0.259 OA
HETATM    5  N1  UNK     1      31.648  -9.316  30.826  1.00  0.00    -0.312 N 
HETATM    6  N3  UNK     1      35.421 -10.705  30.505  1.00  0.00    -0.191 NA
HETATM    7  C1  UNK     1      33.058  -9.161  32.740  1.00  0.00     0.147 A 
HETATM    8  C2  UNK     1      32.304 -10.474  32.688  1.00  0.00    -0.003 A 
HETATM    9  C3  UNK     1      32.538  -8.434  31.466  1.00  0.00     0.248 A 
HETATM   10  C4  UNK     1      32.717  -8.312  33.955  1.00  0.00     0.080 A 
HETATM   11  C5  UNK     1      31.505 -10.514  31.542  1.00  0.00     0.045 A 
HETATM   12  C6  UNK     1      34.562  -9.362  32.552  1.00  0.00     0.100 A 
HETATM   13  C7  UNK     1      33.697  -7.865  34.759  1.00  0.00     0.105 A 
HETATM   14  C9  UNK     1      32.331 -11.540  33.573  1.00  0.00     0.011 A 
HETATM   15  C10 UNK     1      35.453  -8.854  33.434  1.00  0.00     0.160 A 
HETATM   16  C11 UNK     1      30.715 -11.611  31.244  1.00  0.00     0.030 A 
HETATM   17  C12 UNK     1      31.294  -7.969  34.254  1.00  0.00     0.299 A 
HETATM   18  C13 UNK     1      33.410  -7.055  35.942  1.00  0.00     0.033 A 
HETATM   19  C14 UNK     1      31.538 -12.654  33.287  1.00  0.00     0.001 A 
HETATM   20  C15 UNK     1      30.739 -12.689  32.133  1.00  0.00     0.002 A 
HETATM   21  C17 UNK     1      32.085  -6.748  36.226  1.00  0.00     0.092 A 
HETATM   22  C18 UNK     1      35.037 -10.104  31.421  1.00  0.00     0.101 C 
HETATM   23  C19 UNK     1      34.397  -6.570  36.810  1.00  0.00     0.017 A 
HETATM   24  C20 UNK     1      31.720  -5.984  37.334  1.00  0.00     0.038 A 
HETATM   25  C23 UNK     1      34.049  -5.802  37.925  1.00  0.00     0.001 A 
HETATM   26  C24 UNK     1      32.711  -5.509  38.186  1.00  0.00     0.003 A 
ENDROOT
BRANCH  15  27
HETATM   27  N2  UNK     1      36.811  -8.987  33.349  1.00  0.00    -0.379 N 
HETATM   28  H8  UNK     1      37.397  -8.903  34.169  1.00  0.00     0.158 HD
HETATM   29  H9  UNK     1      37.227  -9.173  32.445  1.00  0.00     0.158 HD
ENDBRANCH  15  27
BRANCH   5  30
HETATM   30  C8  UNK     1      30.967  -9.024  29.589  1.00  0.00     0.170 C 
BRANCH  30  31
HETATM   31  C16 UNK     1      29.622  -8.389  29.815  1.00  0.00    -0.040 A 
HETATM   32  C21 UNK     1      29.530  -7.010  29.953  1.00  0.00     0.010 A 
HETATM   33  C25 UNK     1      28.282  -6.422  30.164  1.00  0.00     0.024 A 
HETATM   34  C27 UNK     1      27.139  -7.218  30.237  1.00  0.00     0.034 A 
HETATM   35  C26 UNK     1      27.242  -8.601  30.099  1.00  0.00     0.024 A 
HETATM   36 Cl1  UNK     1      25.602  -6.491  30.499  1.00  0.00    -0.084 Cl
HETATM   37  C22 UNK     1      28.489  -9.190  29.888  1.00  0.00     0.010 A 
ENDBRANCH  30  31
ENDBRANCH   5  30
TORSDOF 3
ENDMDL
MODEL 7
REMARK VINA RESULT:      -9.3      3.297      6.596
REMARK  3 active torsions:
REMARK  status: ('A' for Active; 'I' for Inactive)
REMARK    1  A    between atoms: C8_16  and  N1_6 
REMARK    2  A    between atoms: C10_18  and  N2_7 
REMARK    3  A    between atoms: C16_24  and  C8_16 
ROOT
HETATM    1  O1  UNK     1      30.659 -10.096  31.244  1.00  0.00    -0.291 OA
HETATM    2  O2  UNK     1      31.778  -9.148  35.124  1.00  0.00    -0.271 OA
HETATM    3  O3  UNK     1      29.624  -6.180  32.263  1.00  0.00    -0.274 OA
HETATM    4  O4  UNK     1      31.554  -5.934  33.430  1.00  0.00    -0.259 OA
HETATM    5  N1  UNK     1      33.708  -7.840  34.753  1.00  0.00    -0.312 N 
HETATM    6  N3  UNK     1      34.892 -11.344  33.145  1.00  0.00    -0.191 NA
HETATM    7  C1  UNK     1      32.549  -8.629  32.828  1.00  0.00     0.147 A 
HETATM    8  C2  UNK     1      33.744  -7.772  32.466  1.00  0.00    -0.003 A 
HETATM    9  C3  UNK     1      32.584  -8.600  34.384  1.00  0.00     0.248 A 
HETATM   10  C4  UNK     1      31.222  -8.049  32.363  1.00  0.00     0.080 A 
HETATM   11  C5  UNK     1      34.392  -7.349  33.630  1.00  0.00     0.045 A 
HETATM   12  C6  UNK     1      32.745 -10.086  32.408  1.00  0.00     0.100 A 
HETATM   13  C7  UNK     1      30.386  -8.794  31.619  1.00  0.00     0.105 A 
HETATM   14  C9  UNK     1      34.220  -7.409  31.216  1.00  0.00     0.011 A 
HETATM   15  C10 UNK     1      31.823 -10.731  31.659  1.00  0.00     0.160 A 
HETATM   16  C11 UNK     1      35.526  -6.557  33.584  1.00  0.00     0.030 A 
HETATM   17  C12 UNK     1      30.843  -6.653  32.737  1.00  0.00     0.299 A 
HETATM   18  C13 UNK     1      29.107  -8.270  31.144  1.00  0.00     0.033 A 
HETATM   19  C14 UNK     1      35.363  -6.609  31.153  1.00  0.00     0.001 A 
HETATM   20  C15 UNK     1      36.010  -6.188  32.327  1.00  0.00     0.002 A 
HETATM   21  C17 UNK     1      28.762  -6.966  31.481  1.00  0.00     0.092 A 
HETATM   22  C18 UNK     1      33.932 -10.782  32.815  1.00  0.00     0.101 C 
HETATM   23  C19 UNK     1      28.207  -9.007  30.364  1.00  0.00     0.017 A 
HETATM   24  C20 UNK     1      27.563  -6.385  31.069  1.00  0.00     0.038 A 
HETATM   25  C23 UNK     1      27.000  -8.440  29.944  1.00  0.00     0.001 A 
HETATM   26  C24 UNK     1      26.679  -7.130  30.296  1.00  0.00     0.003 A 
ENDROOT
BRANCH  15  27
HETATM   27  N2  UNK     1      31.916 -12.028  31.235  1.00  0.00    -0.379 N 
HETATM   28  H8  UNK     1      32.750 -12.575  31.407  1.00  0.00     0.158 HD
HETATM   29  H9  UNK     1      31.133 -12.438  30.744  1.00  0.00     0.158 HD
ENDBRANCH  15  27
BRANCH   5  30
HETATM   30  C8  UNK     1      34.110  -7.594  36.117  1.00  0.00     0.170 C 
BRANCH  30  31
HETATM   31  C16 UNK     1      33.115  -6.745  36.859  1.00  0.00    -0.040 A 
HETATM   32  C21 UNK     1      32.369  -7.304  37.889  1.00  0.00     0.010 A 
HETATM   33  C25 UNK     1      31.445  -6.516  38.576  1.00  0.00     0.024 A 
HETATM   34  C27 UNK     1      31.274  -5.177  38.226  1.00  0.00     0.034 A 
HETATM   35  C26 UNK     1      32.026  -4.625  37.190  1.00  0.00     0.024 A 
HETATM   36 Cl1  UNK     1      30.133  -4.206  39.073  1.00  0.00    -0.084 Cl
HETATM   37  C22 UNK     1      32.950  -5.412  36.503  1.00  0.00     0.010 A 
ENDBRANCH  30  31
ENDBRANCH   5  30
TORSDOF 3
ENDMDL
MODEL 8
REMARK VINA RESULT:      -9.3      2.305      2.719
REMARK  3 active torsions:
REMARK  status: ('A' for Active; 'I' for Inactive)
REMARK    1  A    between atoms: C8_16  and  N1_6 
REMARK    2  A    between atoms: C10_18  and  N2_7 
REMARK    3  A    between atoms: C16_24  and  C8_16 
ROOT
HETATM    1  O1  UNK     1      30.525  -6.475  37.621  1.00  0.00    -0.291 OA
HETATM    2  O2  UNK     1      29.680  -5.451  33.691  1.00  0.00    -0.271 OA
HETATM    3  O3  UNK     1      28.379  -9.465  35.648  1.00  0.00    -0.274 OA
HETATM    4  O4  UNK     1      29.539  -9.088  33.735  1.00  0.00    -0.259 OA
HETATM    5  N1  UNK     1      31.273  -6.736  32.515  1.00  0.00    -0.312 N 
HETATM    6  N3  UNK     1      33.715  -4.384  34.697  1.00  0.00    -0.191 NA
HETATM    7  C1  UNK     1      31.224  -6.976  34.884  1.00  0.00     0.147 A 
HETATM    8  C2  UNK     1      32.257  -7.876  34.238  1.00  0.00    -0.003 A 
HETATM    9  C3  UNK     1      30.592  -6.266  33.651  1.00  0.00     0.248 A 
HETATM   10  C4  UNK     1      30.131  -7.737  35.618  1.00  0.00     0.080 A 
HETATM   11  C5  UNK     1      32.251  -7.685  32.853  1.00  0.00     0.045 A 
HETATM   12  C6  UNK     1      31.874  -5.887  35.738  1.00  0.00     0.100 A 
HETATM   13  C7  UNK     1      29.860  -7.450  36.903  1.00  0.00     0.105 A 
HETATM   14  C9  UNK     1      33.131  -8.777  34.826  1.00  0.00     0.011 A 
HETATM   15  C10 UNK     1      31.508  -5.694  37.025  1.00  0.00     0.160 A 
HETATM   16  C11 UNK     1      33.109  -8.380  32.019  1.00  0.00     0.030 A 
HETATM   17  C12 UNK     1      29.352  -8.797  34.912  1.00  0.00     0.299 A 
HETATM   18  C13 UNK     1      28.823  -8.164  37.647  1.00  0.00     0.033 A 
HETATM   19  C14 UNK     1      34.003  -9.487  33.997  1.00  0.00     0.001 A 
HETATM   20  C15 UNK     1      33.992  -9.289  32.606  1.00  0.00     0.002 A 
HETATM   21  C17 UNK     1      28.109  -9.160  36.992  1.00  0.00     0.092 A 
HETATM   22  C18 UNK     1      32.892  -5.056  35.163  1.00  0.00     0.101 C 
HETATM   23  C19 UNK     1      28.509  -7.902  38.987  1.00  0.00     0.017 A 
HETATM   24  C20 UNK     1      27.105  -9.893  37.625  1.00  0.00     0.038 A 
HETATM   25  C23 UNK     1      27.505  -8.627  39.636  1.00  0.00     0.001 A 
HETATM   26  C24 UNK     1      26.804  -9.622  38.956  1.00  0.00     0.003 A 
ENDROOT
BRANCH  15  27
HETATM   27  N2  UNK     1      32.035  -4.749  37.862  1.00  0.00    -0.379 N 
HETATM   28  H8  UNK     1      31.438  -4.165  38.433  1.00  0.00     0.158 HD
HETATM   29  H9  UNK     1      33.041  -4.642  37.904  1.00  0.00     0.158 HD
ENDBRANCH  15  27
BRANCH   5  30
HETATM   30  C8  UNK     1      31.001  -6.300  31.167  1.00  0.00     0.170 C 
BRANCH  30  31
HETATM   31  C16 UNK     1      30.263  -7.339  30.370  1.00  0.00    -0.040 A 
HETATM   32  C21 UNK     1      28.982  -7.716  30.752  1.00  0.00     0.010 A 
HETATM   33  C25 UNK     1      28.298  -8.681  30.013  1.00  0.00     0.024 A 
HETATM   34  C27 UNK     1      28.902  -9.263  28.898  1.00  0.00     0.034 A 
HETATM   35  C26 UNK     1      30.189  -8.880  28.523  1.00  0.00     0.024 A 
HETATM   36 Cl1  UNK     1      28.059 -10.455  27.988  1.00  0.00    -0.084 Cl
HETATM   37  C22 UNK     1      30.872  -7.914  29.261  1.00  0.00     0.010 A 
ENDBRANCH  30  31
ENDBRANCH   5  30
TORSDOF 3
ENDMDL
MODEL 9
REMARK VINA RESULT:      -9.2      4.299      6.601
REMARK  3 active torsions:
REMARK  status: ('A' for Active; 'I' for Inactive)
REMARK    1  A    between atoms: C8_16  and  N1_6 
REMARK    2  A    between atoms: C10_18  and  N2_7 
REMARK    3  A    between atoms: C16_24  and  C8_16 
ROOT
HETATM    1  O1  UNK     1      24.178  -7.371  38.225  1.00  0.00    -0.291 OA
HETATM    2  O2  UNK     1      27.459  -7.170  35.694  1.00  0.00    -0.271 OA
HETATM    3  O3  UNK     1      24.709 -10.904  36.062  1.00  0.00    -0.274 OA
HETATM    4  O4  UNK     1      26.962 -10.731  36.260  1.00  0.00    -0.259 OA
HETATM    5  N1  UNK     1      29.054  -8.438  36.886  1.00  0.00    -0.312 N 
HETATM    6  N3  UNK     1      28.392  -5.455  39.518  1.00  0.00    -0.191 NA
HETATM    7  C1  UNK     1      26.880  -8.259  37.841  1.00  0.00     0.147 A 
HETATM    8  C2  UNK     1      27.802  -9.126  38.674  1.00  0.00    -0.003 A 
HETATM    9  C3  UNK     1      27.794  -7.861  36.646  1.00  0.00     0.248 A 
HETATM   10  C4  UNK     1      25.671  -9.006  37.298  1.00  0.00     0.080 A 
HETATM   11  C5  UNK     1      29.064  -9.185  38.074  1.00  0.00     0.045 A 
HETATM   12  C6  UNK     1      26.509  -6.965  38.565  1.00  0.00     0.100 A 
HETATM   13  C7  UNK     1      24.433  -8.532  37.520  1.00  0.00     0.105 A 
HETATM   14  C9  UNK     1      27.548  -9.794  39.861  1.00  0.00     0.011 A 
HETATM   15  C10 UNK     1      25.218  -6.593  38.720  1.00  0.00     0.160 A 
HETATM   16  C11 UNK     1      30.103  -9.905  38.636  1.00  0.00     0.030 A 
HETATM   17  C12 UNK     1      25.858 -10.263  36.513  1.00  0.00     0.299 A 
HETATM   18  C13 UNK     1      23.246  -9.225  37.024  1.00  0.00     0.033 A 
HETATM   19  C14 UNK     1      28.587 -10.527  40.440  1.00  0.00     0.001 A 
HETATM   20  C15 UNK     1      29.853 -10.581  39.833  1.00  0.00     0.002 A 
HETATM   21  C17 UNK     1      23.420 -10.402  36.305  1.00  0.00     0.092 A 
HETATM   22  C18 UNK     1      27.549  -6.130  39.092  1.00  0.00     0.101 C 
HETATM   23  C19 UNK     1      21.937  -8.771  37.233  1.00  0.00     0.017 A 
HETATM   24  C20 UNK     1      22.344 -11.129  35.796  1.00  0.00     0.038 A 
HETATM   25  C23 UNK     1      20.846  -9.488  36.730  1.00  0.00     0.001 A 
HETATM   26  C24 UNK     1      21.051 -10.665  36.012  1.00  0.00     0.003 A 
ENDROOT
BRANCH  15  27
HETATM   27  N2  UNK     1      24.794  -5.458  39.355  1.00  0.00    -0.379 N 
HETATM   28  H8  UNK     1      23.815  -5.206  39.376  1.00  0.00     0.158 HD
HETATM   29  H9  UNK     1      25.480  -4.868  39.808  1.00  0.00     0.158 HD
ENDBRANCH  15  27
BRANCH   5  30
HETATM   30  C8  UNK     1      30.196  -8.283  36.018  1.00  0.00     0.170 C 
BRANCH  30  31
HETATM   31  C16 UNK     1      30.797  -6.908  36.107  1.00  0.00    -0.040 A 
HETATM   32  C21 UNK     1      30.992  -6.324  37.353  1.00  0.00     0.010 A 
HETATM   33  C25 UNK     1      31.549  -5.048  37.435  1.00  0.00     0.024 A 
HETATM   34  C27 UNK     1      31.905  -4.365  36.272  1.00  0.00     0.034 A 
HETATM   35  C26 UNK     1      31.703  -4.959  35.026  1.00  0.00     0.024 A 
HETATM   36 Cl1  UNK     1      32.589  -2.790  36.374  1.00  0.00    -0.084 Cl
HETATM   37  C22 UNK     1      31.147  -6.235  34.943  1.00  0.00     0.010 A 
ENDBRANCH  30  31
ENDBRANCH   5  30
TORSDOF 3
ENDMDL
MODEL 10
REMARK VINA RESULT:      -9.1      3.585      6.273
REMARK  3 active torsions:
REMARK  status: ('A' for Active; 'I' for Inactive)
REMARK    1  A    between atoms: C8_16  and  N1_6 
REMARK    2  A    between atoms: C10_18  and  N2_7 
REMARK    3  A    between atoms: C16_24  and  C8_16 
ROOT
HETATM    1  O1  UNK     1      24.143  -7.323  38.254  1.00  0.00    -0.291 OA
HETATM    2  O2  UNK     1      27.392  -7.155  35.680  1.00  0.00    -0.271 OA
HETATM    3  O3  UNK     1      24.619 -10.866  36.095  1.00  0.00    -0.274 OA
HETATM    4  O4  UNK     1      26.876 -10.710  36.264  1.00  0.00    -0.259 OA
HETATM    5  N1  UNK     1      28.993  -8.431  36.856  1.00  0.00    -0.312 N 
HETATM    6  N3  UNK     1      28.387  -5.435  39.486  1.00  0.00    -0.191 NA
HETATM    7  C1  UNK     1      26.833  -8.233  37.838  1.00  0.00     0.147 A 
HETATM    8  C2  UNK     1      27.759  -9.104  38.662  1.00  0.00    -0.003 A 
HETATM    9  C3  UNK     1      27.735  -7.845  36.630  1.00  0.00     0.248 A 
HETATM   10  C4  UNK     1      25.611  -8.972  37.313  1.00  0.00     0.080 A 
HETATM   11  C5  UNK     1      29.012  -9.174  38.046  1.00  0.00     0.045 A 
HETATM   12  C6  UNK     1      26.481  -6.933  38.563  1.00  0.00     0.100 A 
HETATM   13  C7  UNK     1      24.380  -8.488  37.549  1.00  0.00     0.105 A 
HETATM   14  C9  UNK     1      27.515  -9.767  39.854  1.00  0.00     0.011 A 
HETATM   15  C10 UNK     1      25.195  -6.551  38.733  1.00  0.00     0.160 A 
HETATM   16  C11 UNK     1      30.053  -9.901  38.597  1.00  0.00     0.030 A 
HETATM   17  C12 UNK     1      25.778 -10.232  36.529  1.00  0.00     0.299 A 
HETATM   18  C13 UNK     1      23.181  -9.173  37.070  1.00  0.00     0.033 A 
HETATM   19  C14 UNK     1      28.556 -10.505  40.422  1.00  0.00     0.001 A 
HETATM   20  C15 UNK     1      29.813 -10.571  39.799  1.00  0.00     0.002 A 
HETATM   21  C17 UNK     1      23.337 -10.353  36.353  1.00  0.00     0.092 A 
HETATM   22  C18 UNK     1      27.534  -6.105  39.074  1.00  0.00     0.101 C 
HETATM   23  C19 UNK     1      21.878  -8.708  37.295  1.00  0.00     0.017 A 
HETATM   24  C20 UNK     1      22.249 -11.073  35.861  1.00  0.00     0.038 A 
HETATM   25  C23 UNK     1      20.776  -9.418  36.808  1.00  0.00     0.001 A 
HETATM   26  C24 UNK     1      20.962 -10.599  36.092  1.00  0.00     0.003 A 
ENDROOT
BRANCH  15  27
HETATM   27  N2  UNK     1      24.788  -5.411  39.370  1.00  0.00    -0.379 N 
HETATM   28  H8  UNK     1      23.806  -5.189  39.467  1.00  0.00     0.158 HD
HETATM   29  H9  UNK     1      25.489  -4.786  39.746  1.00  0.00     0.158 HD
ENDBRANCH  15  27
BRANCH   5  30
HETATM   30  C8  UNK     1      30.125  -8.288  35.972  1.00  0.00     0.170 C 
BRANCH  30  31
HETATM   31  C16 UNK     1      30.209  -9.405  34.969  1.00  0.00    -0.040 A 
HETATM   32  C21 UNK     1      31.162 -10.403  35.132  1.00  0.00     0.010 A 
HETATM   33  C25 UNK     1      31.240 -11.438  34.201  1.00  0.00     0.024 A 
HETATM   34  C27 UNK     1      30.366 -11.467  33.114  1.00  0.00     0.034 A 
HETATM   35  C26 UNK     1      29.414 -10.460  32.958  1.00  0.00     0.024 A 
HETATM   36 Cl1  UNK     1      30.464 -12.744  31.965  1.00  0.00    -0.084 Cl
HETATM   37  C22 UNK     1      29.335  -9.425  33.890  1.00  0.00     0.010 A 
ENDBRANCH  30  31
ENDBRANCH   5  30
TORSDOF 3
ENDMDL
