MODEL 1
REMARK VINA RESULT:      -8.7      0.000      0.000
REMARK  7 active torsions:
REMARK  status: ('A' for Active; 'I' for Inactive)
REMARK    1  A    between atoms: C4_12  and  O2_2 
REMARK    2  A    between atoms: C6_14  and  O3_3 
REMARK    3  A    between atoms: C10_18  and  O4_4 
REMARK    4  A    between atoms: C9_17  and  O5_5 
REMARK    5  A    between atoms: C15_23  and  O7_7 
REMARK    6  A    between atoms: C13_21  and  O8_8 
REMARK    7  A    between atoms: C3_11  and  C7_15 
ROOT
HETATM    1  O1  UNK     1      18.217   3.927  34.296  1.00  0.00    -0.306 OA
HETATM    2  O6  UNK     1      18.350   1.779  30.837  1.00  0.00    -0.284 OA
HETATM    3  C1  UNK     1      18.311   1.767  33.195  1.00  0.00     0.087 A 
HETATM    4  C2  UNK     1      18.267   2.558  34.340  1.00  0.00     0.096 A 
HETATM    5  C3  UNK     1      18.197   4.549  33.057  1.00  0.00     0.123 A 
HETATM    6  C4  UNK     1      18.244   3.902  31.878  1.00  0.00     0.154 A 
HETATM    7  C5  UNK     1      18.305   2.421  31.878  1.00  0.00     0.223 A 
HETATM    8  C6  UNK     1      18.363   0.375  33.300  1.00  0.00     0.121 A 
HETATM    9  C8  UNK     1      18.275   1.962  35.601  1.00  0.00     0.078 A 
HETATM   10  C9  UNK     1      18.370  -0.220  34.563  1.00  0.00     0.134 A 
HETATM   11  C10 UNK     1      18.326   0.573  35.712  1.00  0.00     0.106 A 
ENDROOT
BRANCH   5  12
HETATM   12  C7  UNK     1      18.143   6.019  33.152  1.00  0.00     0.004 A 
HETATM   13  C11 UNK     1      17.087   6.719  32.568  1.00  0.00     0.053 A 
HETATM   14  C13 UNK     1      17.037   8.110  32.657  1.00  0.00     0.099 A 
HETATM   15  C15 UNK     1      18.044   8.802  33.332  1.00  0.00     0.101 A 
HETATM   16  C14 UNK     1      19.099   8.103  33.917  1.00  0.00     0.040 A 
HETATM   17  C12 UNK     1      19.149   6.712  33.827  1.00  0.00     0.017 A 
BRANCH  14  18
HETATM   18  O8  UNK     1      16.001   8.782  32.084  1.00  0.00    -0.358 OA
HETATM   19  H15 UNK     1      16.150   9.736  32.198  1.00  0.00     0.217 HD
ENDBRANCH  14  18
BRANCH  15  20
HETATM   20  O7  UNK     1      18.005  10.160  33.428  1.00  0.00    -0.353 OA
HETATM   21  C19 UNK     1      19.033  10.786  34.192  1.00  0.00     0.210 C 
ENDBRANCH  15  20
ENDBRANCH   5  12
BRANCH   6  22
HETATM   22  O2  UNK     1      18.256   4.553  30.663  1.00  0.00    -0.350 OA
HETATM   23  C16 UNK     1      19.567   4.939  30.407  1.00  0.00     0.210 C 
ENDBRANCH   6  22
BRANCH   8  24
HETATM   24  O3  UNK     1      18.409  -0.433  32.204  1.00  0.00    -0.352 OA
HETATM   25  C17 UNK     1      19.658  -1.051  31.906  1.00  0.00     0.210 C 
ENDBRANCH   8  24
BRANCH  11  26
HETATM   26  O4  UNK     1      18.333  -0.001  36.948  1.00  0.00    -0.353 OA
HETATM   27  C18 UNK     1      17.588   0.657  37.970  1.00  0.00     0.210 C 
ENDBRANCH  11  26
BRANCH  10  28
HETATM   28  O5  UNK     1      18.422  -1.578  34.679  1.00  0.00    -0.356 OA
HETATM   29  H5  UNK     1      18.888  -1.939  33.906  1.00  0.00     0.218 HD
ENDBRANCH  10  28
TORSDOF 7
ENDMDL
MODEL 2
REMARK VINA RESULT:      -7.6      3.494      9.359
REMARK  7 active torsions:
REMARK  status: ('A' for Active; 'I' for Inactive)
REMARK    1  A    between atoms: C4_12  and  O2_2 
REMARK    2  A    between atoms: C6_14  and  O3_3 
REMARK    3  A    between atoms: C10_18  and  O4_4 
REMARK    4  A    between atoms: C9_17  and  O5_5 
REMARK    5  A    between atoms: C15_23  and  O7_7 
REMARK    6  A    between atoms: C13_21  and  O8_8 
REMARK    7  A    between atoms: C3_11  and  C7_15 
ROOT
HETATM    1  O1  UNK     1      17.903   9.552  33.405  1.00  0.00    -0.306 OA
HETATM    2  O6  UNK     1      14.199   9.814  35.080  1.00  0.00    -0.284 OA
HETATM    3  C1  UNK     1      16.252  10.870  34.597  1.00  0.00     0.087 A 
HETATM    4  C2  UNK     1      17.504  10.715  34.009  1.00  0.00     0.096 A 
HETATM    5  C3  UNK     1      17.016   8.488  33.367  1.00  0.00     0.123 A 
HETATM    6  C4  UNK     1      15.782   8.504  33.905  1.00  0.00     0.154 A 
HETATM    7  C5  UNK     1      15.311   9.740  34.573  1.00  0.00     0.223 A 
HETATM    8  C6  UNK     1      15.899  12.080  35.201  1.00  0.00     0.121 A 
HETATM    9  C8  UNK     1      18.416  11.772  34.021  1.00  0.00     0.078 A 
HETATM   10  C9  UNK     1      16.813  13.135  35.211  1.00  0.00     0.134 A 
HETATM   11  C10 UNK     1      18.069  12.981  34.622  1.00  0.00     0.106 A 
ENDROOT
BRANCH   5  12
HETATM   12  C7  UNK     1      17.569   7.301  32.691  1.00  0.00     0.004 A 
HETATM   13  C11 UNK     1      17.901   7.359  31.338  1.00  0.00     0.053 A 
HETATM   14  C13 UNK     1      18.424   6.235  30.698  1.00  0.00     0.099 A 
HETATM   15  C15 UNK     1      18.615   5.052  31.412  1.00  0.00     0.101 A 
HETATM   16  C14 UNK     1      18.284   4.994  32.766  1.00  0.00     0.040 A 
HETATM   17  C12 UNK     1      17.761   6.118  33.405  1.00  0.00     0.017 A 
BRANCH  14  18
HETATM   18  O8  UNK     1      18.746   6.305  29.376  1.00  0.00    -0.358 OA
HETATM   19  H15 UNK     1      19.298   5.536  29.151  1.00  0.00     0.217 HD
ENDBRANCH  14  18
BRANCH  15  20
HETATM   20  O7  UNK     1      19.127   3.949  30.800  1.00  0.00    -0.353 OA
HETATM   21  C19 UNK     1      18.246   2.845  30.611  1.00  0.00     0.210 C 
ENDBRANCH  15  20
ENDBRANCH   5  12
BRANCH   6  22
HETATM   22  O2  UNK     1      14.936   7.417  33.879  1.00  0.00    -0.350 OA
HETATM   23  C16 UNK     1      14.162   7.516  32.728  1.00  0.00     0.210 C 
ENDBRANCH   6  22
BRANCH   8  24
HETATM   24  O3  UNK     1      14.684  12.270  35.788  1.00  0.00    -0.352 OA
HETATM   25  C17 UNK     1      13.730  13.043  35.066  1.00  0.00     0.210 C 
ENDBRANCH   8  24
BRANCH  11  26
HETATM   26  O4  UNK     1      18.967  14.007  34.629  1.00  0.00    -0.353 OA
HETATM   27  C18 UNK     1      19.025  14.823  33.461  1.00  0.00     0.210 C 
ENDBRANCH  11  26
BRANCH  10  28
HETATM   28  O5  UNK     1      16.482  14.321  35.799  1.00  0.00    -0.356 OA
HETATM   29  H5  UNK     1      16.064  14.137  36.658  1.00  0.00     0.218 HD
ENDBRANCH  10  28
TORSDOF 7
ENDMDL
MODEL 3
REMARK VINA RESULT:      -7.6      3.075      8.530
REMARK  7 active torsions:
REMARK  status: ('A' for Active; 'I' for Inactive)
REMARK    1  A    between atoms: C4_12  and  O2_2 
REMARK    2  A    between atoms: C6_14  and  O3_3 
REMARK    3  A    between atoms: C10_18  and  O4_4 
REMARK    4  A    between atoms: C9_17  and  O5_5 
REMARK    5  A    between atoms: C15_23  and  O7_7 
REMARK    6  A    between atoms: C13_21  and  O8_8 
REMARK    7  A    between atoms: C3_11  and  C7_15 
ROOT
HETATM    1  O1  UNK     1      16.648   7.572  32.258  1.00  0.00    -0.306 OA
HETATM    2  O6  UNK     1      19.361   9.620  34.504  1.00  0.00    -0.284 OA
HETATM    3  C1  UNK     1      17.160   9.479  33.670  1.00  0.00     0.087 A 
HETATM    4  C2  UNK     1      16.282   8.734  32.886  1.00  0.00     0.096 A 
HETATM    5  C3  UNK     1      17.947   7.114  32.420  1.00  0.00     0.123 A 
HETATM    6  C4  UNK     1      18.893   7.742  33.141  1.00  0.00     0.154 A 
HETATM    7  C5  UNK     1      18.542   9.005  33.834  1.00  0.00     0.223 A 
HETATM    8  C6  UNK     1      16.730  10.657  34.286  1.00  0.00     0.121 A 
HETATM    9  C8  UNK     1      14.965   9.163  32.713  1.00  0.00     0.078 A 
HETATM   10  C9  UNK     1      15.413  11.084  34.111  1.00  0.00     0.134 A 
HETATM   11  C10 UNK     1      14.532  10.339  33.326  1.00  0.00     0.106 A 
ENDROOT
BRANCH   5  12
HETATM   12  C7  UNK     1      18.209   5.859  31.693  1.00  0.00     0.004 A 
HETATM   13  C11 UNK     1      17.865   4.634  32.266  1.00  0.00     0.053 A 
HETATM   14  C13 UNK     1      18.114   3.447  31.577  1.00  0.00     0.099 A 
HETATM   15  C15 UNK     1      18.706   3.484  30.315  1.00  0.00     0.101 A 
HETATM   16  C14 UNK     1      19.049   4.708  29.741  1.00  0.00     0.040 A 
HETATM   17  C12 UNK     1      18.800   5.896  30.430  1.00  0.00     0.017 A 
BRANCH  14  18
HETATM   18  O8  UNK     1      17.774   2.258  32.147  1.00  0.00    -0.358 OA
HETATM   19  H15 UNK     1      16.813   2.136  32.058  1.00  0.00     0.217 HD
ENDBRANCH  14  18
BRANCH  15  20
HETATM   20  O7  UNK     1      18.952   2.332  29.632  1.00  0.00    -0.353 OA
HETATM   21  C19 UNK     1      17.978   1.926  28.673  1.00  0.00     0.210 C 
ENDBRANCH  15  20
ENDBRANCH   5  12
BRANCH   6  22
HETATM   22  O2  UNK     1      20.185   7.276  33.256  1.00  0.00    -0.350 OA
HETATM   23  C16 UNK     1      20.190   6.294  34.240  1.00  0.00     0.210 C 
ENDBRANCH   6  22
BRANCH   8  24
HETATM   24  O3  UNK     1      17.560  11.413  35.059  1.00  0.00    -0.352 OA
HETATM   25  C17 UNK     1      18.082  12.604  34.475  1.00  0.00     0.210 C 
ENDBRANCH   8  24
BRANCH  11  26
HETATM   26  O4  UNK     1      13.245  10.749  33.150  1.00  0.00    -0.353 OA
HETATM   27  C18 UNK     1      13.036  11.884  32.314  1.00  0.00     0.210 C 
ENDBRANCH  11  26
BRANCH  10  28
HETATM   28  O5  UNK     1      14.982  12.234  34.706  1.00  0.00    -0.356 OA
HETATM   29  H5  UNK     1      15.735  12.845  34.784  1.00  0.00     0.218 HD
ENDBRANCH  10  28
TORSDOF 7
ENDMDL
MODEL 4
REMARK VINA RESULT:      -7.4      4.375     10.368
REMARK  7 active torsions:
REMARK  status: ('A' for Active; 'I' for Inactive)
REMARK    1  A    between atoms: C4_12  and  O2_2 
REMARK    2  A    between atoms: C6_14  and  O3_3 
REMARK    3  A    between atoms: C10_18  and  O4_4 
REMARK    4  A    between atoms: C9_17  and  O5_5 
REMARK    5  A    between atoms: C15_23  and  O7_7 
REMARK    6  A    between atoms: C13_21  and  O8_8 
REMARK    7  A    between atoms: C3_11  and  C7_15 
ROOT
HETATM    1  O1  UNK     1      20.161  -3.091  34.541  1.00  0.00    -0.306 OA
HETATM    2  O6  UNK     1      17.363  -0.357  35.678  1.00  0.00    -0.284 OA
HETATM    3  C1  UNK     1      18.871  -1.101  34.025  1.00  0.00     0.087 A 
HETATM    4  C2  UNK     1      19.821  -2.065  33.698  1.00  0.00     0.096 A 
HETATM    5  C3  UNK     1      19.522  -3.177  35.768  1.00  0.00     0.123 A 
HETATM    6  C4  UNK     1      18.595  -2.308  36.209  1.00  0.00     0.154 A 
HETATM    7  C5  UNK     1      18.200  -1.180  35.331  1.00  0.00     0.223 A 
HETATM    8  C6  UNK     1      18.566  -0.077  33.126  1.00  0.00     0.121 A 
HETATM    9  C8  UNK     1      20.474  -2.011  32.466  1.00  0.00     0.078 A 
HETATM   10  C9  UNK     1      19.220  -0.025  31.894  1.00  0.00     0.134 A 
HETATM   11  C10 UNK     1      20.172  -0.991  31.564  1.00  0.00     0.106 A 
ENDROOT
BRANCH   5  12
HETATM   12  C7  UNK     1      19.980  -4.322  36.576  1.00  0.00     0.004 A 
HETATM   13  C11 UNK     1      21.215  -4.271  37.224  1.00  0.00     0.053 A 
HETATM   14  C13 UNK     1      21.648  -5.355  37.987  1.00  0.00     0.099 A 
HETATM   15  C15 UNK     1      20.847  -6.491  38.103  1.00  0.00     0.101 A 
HETATM   16  C14 UNK     1      19.613  -6.543  37.456  1.00  0.00     0.040 A 
HETATM   17  C12 UNK     1      19.179  -5.459  36.693  1.00  0.00     0.017 A 
BRANCH  14  18
HETATM   18  O8  UNK     1      22.855  -5.292  38.615  1.00  0.00    -0.358 OA
HETATM   19  H15 UNK     1      22.962  -6.091  39.160  1.00  0.00     0.217 HD
ENDBRANCH  14  18
BRANCH  15  20
HETATM   20  O7  UNK     1      21.258  -7.555  38.848  1.00  0.00    -0.353 OA
HETATM   21  C19 UNK     1      20.244  -8.399  39.388  1.00  0.00     0.210 C 
ENDBRANCH  15  20
ENDBRANCH   5  12
BRANCH   6  22
HETATM   22  O2  UNK     1      18.002  -2.404  37.449  1.00  0.00    -0.350 OA
HETATM   23  C16 UNK     1      18.536  -1.399  38.248  1.00  0.00     0.210 C 
ENDBRANCH   6  22
BRANCH   8  24
HETATM   24  O3  UNK     1      17.643   0.886  33.410  1.00  0.00    -0.352 OA
HETATM   25  C17 UNK     1      18.139   2.153  33.833  1.00  0.00     0.210 C 
ENDBRANCH   8  24
BRANCH  11  26
HETATM   26  O4  UNK     1      20.815  -0.947  30.364  1.00  0.00    -0.353 OA
HETATM   27  C18 UNK     1      20.235  -1.685  29.291  1.00  0.00     0.210 C 
ENDBRANCH  11  26
BRANCH  10  28
HETATM   28  O5  UNK     1      18.931   0.971  31.007  1.00  0.00    -0.356 OA
HETATM   29  H5  UNK     1      18.510   0.578  30.224  1.00  0.00     0.218 HD
ENDBRANCH  10  28
TORSDOF 7
ENDMDL
MODEL 5
REMARK VINA RESULT:      -7.2     16.848     19.510
REMARK  7 active torsions:
REMARK  status: ('A' for Active; 'I' for Inactive)
REMARK    1  A    between atoms: C4_12  and  O2_2 
REMARK    2  A    between atoms: C6_14  and  O3_3 
REMARK    3  A    between atoms: C10_18  and  O4_4 
REMARK    4  A    between atoms: C9_17  and  O5_5 
REMARK    5  A    between atoms: C15_23  and  O7_7 
REMARK    6  A    between atoms: C13_21  and  O8_8 
REMARK    7  A    between atoms: C3_11  and  C7_15 
ROOT
HETATM    1  O1  UNK     1      18.139  -3.141  15.960  1.00  0.00    -0.306 OA
HETATM    2  O6  UNK     1      20.639  -4.219  12.929  1.00  0.00    -0.284 OA
HETATM    3  C1  UNK     1      18.861  -4.816  14.359  1.00  0.00     0.087 A 
HETATM    4  C2  UNK     1      18.039  -4.387  15.399  1.00  0.00     0.096 A 
HETATM    5  C3  UNK     1      19.092  -2.266  15.462  1.00  0.00     0.123 A 
HETATM    6  C4  UNK     1      19.952  -2.558  14.470  1.00  0.00     0.154 A 
HETATM    7  C5  UNK     1      19.883  -3.897  13.836  1.00  0.00     0.223 A 
HETATM    8  C6  UNK     1      18.715  -6.099  13.826  1.00  0.00     0.121 A 
HETATM    9  C8  UNK     1      17.063  -5.241  15.914  1.00  0.00     0.078 A 
HETATM   10  C9  UNK     1      17.737  -6.951  14.343  1.00  0.00     0.134 A 
HETATM   11  C10 UNK     1      16.913  -6.523  15.385  1.00  0.00     0.106 A 
ENDROOT
BRANCH   5  12
HETATM   12  C7  UNK     1      19.094  -0.964  16.154  1.00  0.00     0.004 A 
HETATM   13  C11 UNK     1      19.231   0.216  15.422  1.00  0.00     0.053 A 
HETATM   14  C13 UNK     1      19.234   1.447  16.076  1.00  0.00     0.099 A 
HETATM   15  C15 UNK     1      19.099   1.499  17.464  1.00  0.00     0.101 A 
HETATM   16  C14 UNK     1      18.961   0.321  18.196  1.00  0.00     0.040 A 
HETATM   17  C12 UNK     1      18.958  -0.911  17.541  1.00  0.00     0.017 A 
BRANCH  14  18
HETATM   18  O8  UNK     1      19.368   2.592  15.351  1.00  0.00    -0.358 OA
HETATM   19  H15 UNK     1      20.313   2.812  15.291  1.00  0.00     0.217 HD
ENDBRANCH  14  18
BRANCH  15  20
HETATM   20  O7  UNK     1      19.098   2.696  18.114  1.00  0.00    -0.353 OA
HETATM   21  C19 UNK     1      19.665   2.724  19.422  1.00  0.00     0.210 C 
ENDBRANCH  15  20
ENDBRANCH   5  12
BRANCH   6  22
HETATM   22  O2  UNK     1      20.910  -1.676  14.020  1.00  0.00    -0.350 OA
HETATM   23  C16 UNK     1      20.596  -1.351  12.705  1.00  0.00     0.210 C 
ENDBRANCH   6  22
BRANCH   8  24
HETATM   24  O3  UNK     1      19.500  -6.555  12.810  1.00  0.00    -0.352 OA
HETATM   25  C17 UNK     1      20.592  -7.399  13.164  1.00  0.00     0.210 C 
ENDBRANCH   8  24
BRANCH  11  26
HETATM   26  O4  UNK     1      15.957  -7.350  15.895  1.00  0.00    -0.353 OA
HETATM   27  C18 UNK     1      14.606  -6.902  15.817  1.00  0.00     0.210 C 
ENDBRANCH  11  26
BRANCH  10  28
HETATM   28  O5  UNK     1      17.586  -8.207  13.832  1.00  0.00    -0.356 OA
HETATM   29  H5  UNK     1      16.637  -8.375  13.696  1.00  0.00     0.218 HD
ENDBRANCH  10  28
TORSDOF 7
ENDMDL
MODEL 6
REMARK VINA RESULT:      -7.1      3.200      9.663
REMARK  7 active torsions:
REMARK  status: ('A' for Active; 'I' for Inactive)
REMARK    1  A    between atoms: C4_12  and  O2_2 
REMARK    2  A    between atoms: C6_14  and  O3_3 
REMARK    3  A    between atoms: C10_18  and  O4_4 
REMARK    4  A    between atoms: C9_17  and  O5_5 
REMARK    5  A    between atoms: C15_23  and  O7_7 
REMARK    6  A    between atoms: C13_21  and  O8_8 
REMARK    7  A    between atoms: C3_11  and  C7_15 
ROOT
HETATM    1  O1  UNK     1      17.862   9.872  33.584  1.00  0.00    -0.306 OA
HETATM    2  O6  UNK     1      14.188  10.319  35.287  1.00  0.00    -0.284 OA
HETATM    3  C1  UNK     1      16.240  11.308  34.677  1.00  0.00     0.087 A 
HETATM    4  C2  UNK     1      17.481  11.089  34.085  1.00  0.00     0.096 A 
HETATM    5  C3  UNK     1      16.966   8.817  33.659  1.00  0.00     0.123 A 
HETATM    6  C4  UNK     1      15.742   8.893  34.212  1.00  0.00     0.154 A 
HETATM    7  C5  UNK     1      15.290  10.189  34.772  1.00  0.00     0.223 A 
HETATM    8  C6  UNK     1      15.906  12.572  35.172  1.00  0.00     0.121 A 
HETATM    9  C8  UNK     1      18.400  12.135  33.985  1.00  0.00     0.078 A 
HETATM   10  C9  UNK     1      16.827  13.615  35.071  1.00  0.00     0.134 A 
HETATM   11  C10 UNK     1      18.072  13.397  34.479  1.00  0.00     0.106 A 
ENDROOT
BRANCH   5  12
HETATM   12  C7  UNK     1      17.500   7.568  33.086  1.00  0.00     0.004 A 
HETATM   13  C11 UNK     1      17.843   6.506  33.923  1.00  0.00     0.053 A 
HETATM   14  C13 UNK     1      18.349   5.324  33.380  1.00  0.00     0.099 A 
HETATM   15  C15 UNK     1      18.510   5.205  32.000  1.00  0.00     0.101 A 
HETATM   16  C14 UNK     1      18.166   6.265  31.162  1.00  0.00     0.040 A 
HETATM   17  C12 UNK     1      17.661   7.447  31.705  1.00  0.00     0.017 A 
BRANCH  14  18
HETATM   18  O8  UNK     1      18.680   4.295  34.207  1.00  0.00    -0.358 OA
HETATM   19  H15 UNK     1      18.691   4.624  35.122  1.00  0.00     0.217 HD
ENDBRANCH  14  18
BRANCH  15  20
HETATM   20  O7  UNK     1      19.001   4.055  31.458  1.00  0.00    -0.353 OA
HETATM   21  C19 UNK     1      18.051   3.115  30.963  1.00  0.00     0.210 C 
ENDBRANCH  15  20
ENDBRANCH   5  12
BRANCH   6  22
HETATM   22  O2  UNK     1      14.888   7.815  34.300  1.00  0.00    -0.350 OA
HETATM   23  C16 UNK     1      14.159   7.762  33.117  1.00  0.00     0.210 C 
ENDBRANCH   6  22
BRANCH   8  24
HETATM   24  O3  UNK     1      14.702  12.824  35.759  1.00  0.00    -0.352 OA
HETATM   25  C17 UNK     1      14.685  12.936  37.179  1.00  0.00     0.210 C 
ENDBRANCH   8  24
BRANCH  11  26
HETATM   26  O4  UNK     1      18.977  14.411  34.376  1.00  0.00    -0.353 OA
HETATM   27  C18 UNK     1      19.118  15.026  33.098  1.00  0.00     0.210 C 
ENDBRANCH  11  26
BRANCH  10  28
HETATM   28  O5  UNK     1      16.514  14.853  35.552  1.00  0.00    -0.356 OA
HETATM   29  H5  UNK     1      15.821  15.239  34.990  1.00  0.00     0.218 HD
ENDBRANCH  10  28
TORSDOF 7
ENDMDL
MODEL 7
REMARK VINA RESULT:      -7.1      1.965      8.075
REMARK  7 active torsions:
REMARK  status: ('A' for Active; 'I' for Inactive)
REMARK    1  A    between atoms: C4_12  and  O2_2 
REMARK    2  A    between atoms: C6_14  and  O3_3 
REMARK    3  A    between atoms: C10_18  and  O4_4 
REMARK    4  A    between atoms: C9_17  and  O5_5 
REMARK    5  A    between atoms: C15_23  and  O7_7 
REMARK    6  A    between atoms: C13_21  and  O8_8 
REMARK    7  A    between atoms: C3_11  and  C7_15 
ROOT
HETATM    1  O1  UNK     1      16.877   6.454  33.671  1.00  0.00    -0.306 OA
HETATM    2  O6  UNK     1      20.127   8.860  34.165  1.00  0.00    -0.284 OA
HETATM    3  C1  UNK     1      17.778   8.667  34.095  1.00  0.00     0.087 A 
HETATM    4  C2  UNK     1      16.710   7.792  33.914  1.00  0.00     0.096 A 
HETATM    5  C3  UNK     1      18.166   5.949  33.615  1.00  0.00     0.123 A 
HETATM    6  C4  UNK     1      19.282   6.686  33.762  1.00  0.00     0.154 A 
HETATM    7  C5  UNK     1      19.149   8.140  34.022  1.00  0.00     0.223 A 
HETATM    8  C6  UNK     1      17.547  10.023  34.339  1.00  0.00     0.121 A 
HETATM    9  C8  UNK     1      15.399   8.269  33.977  1.00  0.00     0.078 A 
HETATM   10  C9  UNK     1      16.235  10.497  34.401  1.00  0.00     0.134 A 
HETATM   11  C10 UNK     1      15.164   9.622  34.220  1.00  0.00     0.106 A 
ENDROOT
BRANCH   5  12
HETATM   12  C7  UNK     1      18.205   4.500  33.346  1.00  0.00     0.004 A 
HETATM   13  C11 UNK     1      18.143   4.030  32.034  1.00  0.00     0.053 A 
HETATM   14  C13 UNK     1      18.179   2.659  31.781  1.00  0.00     0.099 A 
HETATM   15  C15 UNK     1      18.277   1.757  32.840  1.00  0.00     0.101 A 
HETATM   16  C14 UNK     1      18.340   2.225  34.152  1.00  0.00     0.040 A 
HETATM   17  C12 UNK     1      18.304   3.597  34.406  1.00  0.00     0.017 A 
BRANCH  14  18
HETATM   18  O8  UNK     1      18.118   2.213  30.496  1.00  0.00    -0.358 OA
HETATM   19  H15 UNK     1      18.720   1.455  30.402  1.00  0.00     0.217 HD
ENDBRANCH  14  18
BRANCH  15  20
HETATM   20  O7  UNK     1      18.315   0.416  32.606  1.00  0.00    -0.353 OA
HETATM   21  C19 UNK     1      18.346  -0.441  33.744  1.00  0.00     0.210 C 
ENDBRANCH  15  20
ENDBRANCH   5  12
BRANCH   6  22
HETATM   22  O2  UNK     1      20.552   6.158  33.668  1.00  0.00    -0.350 OA
HETATM   23  C16 UNK     1      20.981   6.331  32.357  1.00  0.00     0.210 C 
ENDBRANCH   6  22
BRANCH   8  24
HETATM   24  O3  UNK     1      18.566  10.910  34.519  1.00  0.00    -0.352 OA
HETATM   25  C17 UNK     1      18.745  11.904  33.513  1.00  0.00     0.210 C 
ENDBRANCH   8  24
BRANCH  11  26
HETATM   26  O4  UNK     1      13.880  10.077  34.279  1.00  0.00    -0.353 OA
HETATM   27  C18 UNK     1      13.351  10.675  33.098  1.00  0.00     0.210 C 
ENDBRANCH  11  26
BRANCH  10  28
HETATM   28  O5  UNK     1      15.997  11.820  34.637  1.00  0.00    -0.356 OA
HETATM   29  H5  UNK     1      15.243  11.896  35.248  1.00  0.00     0.218 HD
ENDBRANCH  10  28
TORSDOF 7
ENDMDL
MODEL 8
REMARK VINA RESULT:      -7.1      2.898      8.779
REMARK  7 active torsions:
REMARK  status: ('A' for Active; 'I' for Inactive)
REMARK    1  A    between atoms: C4_12  and  O2_2 
REMARK    2  A    between atoms: C6_14  and  O3_3 
REMARK    3  A    between atoms: C10_18  and  O4_4 
REMARK    4  A    between atoms: C9_17  and  O5_5 
REMARK    5  A    between atoms: C15_23  and  O7_7 
REMARK    6  A    between atoms: C13_21  and  O8_8 
REMARK    7  A    between atoms: C3_11  and  C7_15 
ROOT
HETATM    1  O1  UNK     1      19.340  -0.903  33.404  1.00  0.00    -0.306 OA
HETATM    2  O6  UNK     1      17.768   2.601  34.762  1.00  0.00    -0.284 OA
HETATM    3  C1  UNK     1      18.539   1.337  32.927  1.00  0.00     0.087 A 
HETATM    4  C2  UNK     1      19.078   0.117  32.527  1.00  0.00     0.096 A 
HETATM    5  C3  UNK     1      19.043  -0.715  34.745  1.00  0.00     0.123 A 
HETATM    6  C4  UNK     1      18.529   0.416  35.261  1.00  0.00     0.154 A 
HETATM    7  C5  UNK     1      18.235   1.548  34.350  1.00  0.00     0.223 A 
HETATM    8  C6  UNK     1      18.295   2.342  31.988  1.00  0.00     0.121 A 
HETATM    9  C8  UNK     1      19.378  -0.107  31.183  1.00  0.00     0.078 A 
HETATM   10  C9  UNK     1      18.595   2.116  30.643  1.00  0.00     0.134 A 
HETATM   11  C10 UNK     1      19.136   0.893  30.242  1.00  0.00     0.106 A 
ENDROOT
BRANCH   5  12
HETATM   12  C7  UNK     1      19.373  -1.886  35.577  1.00  0.00     0.004 A 
HETATM   13  C11 UNK     1      18.412  -2.870  35.812  1.00  0.00     0.053 A 
HETATM   14  C13 UNK     1      18.724  -3.978  36.600  1.00  0.00     0.099 A 
HETATM   15  C15 UNK     1      19.998  -4.102  37.153  1.00  0.00     0.101 A 
HETATM   16  C14 UNK     1      20.960  -3.120  36.919  1.00  0.00     0.040 A 
HETATM   17  C12 UNK     1      20.648  -2.012  36.131  1.00  0.00     0.017 A 
BRANCH  14  18
HETATM   18  O8  UNK     1      17.777  -4.931  36.821  1.00  0.00    -0.358 OA
HETATM   19  H15 UNK     1      17.272  -5.062  36.000  1.00  0.00     0.217 HD
ENDBRANCH  14  18
BRANCH  15  20
HETATM   20  O7  UNK     1      20.316  -5.180  37.923  1.00  0.00    -0.353 OA
HETATM   21  C19 UNK     1      21.701  -5.477  38.083  1.00  0.00     0.210 C 
ENDBRANCH  15  20
ENDBRANCH   5  12
BRANCH   6  22
HETATM   22  O2  UNK     1      18.276   0.583  36.606  1.00  0.00    -0.350 OA
HETATM   23  C16 UNK     1      16.922   0.338  36.810  1.00  0.00     0.210 C 
ENDBRANCH   6  22
BRANCH   8  24
HETATM   24  O3  UNK     1      17.770   3.550  32.340  1.00  0.00    -0.352 OA
HETATM   25  C17 UNK     1      18.648   4.672  32.308  1.00  0.00     0.210 C 
ENDBRANCH   8  24
BRANCH  11  26
HETATM   26  O4  UNK     1      19.432   0.664  28.931  1.00  0.00    -0.353 OA
HETATM   27  C18 UNK     1      19.993  -0.605  28.606  1.00  0.00     0.210 C 
ENDBRANCH  11  26
BRANCH  10  28
HETATM   28  O5  UNK     1      18.363   3.090  29.717  1.00  0.00    -0.356 OA
HETATM   29  H5  UNK     1      17.969   3.858  30.166  1.00  0.00     0.218 HD
ENDBRANCH  10  28
TORSDOF 7
ENDMDL
MODEL 9
REMARK VINA RESULT:      -6.9     15.716     19.042
REMARK  7 active torsions:
REMARK  status: ('A' for Active; 'I' for Inactive)
REMARK    1  A    between atoms: C4_12  and  O2_2 
REMARK    2  A    between atoms: C6_14  and  O3_3 
REMARK    3  A    between atoms: C10_18  and  O4_4 
REMARK    4  A    between atoms: C9_17  and  O5_5 
REMARK    5  A    between atoms: C15_23  and  O7_7 
REMARK    6  A    between atoms: C13_21  and  O8_8 
REMARK    7  A    between atoms: C3_11  and  C7_15 
ROOT
HETATM    1  O1  UNK     1      32.198  -6.933  33.626  1.00  0.00    -0.306 OA
HETATM    2  O6  UNK     1      36.164  -7.741  34.090  1.00  0.00    -0.284 OA
HETATM    3  C1  UNK     1      34.323  -7.545  32.628  1.00  0.00     0.087 A 
HETATM    4  C2  UNK     1      32.963  -7.261  32.538  1.00  0.00     0.096 A 
HETATM    5  C3  UNK     1      32.808  -6.870  34.869  1.00  0.00     0.123 A 
HETATM    6  C4  UNK     1      34.109  -7.130  35.094  1.00  0.00     0.154 A 
HETATM    7  C5  UNK     1      34.974  -7.494  33.946  1.00  0.00     0.223 A 
HETATM    8  C6  UNK     1      35.054  -7.875  31.484  1.00  0.00     0.121 A 
HETATM    9  C8  UNK     1      32.322  -7.305  31.299  1.00  0.00     0.078 A 
HETATM   10  C9  UNK     1      34.410  -7.918  30.246  1.00  0.00     0.134 A 
HETATM   11  C10 UNK     1      33.047  -7.634  30.154  1.00  0.00     0.106 A 
ENDROOT
BRANCH   5  12
HETATM   12  C7  UNK     1      31.874  -6.509  35.951  1.00  0.00     0.004 A 
HETATM   13  C11 UNK     1      31.510  -5.176  36.143  1.00  0.00     0.053 A 
HETATM   14  C13 UNK     1      30.627  -4.835  37.168  1.00  0.00     0.099 A 
HETATM   15  C15 UNK     1      30.107  -5.827  38.000  1.00  0.00     0.101 A 
HETATM   16  C14 UNK     1      30.471  -7.159  37.808  1.00  0.00     0.040 A 
HETATM   17  C12 UNK     1      31.354  -7.501  36.783  1.00  0.00     0.017 A 
BRANCH  14  18
HETATM   18  O8  UNK     1      30.278  -3.530  37.345  1.00  0.00    -0.358 OA
HETATM   19  H15 UNK     1      30.484  -3.277  38.261  1.00  0.00     0.217 HD
ENDBRANCH  14  18
BRANCH  15  20
HETATM   20  O7  UNK     1      29.243  -5.506  39.002  1.00  0.00    -0.353 OA
HETATM   21  C19 UNK     1      28.263  -6.481  39.350  1.00  0.00     0.210 C 
ENDBRANCH  15  20
ENDBRANCH   5  12
BRANCH   6  22
HETATM   22  O2  UNK     1      34.678  -7.091  36.349  1.00  0.00    -0.350 OA
HETATM   23  C16 UNK     1      35.184  -5.810  36.538  1.00  0.00     0.210 C 
ENDBRANCH   6  22
BRANCH   8  24
HETATM   24  O3  UNK     1      36.385  -8.161  31.532  1.00  0.00    -0.352 OA
HETATM   25  C17 UNK     1      36.755  -9.536  31.481  1.00  0.00     0.210 C 
ENDBRANCH   8  24
BRANCH  11  26
HETATM   26  O4  UNK     1      32.412  -7.674  28.948  1.00  0.00    -0.353 OA
HETATM   27  C18 UNK     1      31.060  -7.222  28.913  1.00  0.00     0.210 C 
ENDBRANCH  11  26
BRANCH  10  28
HETATM   28  O5  UNK     1      35.112  -8.241  29.121  1.00  0.00    -0.356 OA
HETATM   29  H5  UNK     1      36.039  -8.399  29.368  1.00  0.00     0.218 HD
ENDBRANCH  10  28
TORSDOF 7
ENDMDL
MODEL 10
REMARK VINA RESULT:      -6.9     23.942     26.754
REMARK  7 active torsions:
REMARK  status: ('A' for Active; 'I' for Inactive)
REMARK    1  A    between atoms: C4_12  and  O2_2 
REMARK    2  A    between atoms: C6_14  and  O3_3 
REMARK    3  A    between atoms: C10_18  and  O4_4 
REMARK    4  A    between atoms: C9_17  and  O5_5 
REMARK    5  A    between atoms: C15_23  and  O7_7 
REMARK    6  A    between atoms: C13_21  and  O8_8 
REMARK    7  A    between atoms: C3_11  and  C7_15 
ROOT
HETATM    1  O1  UNK     1      14.597   9.868   7.868  1.00  0.00    -0.306 OA
HETATM    2  O6  UNK     1      17.600   8.880  10.437  1.00  0.00    -0.284 OA
HETATM    3  C1  UNK     1      16.741  10.413   8.866  1.00  0.00     0.087 A 
HETATM    4  C2  UNK     1      15.683  10.692   8.004  1.00  0.00     0.096 A 
HETATM    5  C3  UNK     1      14.545   8.712   8.632  1.00  0.00     0.123 A 
HETATM    6  C4  UNK     1      15.502   8.323   9.493  1.00  0.00     0.154 A 
HETATM    7  C5  UNK     1      16.698   9.182   9.669  1.00  0.00     0.223 A 
HETATM    8  C6  UNK     1      17.824  11.291   8.962  1.00  0.00     0.121 A 
HETATM    9  C8  UNK     1      15.701  11.853   7.230  1.00  0.00     0.078 A 
HETATM   10  C9  UNK     1      17.840  12.452   8.187  1.00  0.00     0.134 A 
HETATM   11  C10 UNK     1      16.780  12.732   7.322  1.00  0.00     0.106 A 
ENDROOT
BRANCH   5  12
HETATM   12  C7  UNK     1      13.327   7.917   8.390  1.00  0.00     0.004 A 
HETATM   13  C11 UNK     1      12.167   8.175   9.121  1.00  0.00     0.053 A 
HETATM   14  C13 UNK     1      11.016   7.422   8.892  1.00  0.00     0.099 A 
HETATM   15  C15 UNK     1      11.024   6.411   7.931  1.00  0.00     0.101 A 
HETATM   16  C14 UNK     1      12.183   6.153   7.199  1.00  0.00     0.040 A 
HETATM   17  C12 UNK     1      13.334   6.906   7.428  1.00  0.00     0.017 A 
BRANCH  14  18
HETATM   18  O8  UNK     1       9.889   7.684   9.611  1.00  0.00    -0.358 OA
HETATM   19  H15 UNK     1      10.092   8.377  10.262  1.00  0.00     0.217 HD
ENDBRANCH  14  18
BRANCH  15  20
HETATM   20  O7  UNK     1       9.905   5.670   7.696  1.00  0.00    -0.353 OA
HETATM   21  C19 UNK     1       9.096   6.051   6.586  1.00  0.00     0.210 C 
ENDBRANCH  15  20
ENDBRANCH   5  12
BRANCH   6  22
HETATM   22  O2  UNK     1      15.434   7.150  10.215  1.00  0.00    -0.350 OA
HETATM   23  C16 UNK     1      16.243   6.218   9.574  1.00  0.00     0.210 C 
ENDBRANCH   6  22
BRANCH   8  24
HETATM   24  O3  UNK     1      18.877  11.052   9.793  1.00  0.00    -0.352 OA
HETATM   25  C17 UNK     1      19.043  11.935  10.899  1.00  0.00     0.210 C 
ENDBRANCH   8  24
BRANCH  11  26
HETATM   26  O4  UNK     1      16.789  13.863   6.562  1.00  0.00    -0.353 OA
HETATM   27  C18 UNK     1      15.541  14.527   6.375  1.00  0.00     0.210 C 
ENDBRANCH  11  26
BRANCH  10  28
HETATM   28  O5  UNK     1      18.892  13.316   8.270  1.00  0.00    -0.356 OA
HETATM   29  H5  UNK     1      18.856  13.767   9.131  1.00  0.00     0.218 HD
ENDBRANCH  10  28
TORSDOF 7
ENDMDL
