MODEL 1
REMARK VINA RESULT:      -6.6      0.000      0.000
REMARK  2 active torsions:
REMARK  status: ('A' for Active; 'I' for Inactive)
REMARK    1  A    between atoms: C11_14  and  O2_2 
REMARK    2  A    between atoms: C5_8  and  O2_2 
ROOT
HETATM    1  O1  UNK     1      18.878  -8.297  37.325  1.00  0.00    -0.275 OA
HETATM    2  O3  UNK     1      17.511  -6.466  37.230  1.00  0.00    -0.260 OA
HETATM    3  C1  UNK     1      20.514  -8.658  35.546  1.00  0.00     0.007 A 
HETATM    4  C2  UNK     1      20.043  -7.428  34.895  1.00  0.00    -0.043 A 
HETATM    5  C3  UNK     1      19.916  -9.055  36.743  1.00  0.00     0.090 A 
HETATM    6  C4  UNK     1      21.539  -9.466  35.034  1.00  0.00     0.051 A 
HETATM    7  C5  UNK     1      21.940 -10.625  35.708  1.00  0.00     0.069 A 
HETATM    8  C6  UNK     1      20.304 -10.208  37.426  1.00  0.00     0.041 A 
HETATM    9  C7  UNK     1      21.323 -10.996  36.901  1.00  0.00     0.039 A 
HETATM   10  C8  UNK     1      19.054  -6.729  35.471  1.00  0.00     0.090 A 
HETATM   11  C9  UNK     1      20.665  -6.976  33.607  1.00  0.00     0.049 C 
HETATM   12  C10 UNK     1      18.412  -7.133  36.733  1.00  0.00     0.288 A 
ENDROOT
BRANCH   7  13
HETATM   13  O2  UNK     1      22.939 -11.396  35.192  1.00  0.00    -0.351 OA
BRANCH  13  14
HETATM   14  C11 UNK     1      24.140 -11.496  35.957  1.00  0.00     0.171 C 
HETATM   15  C12 UNK     1      24.618 -12.932  35.935  1.00  0.00     0.034 C 
ENDBRANCH  13  14
ENDBRANCH   7  13
TORSDOF 2
ENDMDL
MODEL 2
REMARK VINA RESULT:      -6.6      2.824      5.191
REMARK  2 active torsions:
REMARK  status: ('A' for Active; 'I' for Inactive)
REMARK    1  A    between atoms: C11_14  and  O2_2 
REMARK    2  A    between atoms: C5_8  and  O2_2 
ROOT
HETATM    1  O1  UNK     1      19.641  -9.807  39.013  1.00  0.00    -0.275 OA
HETATM    2  O3  UNK     1      19.269 -12.035  38.655  1.00  0.00    -0.260 OA
HETATM    3  C1  UNK     1      20.805  -8.502  37.308  1.00  0.00     0.007 A 
HETATM    4  C2  UNK     1      20.911  -9.715  36.486  1.00  0.00    -0.043 A 
HETATM    5  C3  UNK     1      20.172  -8.587  38.548  1.00  0.00     0.090 A 
HETATM    6  C4  UNK     1      21.306  -7.252  36.918  1.00  0.00     0.051 A 
HETATM    7  C5  UNK     1      21.169  -6.136  37.750  1.00  0.00     0.069 A 
HETATM    8  C6  UNK     1      20.029  -7.483  39.390  1.00  0.00     0.041 A 
HETATM    9  C7  UNK     1      20.532  -6.251  38.984  1.00  0.00     0.039 A 
HETATM   10  C8  UNK     1      20.398 -10.862  36.954  1.00  0.00     0.090 A 
HETATM   11  C9  UNK     1      21.587  -9.657  35.147  1.00  0.00     0.049 C 
HETATM   12  C10 UNK     1      19.727 -10.968  38.261  1.00  0.00     0.288 A 
ENDROOT
BRANCH   7  13
HETATM   13  O2  UNK     1      21.663  -4.930  37.352  1.00  0.00    -0.351 OA
BRANCH  13  14
HETATM   14  C11 UNK     1      20.762  -3.823  37.369  1.00  0.00     0.171 C 
HETATM   15  C12 UNK     1      19.859  -3.906  36.156  1.00  0.00     0.034 C 
ENDBRANCH  13  14
ENDBRANCH   7  13
TORSDOF 2
ENDMDL
MODEL 3
REMARK VINA RESULT:      -6.4     15.378     17.185
REMARK  2 active torsions:
REMARK  status: ('A' for Active; 'I' for Inactive)
REMARK    1  A    between atoms: C11_14  and  O2_2 
REMARK    2  A    between atoms: C5_8  and  O2_2 
ROOT
HETATM    1  O1  UNK     1      16.801   8.890  35.100  1.00  0.00    -0.275 OA
HETATM    2  O3  UNK     1      15.084  10.292  35.662  1.00  0.00    -0.260 OA
HETATM    3  C1  UNK     1      16.459   7.230  33.340  1.00  0.00     0.007 A 
HETATM    4  C2  UNK     1      15.084   7.721  33.177  1.00  0.00    -0.043 A 
HETATM    5  C3  UNK     1      17.276   7.831  34.299  1.00  0.00     0.090 A 
HETATM    6  C4  UNK     1      17.007   6.185  32.584  1.00  0.00     0.051 A 
HETATM    7  C5  UNK     1      18.327   5.768  32.790  1.00  0.00     0.069 A 
HETATM    8  C6  UNK     1      18.594   7.427  34.516  1.00  0.00     0.041 A 
HETATM    9  C7  UNK     1      19.118   6.388  33.755  1.00  0.00     0.039 A 
HETATM   10  C8  UNK     1      14.659   8.728  33.954  1.00  0.00     0.090 A 
HETATM   11  C9  UNK     1      14.180   7.095  32.156  1.00  0.00     0.049 C 
HETATM   12  C10 UNK     1      15.508   9.373  34.970  1.00  0.00     0.288 A 
ENDROOT
BRANCH   7  13
HETATM   13  O2  UNK     1      18.840   4.750  32.043  1.00  0.00    -0.351 OA
BRANCH  13  14
HETATM   14  C11 UNK     1      18.854   4.929  30.627  1.00  0.00     0.171 C 
HETATM   15  C12 UNK     1      20.008   5.835  30.257  1.00  0.00     0.034 C 
ENDBRANCH  13  14
ENDBRANCH   7  13
TORSDOF 2
ENDMDL
MODEL 4
REMARK VINA RESULT:      -6.4     13.533     16.037
REMARK  2 active torsions:
REMARK  status: ('A' for Active; 'I' for Inactive)
REMARK    1  A    between atoms: C11_14  and  O2_2 
REMARK    2  A    between atoms: C5_8  and  O2_2 
ROOT
HETATM    1  O1  UNK     1      20.388   7.705  33.236  1.00  0.00    -0.275 OA
HETATM    2  O3  UNK     1      20.518   9.442  34.718  1.00  0.00    -0.260 OA
HETATM    3  C1  UNK     1      18.379   6.316  33.197  1.00  0.00     0.007 A 
HETATM    4  C2  UNK     1      17.817   7.141  34.276  1.00  0.00    -0.043 A 
HETATM    5  C3  UNK     1      19.649   6.625  32.711  1.00  0.00     0.090 A 
HETATM    6  C4  UNK     1      17.710   5.227  32.622  1.00  0.00     0.051 A 
HETATM    7  C5  UNK     1      18.303   4.484  31.596  1.00  0.00     0.069 A 
HETATM    8  C6  UNK     1      20.255   5.893  31.688  1.00  0.00     0.041 A 
HETATM    9  C7  UNK     1      19.574   4.816  31.130  1.00  0.00     0.039 A 
HETATM   10  C8  UNK     1      18.542   8.161  34.756  1.00  0.00     0.090 A 
HETATM   11  C9  UNK     1      16.453   6.835  34.821  1.00  0.00     0.049 C 
HETATM   12  C10 UNK     1      19.885   8.501  34.253  1.00  0.00     0.288 A 
ENDROOT
BRANCH   7  13
HETATM   13  O2  UNK     1      17.635   3.430  31.050  1.00  0.00    -0.351 OA
BRANCH  13  14
HETATM   14  C11 UNK     1      18.425   2.400  30.456  1.00  0.00     0.171 C 
HETATM   15  C12 UNK     1      17.972   2.196  29.026  1.00  0.00     0.034 C 
ENDBRANCH  13  14
ENDBRANCH   7  13
TORSDOF 2
ENDMDL
MODEL 5
REMARK VINA RESULT:      -6.3      9.537     12.804
REMARK  2 active torsions:
REMARK  status: ('A' for Active; 'I' for Inactive)
REMARK    1  A    between atoms: C11_14  and  O2_2 
REMARK    2  A    between atoms: C5_8  and  O2_2 
ROOT
HETATM    1  O1  UNK     1      18.991  -0.104  32.932  1.00  0.00    -0.275 OA
HETATM    2  O3  UNK     1      19.634  -2.256  33.364  1.00  0.00    -0.260 OA
HETATM    3  C1  UNK     1      19.409   0.846  30.720  1.00  0.00     0.007 A 
HETATM    4  C2  UNK     1      20.018  -0.429  30.314  1.00  0.00    -0.043 A 
HETATM    5  C3  UNK     1      18.914   0.968  32.019  1.00  0.00     0.090 A 
HETATM    6  C4  UNK     1      19.294   1.957  29.874  1.00  0.00     0.051 A 
HETATM    7  C5  UNK     1      18.700   3.141  30.325  1.00  0.00     0.069 A 
HETATM    8  C6  UNK     1      18.320   2.142  32.484  1.00  0.00     0.041 A 
HETATM    9  C7  UNK     1      18.215   3.233  31.628  1.00  0.00     0.039 A 
HETATM   10  C8  UNK     1      20.079  -1.430  31.204  1.00  0.00     0.090 A 
HETATM   11  C9  UNK     1      20.561  -0.591  28.925  1.00  0.00     0.049 C 
HETATM   12  C10 UNK     1      19.561  -1.318  32.578  1.00  0.00     0.288 A 
ENDROOT
BRANCH   7  13
HETATM   13  O2  UNK     1      18.597   4.209  29.486  1.00  0.00    -0.351 OA
BRANCH  13  14
HETATM   14  C11 UNK     1      18.752   5.505  30.064  1.00  0.00     0.171 C 
HETATM   15  C12 UNK     1      20.228   5.833  30.149  1.00  0.00     0.034 C 
ENDBRANCH  13  14
ENDBRANCH   7  13
TORSDOF 2
ENDMDL
MODEL 6
REMARK VINA RESULT:      -6.3     11.832     14.140
REMARK  2 active torsions:
REMARK  status: ('A' for Active; 'I' for Inactive)
REMARK    1  A    between atoms: C11_14  and  O2_2 
REMARK    2  A    between atoms: C5_8  and  O2_2 
ROOT
HETATM    1  O1  UNK     1      18.113   5.440  34.101  1.00  0.00    -0.275 OA
HETATM    2  O3  UNK     1      18.082   7.709  34.384  1.00  0.00    -0.260 OA
HETATM    3  C1  UNK     1      18.484   4.520  31.869  1.00  0.00     0.007 A 
HETATM    4  C2  UNK     1      18.584   5.890  31.347  1.00  0.00    -0.043 A 
HETATM    5  C3  UNK     1      18.251   4.338  33.232  1.00  0.00     0.090 A 
HETATM    6  C4  UNK     1      18.611   3.373  31.073  1.00  0.00     0.051 A 
HETATM    7  C5  UNK     1      18.506   2.097  31.636  1.00  0.00     0.069 A 
HETATM    8  C6  UNK     1      18.144   3.071  33.809  1.00  0.00     0.041 A 
HETATM    9  C7  UNK     1      18.273   1.946  33.001  1.00  0.00     0.039 A 
HETATM   10  C8  UNK     1      18.447   6.918  32.197  1.00  0.00     0.090 A 
HETATM   11  C9  UNK     1      18.833   6.119  29.885  1.00  0.00     0.049 C 
HETATM   12  C10 UNK     1      18.201   6.744  33.638  1.00  0.00     0.288 A 
ENDROOT
BRANCH   7  13
HETATM   13  O2  UNK     1      18.633   0.995  30.844  1.00  0.00    -0.351 OA
BRANCH  13  14
HETATM   14  C11 UNK     1      19.042   1.211  29.494  1.00  0.00     0.171 C 
HETATM   15  C12 UNK     1      19.968   0.090  29.074  1.00  0.00     0.034 C 
ENDBRANCH  13  14
ENDBRANCH   7  13
TORSDOF 2
ENDMDL
MODEL 7
REMARK VINA RESULT:      -6.3     12.162     14.522
REMARK  2 active torsions:
REMARK  status: ('A' for Active; 'I' for Inactive)
REMARK    1  A    between atoms: C11_14  and  O2_2 
REMARK    2  A    between atoms: C5_8  and  O2_2 
ROOT
HETATM    1  O1  UNK     1      19.402   6.388  31.714  1.00  0.00    -0.275 OA
HETATM    2  O3  UNK     1      19.743   7.787  33.491  1.00  0.00    -0.260 OA
HETATM    3  C1  UNK     1      18.594   4.118  32.120  1.00  0.00     0.007 A 
HETATM    4  C2  UNK     1      18.581   4.406  33.561  1.00  0.00    -0.043 A 
HETATM    5  C3  UNK     1      19.006   5.120  31.240  1.00  0.00     0.090 A 
HETATM    6  C4  UNK     1      18.216   2.886  31.569  1.00  0.00     0.051 A 
HETATM    7  C5  UNK     1      18.251   2.680  30.185  1.00  0.00     0.069 A 
HETATM    8  C6  UNK     1      19.048   4.930  29.858  1.00  0.00     0.041 A 
HETATM    9  C7  UNK     1      18.667   3.700  29.332  1.00  0.00     0.039 A 
HETATM   10  C8  UNK     1      18.964   5.620  33.983  1.00  0.00     0.090 A 
HETATM   11  C9  UNK     1      18.144   3.350  34.532  1.00  0.00     0.049 C 
HETATM   12  C10 UNK     1      19.400   6.689  33.068  1.00  0.00     0.288 A 
ENDROOT
BRANCH   7  13
HETATM   13  O2  UNK     1      17.878   1.475  29.671  1.00  0.00    -0.351 OA
BRANCH  13  14
HETATM   14  C11 UNK     1      18.693   0.935  28.630  1.00  0.00     0.171 C 
HETATM   15  C12 UNK     1      19.881   0.232  29.250  1.00  0.00     0.034 C 
ENDBRANCH  13  14
ENDBRANCH   7  13
TORSDOF 2
ENDMDL
MODEL 8
REMARK VINA RESULT:      -6.2      6.595      9.433
REMARK  2 active torsions:
REMARK  status: ('A' for Active; 'I' for Inactive)
REMARK    1  A    between atoms: C11_14  and  O2_2 
REMARK    2  A    between atoms: C5_8  and  O2_2 
ROOT
HETATM    1  O1  UNK     1      20.537  -3.253  35.195  1.00  0.00    -0.275 OA
HETATM    2  O3  UNK     1      20.505  -3.996  37.358  1.00  0.00    -0.260 OA
HETATM    3  C1  UNK     1      19.021  -1.458  34.527  1.00  0.00     0.007 A 
HETATM    4  C2  UNK     1      18.501  -1.418  35.901  1.00  0.00    -0.043 A 
HETATM    5  C3  UNK     1      20.024  -2.376  34.217  1.00  0.00     0.090 A 
HETATM    6  C4  UNK     1      18.565  -0.622  33.498  1.00  0.00     0.051 A 
HETATM    7  C5  UNK     1      19.106  -0.712  32.211  1.00  0.00     0.069 A 
HETATM    8  C6  UNK     1      20.573  -2.479  32.938  1.00  0.00     0.041 A 
HETATM    9  C7  UNK     1      20.108  -1.640  31.931  1.00  0.00     0.039 A 
HETATM   10  C8  UNK     1      19.007  -2.264  36.810  1.00  0.00     0.090 A 
HETATM   11  C9  UNK     1      17.421  -0.442  36.265  1.00  0.00     0.049 C 
HETATM   12  C10 UNK     1      20.067  -3.238  36.499  1.00  0.00     0.288 A 
ENDROOT
BRANCH   7  13
HETATM   13  O2  UNK     1      18.649   0.110  31.225  1.00  0.00    -0.351 OA
BRANCH  13  14
HETATM   14  C11 UNK     1      19.595   0.534  30.245  1.00  0.00     0.171 C 
HETATM   15  C12 UNK     1      18.851   0.997  29.011  1.00  0.00     0.034 C 
ENDBRANCH  13  14
ENDBRANCH   7  13
TORSDOF 2
ENDMDL
MODEL 9
REMARK VINA RESULT:      -6.2     12.373     15.579
REMARK  2 active torsions:
REMARK  status: ('A' for Active; 'I' for Inactive)
REMARK    1  A    between atoms: C11_14  and  O2_2 
REMARK    2  A    between atoms: C5_8  and  O2_2 
ROOT
HETATM    1  O1  UNK     1      18.860   3.661  29.843  1.00  0.00    -0.275 OA
HETATM    2  O3  UNK     1      19.031   1.526  29.040  1.00  0.00    -0.260 OA
HETATM    3  C1  UNK     1      18.377   4.010  32.212  1.00  0.00     0.007 A 
HETATM    4  C2  UNK     1      18.346   2.553  32.396  1.00  0.00    -0.043 A 
HETATM    5  C3  UNK     1      18.633   4.519  30.939  1.00  0.00     0.090 A 
HETATM    6  C4  UNK     1      18.163   4.930  33.248  1.00  0.00     0.051 A 
HETATM    7  C5  UNK     1      18.209   6.306  33.003  1.00  0.00     0.069 A 
HETATM    8  C6  UNK     1      18.681   5.889  30.678  1.00  0.00     0.041 A 
HETATM    9  C7  UNK     1      18.467   6.785  31.720  1.00  0.00     0.039 A 
HETATM   10  C8  UNK     1      18.564   1.761  31.336  1.00  0.00     0.090 A 
HETATM   11  C9  UNK     1      18.072   1.974  33.753  1.00  0.00     0.049 C 
HETATM   12  C10 UNK     1      18.836   2.282  29.986  1.00  0.00     0.288 A 
ENDROOT
BRANCH   7  13
HETATM   13  O2  UNK     1      17.998   7.183  34.025  1.00  0.00    -0.351 OA
BRANCH  13  14
HETATM   14  C11 UNK     1      18.417   8.532  33.817  1.00  0.00     0.171 C 
HETATM   15  C12 UNK     1      19.742   8.749  34.515  1.00  0.00     0.034 C 
ENDBRANCH  13  14
ENDBRANCH   7  13
TORSDOF 2
ENDMDL
MODEL 10
REMARK VINA RESULT:      -6.2      8.870     10.354
REMARK  2 active torsions:
REMARK  status: ('A' for Active; 'I' for Inactive)
REMARK    1  A    between atoms: C11_14  and  O2_2 
REMARK    2  A    between atoms: C5_8  and  O2_2 
ROOT
HETATM    1  O1  UNK     1      28.207  -4.834  38.707  1.00  0.00    -0.275 OA
HETATM    2  O3  UNK     1      25.932  -5.008  38.860  1.00  0.00    -0.260 OA
HETATM    3  C1  UNK     1      29.544  -6.859  38.427  1.00  0.00     0.007 A 
HETATM    4  C2  UNK     1      28.305  -7.650  38.446  1.00  0.00    -0.043 A 
HETATM    5  C3  UNK     1      29.455  -5.473  38.558  1.00  0.00     0.090 A 
HETATM    6  C4  UNK     1      30.821  -7.417  38.282  1.00  0.00     0.051 A 
HETATM    7  C5  UNK     1      31.960  -6.604  38.270  1.00  0.00     0.069 A 
HETATM    8  C6  UNK     1      30.581  -4.649  38.549  1.00  0.00     0.041 A 
HETATM    9  C7  UNK     1      31.840  -5.222  38.404  1.00  0.00     0.039 A 
HETATM   10  C8  UNK     1      27.133  -7.015  38.591  1.00  0.00     0.090 A 
HETATM   11  C9  UNK     1      28.367  -9.143  38.308  1.00  0.00     0.049 C 
HETATM   12  C10 UNK     1      27.022  -5.554  38.730  1.00  0.00     0.288 A 
ENDROOT
BRANCH   7  13
HETATM   13  O2  UNK     1      33.192  -7.167  38.128  1.00  0.00    -0.351 OA
BRANCH  13  14
HETATM   14  C11 UNK     1      34.236  -6.327  37.636  1.00  0.00     0.171 C 
HETATM   15  C12 UNK     1      34.570  -6.737  36.218  1.00  0.00     0.034 C 
ENDBRANCH  13  14
ENDBRANCH   7  13
TORSDOF 2
ENDMDL
