MODEL 1
REMARK VINA RESULT:     -10.0      0.000      0.000
REMARK  3 active torsions:
REMARK  status: ('A' for Active; 'I' for Inactive)
REMARK       I    between atoms: C11_19  and  N1_7 
REMARK    1  A    between atoms: C9_17  and  N1_7 
REMARK       I    between atoms: C10_18  and  N2_8 
REMARK    2  A    between atoms: C10_18  and  C8_16 
REMARK    3  A    between atoms: C11_19  and  C12_20 
ROOT
HETATM    1  O3  UNK     1      17.843   3.359  33.095  1.00  0.00    -0.267 OA
HETATM    2  N1  UNK     1      18.240   4.911  31.354  1.00  0.00    -0.316 N 
HETATM    3  C11 UNK     1      18.189   3.647  31.957  1.00  0.00     0.262 C 
HETATM    4  H11 UNK     1      18.536   4.979  30.385  1.00  0.00     0.169 HD
ENDROOT
BRANCH   2   5
HETATM    5  C9  UNK     1      17.903   6.105  31.932  1.00  0.00     0.093 A 
HETATM    6  C8  UNK     1      18.542   6.868  32.886  1.00  0.00     0.073 A 
HETATM    7  C5  UNK     1      17.821   8.061  33.194  1.00  0.00    -0.026 A 
HETATM    8  C4  UNK     1      18.212   9.101  34.197  1.00  0.00     0.041 C 
HETATM    9  C6  UNK     1      16.655   8.149  32.457  1.00  0.00    -0.008 A 
HETATM   10  C2  UNK     1      17.409  10.398  34.016  1.00  0.00     0.009 C 
HETATM   11  C1  UNK     1      15.902  10.155  33.772  1.00  0.00    -0.014 C 
HETATM   12  C3  UNK     1      15.679   9.283  32.515  1.00  0.00     0.051 C 
HETATM   13  C7  UNK     1      15.219   9.550  35.002  1.00  0.00     0.010 C 
HETATM   14  S1  UNK     1      16.438   6.824  31.410  1.00  0.00    -0.075 SA
BRANCH   6  15
HETATM   15  C10 UNK     1      19.796   6.473  33.478  1.00  0.00     0.252 C 
HETATM   16  O1  UNK     1      20.896   6.908  33.093  1.00  0.00    -0.268 OA
HETATM   17  N2  UNK     1      19.747   5.579  34.545  1.00  0.00    -0.366 N 
HETATM   18  H12 UNK     1      18.871   5.207  34.898  1.00  0.00     0.159 HD
HETATM   19  H13 UNK     1      20.597   5.271  35.006  1.00  0.00     0.159 HD
ENDBRANCH   6  15
ENDBRANCH   2   5
BRANCH   3  20
HETATM   20  C12 UNK     1      18.625   2.569  31.044  1.00  0.00     0.108 A 
HETATM   21  C13 UNK     1      19.074   1.449  31.622  1.00  0.00     0.037 A 
HETATM   22  C14 UNK     1      19.524   0.332  30.807  1.00  0.00     0.001 A 
HETATM   23  C16 UNK     1      19.479   0.449  29.422  1.00  0.00     0.089 A 
HETATM   24  C17 UNK     1      20.001  -0.855  31.368  1.00  0.00     0.038 A 
HETATM   25  O2  UNK     1      19.006   1.630  28.818  1.00  0.00    -0.274 OA
HETATM   26  C18 UNK     1      19.896  -0.584  28.584  1.00  0.00     0.040 A 
HETATM   27  C15 UNK     1      18.568   2.715  29.571  1.00  0.00     0.304 A 
HETATM   28  O4  UNK     1      18.157   3.740  29.037  1.00  0.00    -0.259 OA
HETATM   29  C20 UNK     1      20.370  -1.765  29.151  1.00  0.00     0.026 A 
HETATM   30  C19 UNK     1      20.422  -1.900  30.541  1.00  0.00     0.035 A 
HETATM   31 Cl1  UNK     1      21.008  -3.362  31.238  1.00  0.00    -0.084 Cl
ENDBRANCH   3  20
TORSDOF 3
ENDMDL
MODEL 2
REMARK VINA RESULT:      -9.4     15.479     20.403
REMARK  3 active torsions:
REMARK  status: ('A' for Active; 'I' for Inactive)
REMARK       I    between atoms: C11_19  and  N1_7 
REMARK    1  A    between atoms: C9_17  and  N1_7 
REMARK       I    between atoms: C10_18  and  N2_8 
REMARK    2  A    between atoms: C10_18  and  C8_16 
REMARK    3  A    between atoms: C11_19  and  C12_20 
ROOT
HETATM    1  O3  UNK     1      18.082  -3.537  15.649  1.00  0.00    -0.267 OA
HETATM    2  N1  UNK     1      19.816  -3.051  14.116  1.00  0.00    -0.316 N 
HETATM    3  C11 UNK     1      18.899  -2.781  15.140  1.00  0.00     0.262 C 
HETATM    4  H11 UNK     1      20.445  -2.312  13.814  1.00  0.00     0.169 HD
ENDROOT
BRANCH   2   5
HETATM    5  C9  UNK     1      19.987  -4.244  13.466  1.00  0.00     0.093 A 
HETATM    6  C8  UNK     1      20.487  -5.453  13.898  1.00  0.00     0.073 A 
HETATM    7  C5  UNK     1      20.478  -6.440  12.866  1.00  0.00    -0.026 A 
HETATM    8  C4  UNK     1      20.969  -7.849  12.981  1.00  0.00     0.041 C 
HETATM    9  C6  UNK     1      19.973  -5.929  11.686  1.00  0.00    -0.008 A 
HETATM   10  C2  UNK     1      20.488  -8.718  11.809  1.00  0.00     0.009 C 
HETATM   11  C1  UNK     1      20.611  -8.016  10.438  1.00  0.00    -0.014 C 
HETATM   12  C3  UNK     1      19.798  -6.701  10.414  1.00  0.00     0.051 C 
HETATM   13  C7  UNK     1      22.074  -7.777  10.052  1.00  0.00     0.010 C 
HETATM   14  S1  UNK     1      19.510  -4.296  11.821  1.00  0.00    -0.075 SA
BRANCH   6  15
HETATM   15  C10 UNK     1      20.952  -5.659  15.247  1.00  0.00     0.252 C 
HETATM   16  O1  UNK     1      22.143  -5.527  15.584  1.00  0.00    -0.268 OA
HETATM   17  N2  UNK     1      20.002  -6.000  16.207  1.00  0.00    -0.366 N 
HETATM   18  H12 UNK     1      19.019  -6.109  15.979  1.00  0.00     0.159 HD
HETATM   19  H13 UNK     1      20.269  -6.151  17.174  1.00  0.00     0.159 HD
ENDBRANCH   6  15
ENDBRANCH   2   5
BRANCH   3  20
HETATM   20  C12 UNK     1      18.982  -1.384  15.617  1.00  0.00     0.108 A 
HETATM   21  C13 UNK     1      18.878  -1.204  16.939  1.00  0.00     0.037 A 
HETATM   22  C14 UNK     1      18.949   0.134  17.505  1.00  0.00     0.001 A 
HETATM   23  C16 UNK     1      19.126   1.217  16.650  1.00  0.00     0.089 A 
HETATM   24  C17 UNK     1      18.846   0.369  18.878  1.00  0.00     0.038 A 
HETATM   25  O2  UNK     1      19.235   1.022  15.260  1.00  0.00    -0.274 OA
HETATM   26  C18 UNK     1      19.202   2.524  17.128  1.00  0.00     0.040 A 
HETATM   27  C15 UNK     1      19.171  -0.246  14.689  1.00  0.00     0.304 A 
HETATM   28  O4  UNK     1      19.266  -0.407  13.477  1.00  0.00    -0.259 OA
HETATM   29  C20 UNK     1      19.098   2.750  18.499  1.00  0.00     0.026 A 
HETATM   30  C19 UNK     1      18.920   1.674  19.372  1.00  0.00     0.035 A 
HETATM   31 Cl1  UNK     1      18.792   1.958  21.066  1.00  0.00    -0.084 Cl
ENDBRANCH   3  20
TORSDOF 3
ENDMDL
MODEL 3
REMARK VINA RESULT:      -9.3      8.461     13.280
REMARK  3 active torsions:
REMARK  status: ('A' for Active; 'I' for Inactive)
REMARK       I    between atoms: C11_19  and  N1_7 
REMARK    1  A    between atoms: C9_17  and  N1_7 
REMARK       I    between atoms: C10_18  and  N2_8 
REMARK    2  A    between atoms: C10_18  and  C8_16 
REMARK    3  A    between atoms: C11_19  and  C12_20 
ROOT
HETATM    1  O3  UNK     1      21.121  -4.111  37.014  1.00  0.00    -0.267 OA
HETATM    2  N1  UNK     1      19.813  -5.225  35.388  1.00  0.00    -0.316 N 
HETATM    3  C11 UNK     1      20.317  -4.123  36.091  1.00  0.00     0.262 C 
HETATM    4  H11 UNK     1      19.158  -5.062  34.628  1.00  0.00     0.169 HD
ENDROOT
BRANCH   2   5
HETATM    5  C9  UNK     1      20.128  -6.541  35.595  1.00  0.00     0.093 A 
HETATM    6  C8  UNK     1      19.922  -7.366  36.680  1.00  0.00     0.073 A 
HETATM    7  C5  UNK     1      20.417  -8.686  36.454  1.00  0.00    -0.026 A 
HETATM    8  C4  UNK     1      20.380  -9.826  37.424  1.00  0.00     0.041 C 
HETATM    9  C6  UNK     1      20.987  -8.802  35.201  1.00  0.00    -0.008 A 
HETATM   10  C2  UNK     1      20.670 -11.169  36.737  1.00  0.00     0.009 C 
HETATM   11  C1  UNK     1      21.848 -11.102  35.738  1.00  0.00    -0.014 C 
HETATM   12  C3  UNK     1      21.578 -10.056  34.632  1.00  0.00     0.051 C 
HETATM   13  C7  UNK     1      23.179 -10.837  36.448  1.00  0.00     0.010 C 
HETATM   14  S1  UNK     1      20.918  -7.353  34.311  1.00  0.00    -0.075 SA
BRANCH   6  15
HETATM   15  C10 UNK     1      19.272  -6.912  37.884  1.00  0.00     0.252 C 
HETATM   16  O1  UNK     1      18.047  -7.015  38.076  1.00  0.00    -0.268 OA
HETATM   17  N2  UNK     1      20.077  -6.354  38.875  1.00  0.00    -0.366 N 
HETATM   18  H12 UNK     1      21.081  -6.259  38.765  1.00  0.00     0.159 HD
HETATM   19  H13 UNK     1      19.676  -6.024  39.746  1.00  0.00     0.159 HD
ENDBRANCH   6  15
ENDBRANCH   2   5
BRANCH   3  20
HETATM   20  C12 UNK     1      19.762  -2.842  35.605  1.00  0.00     0.108 A 
HETATM   21  C13 UNK     1      18.978  -2.175  36.460  1.00  0.00     0.037 A 
HETATM   22  C14 UNK     1      18.386  -0.904  36.073  1.00  0.00     0.001 A 
HETATM   23  C16 UNK     1      18.650  -0.397  34.805  1.00  0.00     0.089 A 
HETATM   24  C17 UNK     1      17.562  -0.174  36.933  1.00  0.00     0.038 A 
HETATM   25  O2  UNK     1      19.475  -1.103  33.910  1.00  0.00    -0.274 OA
HETATM   26  C18 UNK     1      18.113   0.814  34.373  1.00  0.00     0.040 A 
HETATM   27  C15 UNK     1      20.056  -2.321  34.251  1.00  0.00     0.304 A 
HETATM   28  O4  UNK     1      20.774  -2.930  33.465  1.00  0.00    -0.259 OA
HETATM   29  C20 UNK     1      17.292   1.537  35.236  1.00  0.00     0.026 A 
HETATM   30  C19 UNK     1      17.017   1.043  36.514  1.00  0.00     0.035 A 
HETATM   31 Cl1  UNK     1      16.001   1.940  37.578  1.00  0.00    -0.084 Cl
ENDBRANCH   3  20
TORSDOF 3
ENDMDL
MODEL 4
REMARK VINA RESULT:      -9.0      5.833      8.587
REMARK  3 active torsions:
REMARK  status: ('A' for Active; 'I' for Inactive)
REMARK       I    between atoms: C11_19  and  N1_7 
REMARK    1  A    between atoms: C9_17  and  N1_7 
REMARK       I    between atoms: C10_18  and  N2_8 
REMARK    2  A    between atoms: C10_18  and  C8_16 
REMARK    3  A    between atoms: C11_19  and  C12_20 
ROOT
HETATM    1  O3  UNK     1      21.523  -2.135  34.471  1.00  0.00    -0.267 OA
HETATM    2  N1  UNK     1      19.229  -2.096  33.898  1.00  0.00    -0.316 N 
HETATM    3  C11 UNK     1      20.372  -2.536  34.578  1.00  0.00     0.262 C 
HETATM    4  H11 UNK     1      18.333  -2.525  34.116  1.00  0.00     0.169 HD
ENDROOT
BRANCH   2   5
HETATM    5  C9  UNK     1      19.169  -1.104  32.956  1.00  0.00     0.093 A 
HETATM    6  C8  UNK     1      18.651   0.172  33.008  1.00  0.00     0.073 A 
HETATM    7  C5  UNK     1      18.812   0.870  31.774  1.00  0.00    -0.026 A 
HETATM    8  C4  UNK     1      18.347   2.261  31.473  1.00  0.00     0.041 C 
HETATM    9  C6  UNK     1      19.446   0.085  30.830  1.00  0.00    -0.008 A 
HETATM   10  C2  UNK     1      18.991   2.813  30.192  1.00  0.00     0.009 C 
HETATM   11  C1  UNK     1      19.020   1.790  29.033  1.00  0.00    -0.014 C 
HETATM   12  C3  UNK     1      19.795   0.516  29.439  1.00  0.00     0.051 C 
HETATM   13  C7  UNK     1      17.609   1.455  28.538  1.00  0.00     0.010 C 
HETATM   14  S1  UNK     1      19.846  -1.460  31.423  1.00  0.00    -0.075 SA
BRANCH   6  15
HETATM   15  C10 UNK     1      18.029   0.705  34.195  1.00  0.00     0.252 C 
HETATM   16  O1  UNK     1      16.801   0.872  34.303  1.00  0.00    -0.268 OA
HETATM   17  N2  UNK     1      18.861   1.021  35.267  1.00  0.00    -0.366 N 
HETATM   18  H12 UNK     1      19.867   0.893  35.226  1.00  0.00     0.159 HD
HETATM   19  H13 UNK     1      18.479   1.394  36.130  1.00  0.00     0.159 HD
ENDBRANCH   6  15
ENDBRANCH   2   5
BRANCH   3  20
HETATM   20  C12 UNK     1      20.076  -3.628  35.530  1.00  0.00     0.108 A 
HETATM   21  C13 UNK     1      20.402  -4.863  35.133  1.00  0.00     0.037 A 
HETATM   22  C14 UNK     1      20.151  -6.003  36.000  1.00  0.00     0.001 A 
HETATM   23  C16 UNK     1      19.569  -5.786  37.245  1.00  0.00     0.089 A 
HETATM   24  C17 UNK     1      20.475  -7.309  35.627  1.00  0.00     0.038 A 
HETATM   25  O2  UNK     1      19.227  -4.484  37.657  1.00  0.00    -0.274 OA
HETATM   26  C18 UNK     1      19.301  -6.834  38.123  1.00  0.00     0.040 A 
HETATM   27  C15 UNK     1      19.455  -3.373  36.850  1.00  0.00     0.304 A 
HETATM   28  O4  UNK     1      19.155  -2.242  37.217  1.00  0.00    -0.259 OA
HETATM   29  C20 UNK     1      19.628  -8.134  37.743  1.00  0.00     0.026 A 
HETATM   30  C19 UNK     1      20.214  -8.371  36.496  1.00  0.00     0.035 A 
HETATM   31 Cl1  UNK     1      20.616  -9.980  36.031  1.00  0.00    -0.084 Cl
ENDBRANCH   3  20
TORSDOF 3
ENDMDL
MODEL 5
REMARK VINA RESULT:      -9.0     14.073     17.100
REMARK  3 active torsions:
REMARK  status: ('A' for Active; 'I' for Inactive)
REMARK       I    between atoms: C11_19  and  N1_7 
REMARK    1  A    between atoms: C9_17  and  N1_7 
REMARK       I    between atoms: C10_18  and  N2_8 
REMARK    2  A    between atoms: C10_18  and  C8_16 
REMARK    3  A    between atoms: C11_19  and  C12_20 
ROOT
HETATM    1  O3  UNK     1      26.634  -8.827  39.440  1.00  0.00    -0.267 OA
HETATM    2  N1  UNK     1      27.167  -7.058  37.962  1.00  0.00    -0.316 N 
HETATM    3  C11 UNK     1      26.336  -7.849  38.766  1.00  0.00     0.262 C 
HETATM    4  H11 UNK     1      26.763  -6.261  37.476  1.00  0.00     0.169 HD
ENDROOT
BRANCH   2   5
HETATM    5  C9  UNK     1      28.511  -7.223  37.765  1.00  0.00     0.093 A 
HETATM    6  C8  UNK     1      29.569  -6.354  37.926  1.00  0.00     0.073 A 
HETATM    7  C5  UNK     1      30.820  -6.961  37.602  1.00  0.00    -0.026 A 
HETATM    8  C4  UNK     1      32.163  -6.303  37.642  1.00  0.00     0.041 C 
HETATM    9  C6  UNK     1      30.653  -8.272  37.200  1.00  0.00    -0.008 A 
HETATM   10  C2  UNK     1      33.304  -7.330  37.578  1.00  0.00     0.009 C 
HETATM   11  C1  UNK     1      33.069  -8.438  36.526  1.00  0.00    -0.014 C 
HETATM   12  C3  UNK     1      31.759  -9.207  36.814  1.00  0.00     0.051 C 
HETATM   13  C7  UNK     1      33.089  -7.879  35.100  1.00  0.00     0.010 C 
HETATM   14  S1  UNK     1      29.023  -8.764  37.221  1.00  0.00    -0.075 SA
BRANCH   6  15
HETATM   15  C10 UNK     1      29.392  -4.997  38.378  1.00  0.00     0.252 C 
HETATM   16  O1  UNK     1      28.828  -4.704  39.449  1.00  0.00    -0.268 OA
HETATM   17  N2  UNK     1      29.903  -3.981  37.573  1.00  0.00    -0.366 N 
HETATM   18  H12 UNK     1      30.379  -4.174  36.697  1.00  0.00     0.159 HD
HETATM   19  H13 UNK     1      29.814  -3.007  37.843  1.00  0.00     0.159 HD
ENDBRANCH   6  15
ENDBRANCH   2   5
BRANCH   3  20
HETATM   20  C12 UNK     1      24.931  -7.388  38.752  1.00  0.00     0.108 A 
HETATM   21  C13 UNK     1      23.998  -8.338  38.634  1.00  0.00     0.037 A 
HETATM   22  C14 UNK     1      22.588  -7.983  38.612  1.00  0.00     0.001 A 
HETATM   23  C16 UNK     1      22.230  -6.643  38.714  1.00  0.00     0.089 A 
HETATM   24  C17 UNK     1      21.580  -8.943  38.490  1.00  0.00     0.038 A 
HETATM   25  O2  UNK     1      23.216  -5.646  38.838  1.00  0.00    -0.274 OA
HETATM   26  C18 UNK     1      20.897  -6.236  38.698  1.00  0.00     0.040 A 
HETATM   27  C15 UNK     1      24.574  -5.955  38.863  1.00  0.00     0.304 A 
HETATM   28  O4  UNK     1      25.427  -5.080  38.971  1.00  0.00    -0.259 OA
HETATM   29  C20 UNK     1      19.897  -7.199  38.577  1.00  0.00     0.026 A 
HETATM   30  C19 UNK     1      20.238  -8.550  38.473  1.00  0.00     0.035 A 
HETATM   31 Cl1  UNK     1      18.999  -9.737  38.323  1.00  0.00    -0.084 Cl
ENDBRANCH   3  20
TORSDOF 3
ENDMDL
MODEL 6
REMARK VINA RESULT:      -8.9      2.111      2.557
REMARK  3 active torsions:
REMARK  status: ('A' for Active; 'I' for Inactive)
REMARK       I    between atoms: C11_19  and  N1_7 
REMARK    1  A    between atoms: C9_17  and  N1_7 
REMARK       I    between atoms: C10_18  and  N2_8 
REMARK    2  A    between atoms: C10_18  and  C8_16 
REMARK    3  A    between atoms: C11_19  and  C12_20 
ROOT
HETATM    1  O3  UNK     1      18.596   5.602  30.914  1.00  0.00    -0.267 OA
HETATM    2  N1  UNK     1      17.275   5.404  32.867  1.00  0.00    -0.316 N 
HETATM    3  C11 UNK     1      18.082   4.951  31.815  1.00  0.00     0.262 C 
HETATM    4  H11 UNK     1      16.938   4.731  33.550  1.00  0.00     0.169 HD
ENDROOT
BRANCH   2   5
HETATM    5  C9  UNK     1      16.891   6.696  33.105  1.00  0.00     0.093 A 
HETATM    6  C8  UNK     1      17.565   7.756  33.672  1.00  0.00     0.073 A 
HETATM    7  C5  UNK     1      16.767   8.939  33.718  1.00  0.00    -0.026 A 
HETATM    8  C4  UNK     1      17.173  10.263  34.287  1.00  0.00     0.041 C 
HETATM    9  C6  UNK     1      15.511   8.720  33.185  1.00  0.00    -0.008 A 
HETATM   10  C2  UNK     1      16.218  11.387  33.855  1.00  0.00     0.009 C 
HETATM   11  C1  UNK     1      14.728  10.987  33.939  1.00  0.00    -0.014 C 
HETATM   12  C3  UNK     1      14.435   9.754  33.054  1.00  0.00     0.051 C 
HETATM   13  C7  UNK     1      14.283  10.756  35.387  1.00  0.00     0.010 C 
HETATM   14  S1  UNK     1      15.302   7.124  32.632  1.00  0.00    -0.075 SA
BRANCH   6  15
HETATM   15  C10 UNK     1      18.921   7.645  34.147  1.00  0.00     0.252 C 
HETATM   16  O1  UNK     1      19.904   7.569  33.388  1.00  0.00    -0.268 OA
HETATM   17  N2  UNK     1      19.119   7.646  35.526  1.00  0.00    -0.366 N 
HETATM   18  H12 UNK     1      18.347   7.716  36.182  1.00  0.00     0.159 HD
HETATM   19  H13 UNK     1      20.052   7.577  35.919  1.00  0.00     0.159 HD
ENDBRANCH   6  15
ENDBRANCH   2   5
BRANCH   3  20
HETATM   20  C12 UNK     1      18.298   3.489  31.858  1.00  0.00     0.108 A 
HETATM   21  C13 UNK     1      18.196   2.912  33.061  1.00  0.00     0.037 A 
HETATM   22  C14 UNK     1      18.391   1.478  33.206  1.00  0.00     0.001 A 
HETATM   23  C16 UNK     1      18.684   0.722  32.076  1.00  0.00     0.089 A 
HETATM   24  C17 UNK     1      18.295   0.834  34.442  1.00  0.00     0.038 A 
HETATM   25  O2  UNK     1      18.790   1.334  30.812  1.00  0.00    -0.274 OA
HETATM   26  C18 UNK     1      18.883  -0.656  32.146  1.00  0.00     0.040 A 
HETATM   27  C15 UNK     1      18.608   2.704  30.642  1.00  0.00     0.304 A 
HETATM   28  O4  UNK     1      18.702   3.229  29.538  1.00  0.00    -0.259 OA
HETATM   29  C20 UNK     1      18.784  -1.291  33.382  1.00  0.00     0.026 A 
HETATM   30  C19 UNK     1      18.491  -0.547  34.528  1.00  0.00     0.035 A 
HETATM   31 Cl1  UNK     1      18.371  -1.336  36.054  1.00  0.00    -0.084 Cl
ENDBRANCH   3  20
TORSDOF 3
ENDMDL
MODEL 7
REMARK VINA RESULT:      -8.8     15.116     17.454
REMARK  3 active torsions:
REMARK  status: ('A' for Active; 'I' for Inactive)
REMARK       I    between atoms: C11_19  and  N1_7 
REMARK    1  A    between atoms: C9_17  and  N1_7 
REMARK       I    between atoms: C10_18  and  N2_8 
REMARK    2  A    between atoms: C10_18  and  C8_16 
REMARK    3  A    between atoms: C11_19  and  C12_20 
ROOT
HETATM    1  O3  UNK     1      27.700  -8.410  39.633  1.00  0.00    -0.267 OA
HETATM    2  N1  UNK     1      28.131  -7.771  37.397  1.00  0.00    -0.316 N 
HETATM    3  C11 UNK     1      27.354  -8.213  38.475  1.00  0.00     0.262 C 
HETATM    4  H11 UNK     1      27.685  -7.640  36.493  1.00  0.00     0.169 HD
ENDROOT
BRANCH   2   5
HETATM    5  C9  UNK     1      29.464  -7.460  37.422  1.00  0.00     0.093 A 
HETATM    6  C8  UNK     1      30.127  -6.328  37.844  1.00  0.00     0.073 A 
HETATM    7  C5  UNK     1      31.542  -6.443  37.689  1.00  0.00    -0.026 A 
HETATM    8  C4  UNK     1      32.559  -5.397  38.023  1.00  0.00     0.041 C 
HETATM    9  C6  UNK     1      31.891  -7.665  37.148  1.00  0.00    -0.008 A 
HETATM   10  C2  UNK     1      33.981  -5.978  38.067  1.00  0.00     0.009 C 
HETATM   11  C1  UNK     1      34.284  -6.938  36.894  1.00  0.00    -0.014 C 
HETATM   12  C3  UNK     1      33.292  -8.123  36.879  1.00  0.00     0.051 C 
HETATM   13  C7  UNK     1      34.303  -6.204  35.550  1.00  0.00     0.010 C 
HETATM   14  S1  UNK     1      30.542  -8.657  36.840  1.00  0.00    -0.075 SA
BRANCH   6  15
HETATM   15  C10 UNK     1      29.436  -5.181  38.378  1.00  0.00     0.252 C 
HETATM   16  O1  UNK     1      28.787  -5.212  39.440  1.00  0.00    -0.268 OA
HETATM   17  N2  UNK     1      29.531  -3.987  37.668  1.00  0.00    -0.366 N 
HETATM   18  H12 UNK     1      30.057  -3.914  36.803  1.00  0.00     0.159 HD
HETATM   19  H13 UNK     1      29.071  -3.145  37.999  1.00  0.00     0.159 HD
ENDBRANCH   6  15
ENDBRANCH   2   5
BRANCH   3  20
HETATM   20  C12 UNK     1      25.947  -8.457  38.094  1.00  0.00     0.108 A 
HETATM   21  C13 UNK     1      25.021  -7.781  38.783  1.00  0.00     0.037 A 
HETATM   22  C14 UNK     1      23.609  -7.952  38.481  1.00  0.00     0.001 A 
HETATM   23  C16 UNK     1      23.241  -8.829  37.465  1.00  0.00     0.089 A 
HETATM   24  C17 UNK     1      22.610  -7.267  39.175  1.00  0.00     0.038 A 
HETATM   25  O2  UNK     1      24.219  -9.539  36.743  1.00  0.00    -0.274 OA
HETATM   26  C18 UNK     1      21.906  -9.040  37.126  1.00  0.00     0.040 A 
HETATM   27  C15 UNK     1      25.578  -9.395  37.009  1.00  0.00     0.304 A 
HETATM   28  O4  UNK     1      26.423 -10.017  36.374  1.00  0.00    -0.259 OA
HETATM   29  C20 UNK     1      20.915  -8.352  37.824  1.00  0.00     0.026 A 
HETATM   30  C19 UNK     1      21.266  -7.467  38.847  1.00  0.00     0.035 A 
HETATM   31 Cl1  UNK     1      20.037  -6.620  39.705  1.00  0.00    -0.084 Cl
ENDBRANCH   3  20
TORSDOF 3
ENDMDL
MODEL 8
REMARK VINA RESULT:      -8.7     14.579     16.874
REMARK  3 active torsions:
REMARK  status: ('A' for Active; 'I' for Inactive)
REMARK       I    between atoms: C11_19  and  N1_7 
REMARK    1  A    between atoms: C9_17  and  N1_7 
REMARK       I    between atoms: C10_18  and  N2_8 
REMARK    2  A    between atoms: C10_18  and  C8_16 
REMARK    3  A    between atoms: C11_19  and  C12_20 
ROOT
HETATM    1  O3  UNK     1      25.832  -8.837  39.481  1.00  0.00    -0.267 OA
HETATM    2  N1  UNK     1      24.979  -8.731  37.278  1.00  0.00    -0.316 N 
HETATM    3  C11 UNK     1      25.968  -8.736  38.269  1.00  0.00     0.262 C 
HETATM    4  H11 UNK     1      25.262  -8.656  36.304  1.00  0.00     0.169 HD
ENDROOT
BRANCH   2   5
HETATM    5  C9  UNK     1      23.628  -8.842  37.470  1.00  0.00     0.093 A 
HETATM    6  C8  UNK     1      22.694  -9.685  36.908  1.00  0.00     0.073 A 
HETATM    7  C5  UNK     1      21.380  -9.447  37.413  1.00  0.00    -0.026 A 
HETATM    8  C4  UNK     1      20.129 -10.162  37.006  1.00  0.00     0.041 C 
HETATM    9  C6  UNK     1      21.375  -8.422  38.340  1.00  0.00    -0.008 A 
HETATM   10  C2  UNK     1      18.978  -9.903  37.990  1.00  0.00     0.009 C 
HETATM   11  C1  UNK     1      18.862  -8.422  38.418  1.00  0.00    -0.014 C 
HETATM   12  C3  UNK     1      20.170  -7.934  39.083  1.00  0.00     0.051 C 
HETATM   13  C7  UNK     1      18.460  -7.523  37.245  1.00  0.00     0.010 C 
HETATM   14  S1  UNK     1      22.924  -7.766  38.602  1.00  0.00    -0.075 SA
BRANCH   6  15
HETATM   15  C10 UNK     1      23.044 -10.683  35.928  1.00  0.00     0.252 C 
HETATM   16  O1  UNK     1      22.481 -10.778  34.823  1.00  0.00    -0.268 OA
HETATM   17  N2  UNK     1      24.080 -11.558  36.248  1.00  0.00    -0.366 N 
HETATM   18  H12 UNK     1      24.573 -11.511  37.134  1.00  0.00     0.159 HD
HETATM   19  H13 UNK     1      24.375 -12.277  35.595  1.00  0.00     0.159 HD
ENDBRANCH   6  15
ENDBRANCH   2   5
BRANCH   3  20
HETATM   20  C12 UNK     1      27.329  -8.597  37.708  1.00  0.00     0.108 A 
HETATM   21  C13 UNK     1      28.119  -7.688  38.292  1.00  0.00     0.037 A 
HETATM   22  C14 UNK     1      29.475  -7.478  37.812  1.00  0.00     0.001 A 
HETATM   23  C16 UNK     1      29.934  -8.237  36.740  1.00  0.00     0.089 A 
HETATM   24  C17 UNK     1      30.334  -6.541  38.391  1.00  0.00     0.038 A 
HETATM   25  O2  UNK     1      29.099  -9.192  36.129  1.00  0.00    -0.274 OA
HETATM   26  C18 UNK     1      31.223  -8.084  36.231  1.00  0.00     0.040 A 
HETATM   27  C15 UNK     1      27.797  -9.415  36.566  1.00  0.00     0.304 A 
HETATM   28  O4  UNK     1      27.076 -10.249  36.029  1.00  0.00    -0.259 OA
HETATM   29  C20 UNK     1      32.073  -7.147  36.815  1.00  0.00     0.026 A 
HETATM   30  C19 UNK     1      31.629  -6.377  37.892  1.00  0.00     0.035 A 
HETATM   31 Cl1  UNK     1      32.685  -5.220  38.609  1.00  0.00    -0.084 Cl
ENDBRANCH   3  20
TORSDOF 3
ENDMDL
MODEL 9
REMARK VINA RESULT:      -8.7      2.324      3.447
REMARK  3 active torsions:
REMARK  status: ('A' for Active; 'I' for Inactive)
REMARK       I    between atoms: C11_19  and  N1_7 
REMARK    1  A    between atoms: C9_17  and  N1_7 
REMARK       I    between atoms: C10_18  and  N2_8 
REMARK    2  A    between atoms: C10_18  and  C8_16 
REMARK    3  A    between atoms: C11_19  and  C12_20 
ROOT
HETATM    1  O3  UNK     1      18.289   5.843  34.127  1.00  0.00    -0.267 OA
HETATM    2  N1  UNK     1      17.046   6.807  32.360  1.00  0.00    -0.316 N 
HETATM    3  C11 UNK     1      17.874   5.859  32.976  1.00  0.00     0.262 C 
HETATM    4  H11 UNK     1      16.775   6.665  31.391  1.00  0.00     0.169 HD
ENDROOT
BRANCH   2   5
HETATM    5  C9  UNK     1      16.522   7.932  32.938  1.00  0.00     0.093 A 
HETATM    6  C8  UNK     1      15.226   8.270  33.262  1.00  0.00     0.073 A 
HETATM    7  C5  UNK     1      15.140   9.563  33.862  1.00  0.00    -0.026 A 
HETATM    8  C4  UNK     1      13.889  10.250  34.313  1.00  0.00     0.041 C 
HETATM    9  C6  UNK     1      16.384  10.155  33.962  1.00  0.00    -0.008 A 
HETATM   10  C2  UNK     1      14.195  11.452  35.220  1.00  0.00     0.009 C 
HETATM   11  C1  UNK     1      15.359  12.328  34.702  1.00  0.00    -0.014 C 
HETATM   12  C3  UNK     1      16.656  11.499  34.565  1.00  0.00     0.051 C 
HETATM   13  C7  UNK     1      15.000  13.028  33.388  1.00  0.00     0.010 C 
HETATM   14  S1  UNK     1      17.632   9.169  33.353  1.00  0.00    -0.075 SA
BRANCH   6  15
HETATM   15  C10 UNK     1      14.112   7.389  33.012  1.00  0.00     0.252 C 
HETATM   16  O1  UNK     1      13.785   7.013  31.872  1.00  0.00    -0.268 OA
HETATM   17  N2  UNK     1      13.398   6.931  34.117  1.00  0.00    -0.366 N 
HETATM   18  H12 UNK     1      13.636   7.203  35.065  1.00  0.00     0.159 HD
HETATM   19  H13 UNK     1      12.609   6.303  34.003  1.00  0.00     0.159 HD
ENDBRANCH   6  15
ENDBRANCH   2   5
BRANCH   3  20
HETATM   20  C12 UNK     1      18.259   4.766  32.057  1.00  0.00     0.108 A 
HETATM   21  C13 UNK     1      18.290   3.536  32.582  1.00  0.00     0.037 A 
HETATM   22  C14 UNK     1      18.656   2.395  31.757  1.00  0.00     0.001 A 
HETATM   23  C16 UNK     1      18.972   2.606  30.419  1.00  0.00     0.089 A 
HETATM   24  C17 UNK     1      18.702   1.094  32.263  1.00  0.00     0.038 A 
HETATM   25  O2  UNK     1      18.938   3.903  29.872  1.00  0.00    -0.274 OA
HETATM   26  C18 UNK     1      19.331   1.557  29.575  1.00  0.00     0.040 A 
HETATM   27  C15 UNK     1      18.591   5.014  30.636  1.00  0.00     0.304 A 
HETATM   28  O4  UNK     1      18.564   6.140  30.151  1.00  0.00    -0.259 OA
HETATM   29  C20 UNK     1      19.374   0.262  30.088  1.00  0.00     0.026 A 
HETATM   30  C19 UNK     1      19.060   0.031  31.430  1.00  0.00     0.035 A 
HETATM   31 Cl1  UNK     1      19.115  -1.572  32.058  1.00  0.00    -0.084 Cl
ENDBRANCH   3  20
TORSDOF 3
ENDMDL
MODEL 10
REMARK VINA RESULT:      -8.6      1.519      2.430
REMARK  3 active torsions:
REMARK  status: ('A' for Active; 'I' for Inactive)
REMARK       I    between atoms: C11_19  and  N1_7 
REMARK    1  A    between atoms: C9_17  and  N1_7 
REMARK       I    between atoms: C10_18  and  N2_8 
REMARK    2  A    between atoms: C10_18  and  C8_16 
REMARK    3  A    between atoms: C11_19  and  C12_20 
ROOT
HETATM    1  O3  UNK     1      17.696   3.737  33.080  1.00  0.00    -0.267 OA
HETATM    2  N1  UNK     1      18.774   5.277  31.644  1.00  0.00    -0.316 N 
HETATM    3  C11 UNK     1      18.316   4.021  32.063  1.00  0.00     0.262 C 
HETATM    4  H11 UNK     1      19.263   5.348  30.755  1.00  0.00     0.169 HD
ENDROOT
BRANCH   2   5
HETATM    5  C9  UNK     1      18.616   6.466  32.303  1.00  0.00     0.093 A 
HETATM    6  C8  UNK     1      17.526   7.301  32.426  1.00  0.00     0.073 A 
HETATM    7  C5  UNK     1      17.816   8.452  33.221  1.00  0.00    -0.026 A 
HETATM    8  C4  UNK     1      16.875   9.571  33.539  1.00  0.00     0.041 C 
HETATM    9  C6  UNK     1      19.125   8.441  33.663  1.00  0.00    -0.008 A 
HETATM   10  C2  UNK     1      17.397  10.446  34.689  1.00  0.00     0.009 C 
HETATM   11  C1  UNK     1      18.903  10.774  34.571  1.00  0.00    -0.014 C 
HETATM   12  C3  UNK     1      19.751   9.482  34.540  1.00  0.00     0.051 C 
HETATM   13  C7  UNK     1      19.195  11.667  33.360  1.00  0.00     0.010 C 
HETATM   14  S1  UNK     1      19.984   7.068  33.139  1.00  0.00    -0.075 SA
BRANCH   6  15
HETATM   15  C10 UNK     1      16.255   7.009  31.813  1.00  0.00     0.252 C 
HETATM   16  O1  UNK     1      15.612   5.969  32.043  1.00  0.00    -0.268 OA
HETATM   17  N2  UNK     1      15.731   7.959  30.940  1.00  0.00    -0.366 N 
HETATM   18  H12 UNK     1      16.217   8.826  30.730  1.00  0.00     0.159 HD
HETATM   19  H13 UNK     1      14.837   7.811  30.484  1.00  0.00     0.159 HD
ENDBRANCH   6  15
ENDBRANCH   2   5
BRANCH   3  20
HETATM   20  C12 UNK     1      18.661   2.947  31.108  1.00  0.00     0.108 A 
HETATM   21  C13 UNK     1      19.089   1.797  31.640  1.00  0.00     0.037 A 
HETATM   22  C14 UNK     1      19.451   0.680  30.782  1.00  0.00     0.001 A 
HETATM   23  C16 UNK     1      19.345   0.831  29.403  1.00  0.00     0.089 A 
HETATM   24  C17 UNK     1      19.903  -0.538  31.294  1.00  0.00     0.038 A 
HETATM   25  O2  UNK     1      18.895   2.044  28.847  1.00  0.00    -0.274 OA
HETATM   26  C18 UNK     1      19.678  -0.199  28.525  1.00  0.00     0.040 A 
HETATM   27  C15 UNK     1      18.540   3.129  29.643  1.00  0.00     0.304 A 
HETATM   28  O4  UNK     1      18.149   4.182  29.151  1.00  0.00    -0.259 OA
HETATM   29  C20 UNK     1      20.127  -1.412  29.044  1.00  0.00     0.026 A 
HETATM   30  C19 UNK     1      20.239  -1.581  30.426  1.00  0.00     0.035 A 
HETATM   31 Cl1  UNK     1      20.795  -3.081  31.063  1.00  0.00    -0.084 Cl
ENDBRANCH   3  20
TORSDOF 3
ENDMDL
