MODEL 1
REMARK VINA RESULT:     -10.1      0.000      0.000
REMARK  4 active torsions:
REMARK  status: ('A' for Active; 'I' for Inactive)
REMARK    1  A    between atoms: C1_8  and  N1_6 
REMARK       I    between atoms: C9_16  and  N1_6 
REMARK    2  A    between atoms: C19_26  and  N2_7 
REMARK    3  A    between atoms: C1_8  and  C2_9 
REMARK    4  A    between atoms: C10_17  and  C9_16 
ROOT
HETATM    1  O1  UNK     1      20.820  -2.240  31.238  1.00  0.00    -0.274 OA
HETATM    2  O3  UNK     1      21.145  -3.670  32.990  1.00  0.00    -0.259 OA
HETATM    3  C10 UNK     1      19.737  -1.806  33.387  1.00  0.00     0.108 A 
HETATM    4  C11 UNK     1      19.395  -0.291  31.526  1.00  0.00     0.001 A 
HETATM    5  C13 UNK     1      19.163  -0.697  32.904  1.00  0.00     0.037 A 
HETATM    6  C14 UNK     1      20.220  -1.073  30.725  1.00  0.00     0.089 A 
HETATM    7  C16 UNK     1      20.617  -2.653  32.551  1.00  0.00     0.304 A 
HETATM    8  C17 UNK     1      18.818   0.859  30.982  1.00  0.00     0.050 A 
HETATM    9  C18 UNK     1      20.481  -0.740  29.397  1.00  0.00     0.041 A 
HETATM   10  C19 UNK     1      19.072   1.205  29.652  1.00  0.00     0.103 A 
HETATM   11  C20 UNK     1      19.902   0.408  28.862  1.00  0.00     0.039 A 
ENDROOT
BRANCH   3  12
HETATM   12  C9  UNK     1      19.443  -2.131  34.787  1.00  0.00     0.258 C 
HETATM   13  O2  UNK     1      18.919  -1.305  35.531  1.00  0.00    -0.267 OA
HETATM   14  N1  UNK     1      19.816  -3.418  35.130  1.00  0.00    -0.348 N 
HETATM   15  H3  UNK     1      20.300  -3.995  34.448  1.00  0.00     0.163 HD
BRANCH  14  16
HETATM   16  C1  UNK     1      19.631  -3.967  36.454  1.00  0.00     0.114 C 
HETATM   17  C5  UNK     1      20.544  -3.256  37.451  1.00  0.00     0.037 C 
BRANCH  16  18
HETATM   18  C2  UNK     1      19.818  -5.469  36.463  1.00  0.00    -0.035 A 
HETATM   19  C3  UNK     1      19.852  -6.137  37.675  1.00  0.00     0.016 A 
HETATM   20  C4  UNK     1      20.025  -7.521  37.683  1.00  0.00    -0.056 A 
HETATM   21  C12 UNK     1      20.061  -8.240  38.991  1.00  0.00     0.049 C 
HETATM   22  C7  UNK     1      20.162  -8.214  36.480  1.00  0.00    -0.056 A 
HETATM   23  C15 UNK     1      20.348  -9.696  36.464  1.00  0.00     0.049 C 
HETATM   24  C8  UNK     1      20.126  -7.523  35.269  1.00  0.00     0.008 A 
HETATM   25  C6  UNK     1      19.953  -6.139  35.261  1.00  0.00     0.010 A 
ENDBRANCH  16  18
ENDBRANCH  14  16
ENDBRANCH   3  12
BRANCH  10  26
HETATM   26  N2  UNK     1      18.483   2.375  29.101  1.00  0.00    -0.116 N 
HETATM   27  O4  UNK     1      17.840   2.284  28.028  1.00  0.00    -0.532 OA
HETATM   28  O5  UNK     1      18.624   3.467  29.702  1.00  0.00    -0.532 OA
ENDBRANCH  10  26
TORSDOF 4
ENDMDL
MODEL 2
REMARK VINA RESULT:      -9.8      5.173      8.843
REMARK  4 active torsions:
REMARK  status: ('A' for Active; 'I' for Inactive)
REMARK    1  A    between atoms: C1_8  and  N1_6 
REMARK       I    between atoms: C9_16  and  N1_6 
REMARK    2  A    between atoms: C19_26  and  N2_7 
REMARK    3  A    between atoms: C1_8  and  C2_9 
REMARK    4  A    between atoms: C10_17  and  C9_16 
ROOT
HETATM    1  O1  UNK     1      20.274   6.857  32.649  1.00  0.00    -0.274 OA
HETATM    2  O3  UNK     1      21.394   5.486  31.204  1.00  0.00    -0.259 OA
HETATM    3  C10 UNK     1      19.029   5.495  31.044  1.00  0.00     0.108 A 
HETATM    4  C11 UNK     1      17.845   6.950  32.578  1.00  0.00     0.001 A 
HETATM    5  C13 UNK     1      17.866   5.977  31.496  1.00  0.00     0.037 A 
HETATM    6  C14 UNK     1      19.052   7.367  33.130  1.00  0.00     0.089 A 
HETATM    7  C16 UNK     1      20.325   5.926  31.616  1.00  0.00     0.304 A 
HETATM    8  C17 UNK     1      16.654   7.478  33.082  1.00  0.00     0.050 A 
HETATM    9  C18 UNK     1      19.101   8.296  34.167  1.00  0.00     0.041 A 
HETATM   10  C19 UNK     1      16.688   8.411  34.122  1.00  0.00     0.103 A 
HETATM   11  C20 UNK     1      17.909   8.818  34.664  1.00  0.00     0.039 A 
ENDROOT
BRANCH   3  12
HETATM   12  C9  UNK     1      18.946   4.519  29.951  1.00  0.00     0.258 C 
HETATM   13  O2  UNK     1      18.711   4.878  28.800  1.00  0.00    -0.267 OA
HETATM   14  N1  UNK     1      19.155   3.219  30.375  1.00  0.00    -0.348 N 
HETATM   15  H3  UNK     1      19.280   3.031  31.366  1.00  0.00     0.163 HD
BRANCH  14  16
HETATM   16  C1  UNK     1      19.120   2.083  29.482  1.00  0.00     0.114 C 
HETATM   17  C5  UNK     1      17.745   1.973  28.826  1.00  0.00     0.037 C 
BRANCH  16  18
HETATM   18  C2  UNK     1      19.530   0.809  30.189  1.00  0.00    -0.035 A 
HETATM   19  C3  UNK     1      18.977   0.515  31.423  1.00  0.00     0.016 A 
HETATM   20  C4  UNK     1      19.354  -0.659  32.075  1.00  0.00    -0.056 A 
HETATM   21  C12 UNK     1      18.756  -0.975  33.407  1.00  0.00     0.049 C 
HETATM   22  C7  UNK     1      20.279  -1.519  31.482  1.00  0.00    -0.056 A 
HETATM   23  C15 UNK     1      20.699  -2.782  32.161  1.00  0.00     0.049 C 
HETATM   24  C8  UNK     1      20.826  -1.205  30.238  1.00  0.00     0.008 A 
HETATM   25  C6  UNK     1      20.448  -0.032  29.587  1.00  0.00     0.010 A 
ENDBRANCH  16  18
ENDBRANCH  14  16
ENDBRANCH   3  12
BRANCH  10  26
HETATM   26  N2  UNK     1      15.475   8.947  34.632  1.00  0.00    -0.116 N 
HETATM   27  O4  UNK     1      15.527   9.894  35.453  1.00  0.00    -0.532 OA
HETATM   28  O5  UNK     1      14.386   8.457  34.248  1.00  0.00    -0.532 OA
ENDBRANCH  10  26
TORSDOF 4
ENDMDL
MODEL 3
REMARK VINA RESULT:      -9.7      4.824     10.595
REMARK  4 active torsions:
REMARK  status: ('A' for Active; 'I' for Inactive)
REMARK    1  A    between atoms: C1_8  and  N1_6 
REMARK       I    between atoms: C9_16  and  N1_6 
REMARK    2  A    between atoms: C19_26  and  N2_7 
REMARK    3  A    between atoms: C1_8  and  C2_9 
REMARK    4  A    between atoms: C10_17  and  C9_16 
ROOT
HETATM    1  O1  UNK     1      19.199  -0.428  32.115  1.00  0.00    -0.274 OA
HETATM    2  O3  UNK     1      19.472   0.402  30.003  1.00  0.00    -0.259 OA
HETATM    3  C10 UNK     1      18.653   1.908  31.640  1.00  0.00     0.108 A 
HETATM    4  C11 UNK     1      18.364   1.024  33.877  1.00  0.00     0.001 A 
HETATM    5  C13 UNK     1      18.290   2.111  32.911  1.00  0.00     0.037 A 
HETATM    6  C14 UNK     1      18.817  -0.221  33.455  1.00  0.00     0.089 A 
HETATM    7  C16 UNK     1      19.139   0.592  31.169  1.00  0.00     0.304 A 
HETATM    8  C17 UNK     1      17.994   1.190  35.214  1.00  0.00     0.050 A 
HETATM    9  C18 UNK     1      18.912  -1.301  34.330  1.00  0.00     0.041 A 
HETATM   10  C19 UNK     1      18.084   0.116  36.103  1.00  0.00     0.103 A 
HETATM   11  C20 UNK     1      18.541  -1.128  35.661  1.00  0.00     0.039 A 
ENDROOT
BRANCH   3  12
HETATM   12  C9  UNK     1      18.542   3.064  30.742  1.00  0.00     0.258 C 
HETATM   13  O2  UNK     1      18.247   2.919  29.559  1.00  0.00    -0.267 OA
HETATM   14  N1  UNK     1      18.803   4.265  31.378  1.00  0.00    -0.348 N 
HETATM   15  H3  UNK     1      19.100   4.261  32.349  1.00  0.00     0.163 HD
BRANCH  14  16
HETATM   16  C1  UNK     1      18.759   5.542  30.701  1.00  0.00     0.114 C 
HETATM   17  C5  UNK     1      20.113   5.843  30.061  1.00  0.00     0.037 C 
BRANCH  16  18
HETATM   18  C2  UNK     1      18.296   6.645  31.627  1.00  0.00    -0.035 A 
HETATM   19  C3  UNK     1      19.119   7.044  32.666  1.00  0.00     0.016 A 
HETATM   20  C4  UNK     1      18.692   8.060  33.520  1.00  0.00    -0.056 A 
HETATM   21  C12 UNK     1      19.582   8.489  34.640  1.00  0.00     0.049 C 
HETATM   22  C7  UNK     1      17.449   8.661  33.322  1.00  0.00    -0.056 A 
HETATM   23  C15 UNK     1      16.970   9.752  34.223  1.00  0.00     0.049 C 
HETATM   24  C8  UNK     1      16.633   8.245  32.270  1.00  0.00     0.008 A 
HETATM   25  C6  UNK     1      17.060   7.229  31.416  1.00  0.00     0.010 A 
ENDBRANCH  16  18
ENDBRANCH  14  16
ENDBRANCH   3  12
BRANCH  10  26
HETATM   26  N2  UNK     1      17.708   0.287  37.462  1.00  0.00    -0.116 N 
HETATM   27  O4  UNK     1      18.005  -0.605  38.292  1.00  0.00    -0.532 OA
HETATM   28  O5  UNK     1      17.088   1.326  37.793  1.00  0.00    -0.532 OA
ENDBRANCH  10  26
TORSDOF 4
ENDMDL
MODEL 4
REMARK VINA RESULT:      -9.5     15.481     19.614
REMARK  4 active torsions:
REMARK  status: ('A' for Active; 'I' for Inactive)
REMARK    1  A    between atoms: C1_8  and  N1_6 
REMARK       I    between atoms: C9_16  and  N1_6 
REMARK    2  A    between atoms: C19_26  and  N2_7 
REMARK    3  A    between atoms: C1_8  and  C2_9 
REMARK    4  A    between atoms: C10_17  and  C9_16 
ROOT
HETATM    1  O1  UNK     1      19.261   0.750  15.060  1.00  0.00    -0.274 OA
HETATM    2  O3  UNK     1      19.196  -0.836  13.416  1.00  0.00    -0.259 OA
HETATM    3  C10 UNK     1      18.835  -1.588  15.635  1.00  0.00     0.108 A 
HETATM    4  C11 UNK     1      18.906   0.097  17.375  1.00  0.00     0.001 A 
HETATM    5  C13 UNK     1      18.740  -1.280  16.933  1.00  0.00     0.037 A 
HETATM    6  C14 UNK     1      19.163   1.081  16.426  1.00  0.00     0.089 A 
HETATM    7  C16 UNK     1      19.107  -0.557  14.608  1.00  0.00     0.304 A 
HETATM    8  C17 UNK     1      18.816   0.463  18.720  1.00  0.00     0.050 A 
HETATM    9  C18 UNK     1      19.332   2.417  16.783  1.00  0.00     0.041 A 
HETATM   10  C19 UNK     1      18.983   1.799  19.093  1.00  0.00     0.103 A 
HETATM   11  C20 UNK     1      19.241   2.774  18.126  1.00  0.00     0.039 A 
ENDROOT
BRANCH   3  12
HETATM   12  C9  UNK     1      18.653  -3.003  15.289  1.00  0.00     0.258 C 
HETATM   13  O2  UNK     1      17.589  -3.575  15.510  1.00  0.00    -0.267 OA
HETATM   14  N1  UNK     1      19.780  -3.566  14.716  1.00  0.00    -0.348 N 
HETATM   15  H3  UNK     1      20.628  -3.012  14.638  1.00  0.00     0.163 HD
BRANCH  14  16
HETATM   16  C1  UNK     1      19.844  -4.946  14.294  1.00  0.00     0.114 C 
HETATM   17  C5  UNK     1      20.780  -5.732  15.211  1.00  0.00     0.037 C 
BRANCH  16  18
HETATM   18  C2  UNK     1      20.227  -5.063  12.835  1.00  0.00    -0.035 A 
HETATM   19  C3  UNK     1      20.183  -3.935  12.034  1.00  0.00     0.016 A 
HETATM   20  C4  UNK     1      20.536  -4.042  10.689  1.00  0.00    -0.056 A 
HETATM   21  C12 UNK     1      20.488  -2.823   9.827  1.00  0.00     0.049 C 
HETATM   22  C7  UNK     1      20.926  -5.275  10.166  1.00  0.00    -0.056 A 
HETATM   23  C15 UNK     1      21.308  -5.414   8.729  1.00  0.00     0.049 C 
HETATM   24  C8  UNK     1      20.963  -6.401  10.989  1.00  0.00     0.008 A 
HETATM   25  C6  UNK     1      20.611  -6.293  12.333  1.00  0.00     0.010 A 
ENDBRANCH  16  18
ENDBRANCH  14  16
ENDBRANCH   3  12
BRANCH  10  26
HETATM   26  N2  UNK     1      18.891   2.169  20.461  1.00  0.00    -0.116 N 
HETATM   27  O4  UNK     1      19.935   2.502  21.073  1.00  0.00    -0.532 OA
HETATM   28  O5  UNK     1      17.768   2.152  21.021  1.00  0.00    -0.532 OA
ENDBRANCH  10  26
TORSDOF 4
ENDMDL
MODEL 5
REMARK VINA RESULT:      -9.4      3.817      9.676
REMARK  4 active torsions:
REMARK  status: ('A' for Active; 'I' for Inactive)
REMARK    1  A    between atoms: C1_8  and  N1_6 
REMARK       I    between atoms: C9_16  and  N1_6 
REMARK    2  A    between atoms: C19_26  and  N2_7 
REMARK    3  A    between atoms: C1_8  and  C2_9 
REMARK    4  A    between atoms: C10_17  and  C9_16 
ROOT
HETATM    1  O1  UNK     1      20.473  -1.176  30.319  1.00  0.00    -0.274 OA
HETATM    2  O3  UNK     1      20.077   0.296  28.617  1.00  0.00    -0.259 OA
HETATM    3  C10 UNK     1      19.103   0.811  30.716  1.00  0.00     0.108 A 
HETATM    4  C11 UNK     1      19.526  -0.753  32.518  1.00  0.00     0.001 A 
HETATM    5  C13 UNK     1      18.924   0.465  31.996  1.00  0.00     0.037 A 
HETATM    6  C14 UNK     1      20.287  -1.546  31.666  1.00  0.00     0.089 A 
HETATM    7  C16 UNK     1      19.910  -0.017  29.791  1.00  0.00     0.304 A 
HETATM    8  C17 UNK     1      19.364  -1.154  33.847  1.00  0.00     0.050 A 
HETATM    9  C18 UNK     1      20.890  -2.724  32.103  1.00  0.00     0.041 A 
HETATM   10  C19 UNK     1      19.963  -2.332  34.300  1.00  0.00     0.103 A 
HETATM   11  C20 UNK     1      20.724  -3.115  33.429  1.00  0.00     0.039 A 
ENDROOT
BRANCH   3  12
HETATM   12  C9  UNK     1      18.456   2.055  30.284  1.00  0.00     0.258 C 
HETATM   13  O2  UNK     1      17.530   2.038  29.478  1.00  0.00    -0.267 OA
HETATM   14  N1  UNK     1      19.004   3.179  30.876  1.00  0.00    -0.348 N 
HETATM   15  H3  UNK     1      19.812   3.079  31.484  1.00  0.00     0.163 HD
BRANCH  14  16
HETATM   16  C1  UNK     1      18.536   4.520  30.606  1.00  0.00     0.114 C 
HETATM   17  C5  UNK     1      19.187   5.057  29.333  1.00  0.00     0.037 C 
BRANCH  16  18
HETATM   18  C2  UNK     1      18.748   5.431  31.796  1.00  0.00    -0.035 A 
HETATM   19  C3  UNK     1      17.682   5.704  32.635  1.00  0.00     0.016 A 
HETATM   20  C4  UNK     1      17.876   6.544  33.731  1.00  0.00    -0.056 A 
HETATM   21  C12 UNK     1      16.724   6.836  34.635  1.00  0.00     0.049 C 
HETATM   22  C7  UNK     1      19.134   7.097  33.970  1.00  0.00    -0.056 A 
HETATM   23  C15 UNK     1      19.368   7.999  35.139  1.00  0.00     0.049 C 
HETATM   24  C8  UNK     1      20.197   6.811  33.113  1.00  0.00     0.008 A 
HETATM   25  C6  UNK     1      20.002   5.971  32.018  1.00  0.00     0.010 A 
ENDBRANCH  16  18
ENDBRANCH  14  16
ENDBRANCH   3  12
BRANCH  10  26
HETATM   26  N2  UNK     1      19.796  -2.736  35.651  1.00  0.00    -0.116 N 
HETATM   27  O4  UNK     1      20.661  -3.480  36.174  1.00  0.00    -0.532 OA
HETATM   28  O5  UNK     1      18.789  -2.340  36.284  1.00  0.00    -0.532 OA
ENDBRANCH  10  26
TORSDOF 4
ENDMDL
MODEL 6
REMARK VINA RESULT:      -9.3      4.535     10.368
REMARK  4 active torsions:
REMARK  status: ('A' for Active; 'I' for Inactive)
REMARK    1  A    between atoms: C1_8  and  N1_6 
REMARK       I    between atoms: C9_16  and  N1_6 
REMARK    2  A    between atoms: C19_26  and  N2_7 
REMARK    3  A    between atoms: C1_8  and  C2_9 
REMARK    4  A    between atoms: C10_17  and  C9_16 
ROOT
HETATM    1  O1  UNK     1      18.573   0.616  33.406  1.00  0.00    -0.274 OA
HETATM    2  O3  UNK     1      17.728   2.728  33.191  1.00  0.00    -0.259 OA
HETATM    3  C10 UNK     1      18.864   1.841  31.309  1.00  0.00     0.108 A 
HETATM    4  C11 UNK     1      19.760  -0.398  31.542  1.00  0.00     0.001 A 
HETATM    5  C13 UNK     1      19.530   0.814  30.770  1.00  0.00     0.037 A 
HETATM    6  C14 UNK     1      19.275  -0.468  32.843  1.00  0.00     0.089 A 
HETATM    7  C16 UNK     1      18.339   1.788  32.692  1.00  0.00     0.304 A 
HETATM    8  C17 UNK     1      20.451  -1.494  31.019  1.00  0.00     0.050 A 
HETATM    9  C18 UNK     1      19.461  -1.600  33.635  1.00  0.00     0.041 A 
HETATM   10  C19 UNK     1      20.644  -2.636  31.801  1.00  0.00     0.103 A 
HETATM   11  C20 UNK     1      20.151  -2.688  33.106  1.00  0.00     0.039 A 
ENDROOT
BRANCH   3  12
HETATM   12  C9  UNK     1      18.684   3.019  30.452  1.00  0.00     0.258 C 
HETATM   13  O2  UNK     1      18.332   2.900  29.281  1.00  0.00    -0.267 OA
HETATM   14  N1  UNK     1      18.952   4.207  31.108  1.00  0.00    -0.348 N 
HETATM   15  H3  UNK     1      19.298   4.182  32.063  1.00  0.00     0.163 HD
BRANCH  14  16
HETATM   16  C1  UNK     1      18.848   5.501  30.471  1.00  0.00     0.114 C 
HETATM   17  C5  UNK     1      20.180   5.876  29.824  1.00  0.00     0.037 C 
BRANCH  16  18
HETATM   18  C2  UNK     1      18.353   6.555  31.437  1.00  0.00    -0.035 A 
HETATM   19  C3  UNK     1      19.123   6.871  32.544  1.00  0.00     0.016 A 
HETATM   20  C4  UNK     1      18.667   7.843  33.434  1.00  0.00    -0.056 A 
HETATM   21  C12 UNK     1      19.499   8.182  34.627  1.00  0.00     0.049 C 
HETATM   22  C7  UNK     1      17.449   8.484  33.203  1.00  0.00    -0.056 A 
HETATM   23  C15 UNK     1      16.940   9.528  34.142  1.00  0.00     0.049 C 
HETATM   24  C8  UNK     1      16.688   8.151  32.083  1.00  0.00     0.008 A 
HETATM   25  C6  UNK     1      17.144   7.180  31.193  1.00  0.00     0.010 A 
ENDBRANCH  16  18
ENDBRANCH  14  16
ENDBRANCH   3  12
BRANCH  10  26
HETATM   26  N2  UNK     1      21.348  -3.749  31.267  1.00  0.00    -0.116 N 
HETATM   27  O4  UNK     1      21.566  -3.794  30.033  1.00  0.00    -0.532 OA
HETATM   28  O5  UNK     1      21.729  -4.656  32.045  1.00  0.00    -0.532 OA
ENDBRANCH  10  26
TORSDOF 4
ENDMDL
MODEL 7
REMARK VINA RESULT:      -9.1      7.732     10.905
REMARK  4 active torsions:
REMARK  status: ('A' for Active; 'I' for Inactive)
REMARK    1  A    between atoms: C1_8  and  N1_6 
REMARK       I    between atoms: C9_16  and  N1_6 
REMARK    2  A    between atoms: C19_26  and  N2_7 
REMARK    3  A    between atoms: C1_8  and  C2_9 
REMARK    4  A    between atoms: C10_17  and  C9_16 
ROOT
HETATM    1  O1  UNK     1      22.960 -11.247  35.882  1.00  0.00    -0.274 OA
HETATM    2  O3  UNK     1      25.025 -12.201  35.666  1.00  0.00    -0.259 OA
HETATM    3  C10 UNK     1      24.942 -10.067  36.694  1.00  0.00     0.108 A 
HETATM    4  C11 UNK     1      22.751  -9.059  36.921  1.00  0.00     0.001 A 
HETATM    5  C13 UNK     1      24.194  -9.037  37.105  1.00  0.00     0.037 A 
HETATM    6  C14 UNK     1      22.167 -10.164  36.312  1.00  0.00     0.089 A 
HETATM    7  C16 UNK     1      24.343 -11.255  36.045  1.00  0.00     0.304 A 
HETATM    8  C17 UNK     1      21.931  -8.005  37.333  1.00  0.00     0.050 A 
HETATM    9  C18 UNK     1      20.792 -10.247  36.106  1.00  0.00     0.041 A 
HETATM   10  C19 UNK     1      20.550  -8.074  37.133  1.00  0.00     0.103 A 
HETATM   11  C20 UNK     1      19.982  -9.193  36.521  1.00  0.00     0.039 A 
ENDROOT
BRANCH   3  12
HETATM   12  C9  UNK     1      26.387  -9.952  36.924  1.00  0.00     0.258 C 
HETATM   13  O2  UNK     1      27.179  -9.958  35.985  1.00  0.00    -0.267 OA
HETATM   14  N1  UNK     1      26.711  -9.843  38.265  1.00  0.00    -0.348 N 
HETATM   15  H3  UNK     1      25.976  -9.912  38.963  1.00  0.00     0.163 HD
BRANCH  14  16
HETATM   16  C1  UNK     1      28.070  -9.721  38.741  1.00  0.00     0.114 C 
HETATM   17  C5  UNK     1      28.215 -10.403  40.100  1.00  0.00     0.037 C 
BRANCH  16  18
HETATM   18  C2  UNK     1      28.522  -8.277  38.764  1.00  0.00    -0.035 A 
HETATM   19  C3  UNK     1      29.812  -7.967  38.371  1.00  0.00     0.016 A 
HETATM   20  C4  UNK     1      30.229  -6.636  38.392  1.00  0.00    -0.056 A 
HETATM   21  C12 UNK     1      31.622  -6.304  37.968  1.00  0.00     0.049 C 
HETATM   22  C7  UNK     1      29.348  -5.637  38.807  1.00  0.00    -0.056 A 
HETATM   23  C15 UNK     1      29.771  -4.204  38.838  1.00  0.00     0.049 C 
HETATM   24  C8  UNK     1      28.052  -5.968  39.200  1.00  0.00     0.008 A 
HETATM   25  C6  UNK     1      27.636  -7.299  39.178  1.00  0.00     0.010 A 
ENDBRANCH  16  18
ENDBRANCH  14  16
ENDBRANCH   3  12
BRANCH  10  26
HETATM   26  N2  UNK     1      19.720  -7.001  37.554  1.00  0.00    -0.116 N 
HETATM   27  O4  UNK     1      18.481  -7.187  37.635  1.00  0.00    -0.532 OA
HETATM   28  O5  UNK     1      20.247  -5.898  37.833  1.00  0.00    -0.532 OA
ENDBRANCH  10  26
TORSDOF 4
ENDMDL
MODEL 8
REMARK VINA RESULT:      -9.1     25.193     28.006
REMARK  4 active torsions:
REMARK  status: ('A' for Active; 'I' for Inactive)
REMARK    1  A    between atoms: C1_8  and  N1_6 
REMARK       I    between atoms: C9_16  and  N1_6 
REMARK    2  A    between atoms: C19_26  and  N2_7 
REMARK    3  A    between atoms: C1_8  and  C2_9 
REMARK    4  A    between atoms: C10_17  and  C9_16 
ROOT
HETATM    1  O1  UNK     1       6.175   2.873  10.351  1.00  0.00    -0.274 OA
HETATM    2  O3  UNK     1       7.052   3.336   8.292  1.00  0.00    -0.259 OA
HETATM    3  C10 UNK     1       7.088   5.093   9.883  1.00  0.00     0.108 A 
HETATM    4  C11 UNK     1       6.157   4.598  12.064  1.00  0.00     0.001 A 
HETATM    5  C13 UNK     1       6.794   5.505  11.121  1.00  0.00     0.037 A 
HETATM    6  C14 UNK     1       5.862   3.301  11.656  1.00  0.00     0.089 A 
HETATM    7  C16 UNK     1       6.784   3.717   9.427  1.00  0.00     0.304 A 
HETATM    8  C17 UNK     1       5.830   4.986  13.366  1.00  0.00     0.050 A 
HETATM    9  C18 UNK     1       5.254   2.384  12.511  1.00  0.00     0.041 A 
HETATM   10  C19 UNK     1       5.220   4.076  14.234  1.00  0.00     0.103 A 
HETATM   11  C20 UNK     1       4.932   2.779  13.807  1.00  0.00     0.039 A 
ENDROOT
BRANCH   3  12
HETATM   12  C9  UNK     1       7.728   6.080   9.006  1.00  0.00     0.258 C 
HETATM   13  O2  UNK     1       7.160   7.130   8.717  1.00  0.00    -0.267 OA
HETATM   14  N1  UNK     1       8.983   5.686   8.578  1.00  0.00    -0.348 N 
HETATM   15  H3  UNK     1       9.329   4.765   8.831  1.00  0.00     0.163 HD
BRANCH  14  16
HETATM   16  C1  UNK     1       9.807   6.489   7.704  1.00  0.00     0.114 C 
HETATM   17  C5  UNK     1       9.515   6.147   6.245  1.00  0.00     0.037 C 
BRANCH  16  18
HETATM   18  C2  UNK     1      11.275   6.357   8.050  1.00  0.00    -0.035 A 
HETATM   19  C3  UNK     1      12.040   7.501   8.191  1.00  0.00     0.016 A 
HETATM   20  C4  UNK     1      13.393   7.380   8.510  1.00  0.00    -0.056 A 
HETATM   21  C12 UNK     1      14.217   8.616   8.662  1.00  0.00     0.049 C 
HETATM   22  C7  UNK     1      13.958   6.116   8.681  1.00  0.00    -0.056 A 
HETATM   23  C15 UNK     1      15.404   5.960   9.023  1.00  0.00     0.049 C 
HETATM   24  C8  UNK     1      13.170   4.974   8.534  1.00  0.00     0.008 A 
HETATM   25  C6  UNK     1      11.818   5.096   8.216  1.00  0.00     0.010 A 
ENDBRANCH  16  18
ENDBRANCH  14  16
ENDBRANCH   3  12
BRANCH  10  26
HETATM   26  N2  UNK     1       4.890   4.474  15.558  1.00  0.00    -0.116 N 
HETATM   27  O4  UNK     1       5.462   3.911  16.522  1.00  0.00    -0.532 OA
HETATM   28  O5  UNK     1       4.034   5.375  15.725  1.00  0.00    -0.532 OA
ENDBRANCH  10  26
TORSDOF 4
ENDMDL
MODEL 9
REMARK VINA RESULT:      -9.0     26.250     28.954
REMARK  4 active torsions:
REMARK  status: ('A' for Active; 'I' for Inactive)
REMARK    1  A    between atoms: C1_8  and  N1_6 
REMARK       I    between atoms: C9_16  and  N1_6 
REMARK    2  A    between atoms: C19_26  and  N2_7 
REMARK    3  A    between atoms: C1_8  and  C2_9 
REMARK    4  A    between atoms: C10_17  and  C9_16 
ROOT
HETATM    1  O1  UNK     1      18.041  10.302   8.908  1.00  0.00    -0.274 OA
HETATM    2  O3  UNK     1      17.626   8.374  10.062  1.00  0.00    -0.259 OA
HETATM    3  C10 UNK     1      15.739   9.547   9.238  1.00  0.00     0.108 A 
HETATM    4  C11 UNK     1      16.183  11.591   8.015  1.00  0.00     0.001 A 
HETATM    5  C13 UNK     1      15.267  10.603   8.566  1.00  0.00     0.037 A 
HETATM    6  C14 UNK     1      17.551  11.417   8.200  1.00  0.00     0.089 A 
HETATM    7  C16 UNK     1      17.190   9.341   9.446  1.00  0.00     0.304 A 
HETATM    8  C17 UNK     1      15.735  12.710   7.308  1.00  0.00     0.050 A 
HETATM    9  C18 UNK     1      18.480  12.326   7.698  1.00  0.00     0.041 A 
HETATM   10  C19 UNK     1      16.656  13.629   6.799  1.00  0.00     0.103 A 
HETATM   11  C20 UNK     1      18.025  13.438   6.994  1.00  0.00     0.039 A 
ENDROOT
BRANCH   3  12
HETATM   12  C9  UNK     1      14.736   8.607   9.754  1.00  0.00     0.258 C 
HETATM   13  O2  UNK     1      13.945   8.947  10.630  1.00  0.00    -0.267 OA
HETATM   14  N1  UNK     1      14.806   7.363   9.154  1.00  0.00    -0.348 N 
HETATM   15  H3  UNK     1      15.544   7.174   8.482  1.00  0.00     0.163 HD
BRANCH  14  16
HETATM   16  C1  UNK     1      13.924   6.271   9.498  1.00  0.00     0.114 C 
HETATM   17  C5  UNK     1      14.697   4.953   9.503  1.00  0.00     0.037 C 
BRANCH  16  18
HETATM   18  C2  UNK     1      12.712   6.230   8.592  1.00  0.00    -0.035 A 
HETATM   19  C3  UNK     1      11.466   5.990   9.144  1.00  0.00     0.016 A 
HETATM   20  C4  UNK     1      10.349   5.952   8.310  1.00  0.00    -0.056 A 
HETATM   21  C12 UNK     1       9.005   5.693   8.908  1.00  0.00     0.049 C 
HETATM   22  C7  UNK     1      10.496   6.156   6.938  1.00  0.00    -0.056 A 
HETATM   23  C15 UNK     1       9.314   6.121   6.025  1.00  0.00     0.049 C 
HETATM   24  C8  UNK     1      11.760   6.396   6.400  1.00  0.00     0.008 A 
HETATM   25  C6  UNK     1      12.877   6.433   7.234  1.00  0.00     0.010 A 
ENDBRANCH  16  18
ENDBRANCH  14  16
ENDBRANCH   3  12
BRANCH  10  26
HETATM   26  N2  UNK     1      16.197  14.766   6.080  1.00  0.00    -0.116 N 
HETATM   27  O4  UNK     1      17.004  15.389   5.349  1.00  0.00    -0.532 OA
HETATM   28  O5  UNK     1      14.998  15.115   6.197  1.00  0.00    -0.532 OA
ENDBRANCH  10  26
TORSDOF 4
ENDMDL
MODEL 10
REMARK VINA RESULT:      -9.0     10.085     12.904
REMARK  4 active torsions:
REMARK  status: ('A' for Active; 'I' for Inactive)
REMARK    1  A    between atoms: C1_8  and  N1_6 
REMARK       I    between atoms: C9_16  and  N1_6 
REMARK    2  A    between atoms: C19_26  and  N2_7 
REMARK    3  A    between atoms: C1_8  and  C2_9 
REMARK    4  A    between atoms: C10_17  and  C9_16 
ROOT
HETATM    1  O1  UNK     1      30.749  -5.132  37.340  1.00  0.00    -0.274 OA
HETATM    2  O3  UNK     1      32.277  -4.497  35.764  1.00  0.00    -0.259 OA
HETATM    3  C10 UNK     1      30.514  -5.900  35.030  1.00  0.00     0.108 A 
HETATM    4  C11 UNK     1      28.895  -6.572  36.703  1.00  0.00     0.001 A 
HETATM    5  C13 UNK     1      29.404  -6.580  35.340  1.00  0.00     0.037 A 
HETATM    6  C14 UNK     1      29.581  -5.847  37.673  1.00  0.00     0.089 A 
HETATM    7  C16 UNK     1      31.259  -5.121  36.045  1.00  0.00     0.304 A 
HETATM    8  C17 UNK     1      27.742  -7.268  37.072  1.00  0.00     0.050 A 
HETATM    9  C18 UNK     1      29.147  -5.799  38.996  1.00  0.00     0.041 A 
HETATM   10  C19 UNK     1      27.294  -7.228  38.395  1.00  0.00     0.103 A 
HETATM   11  C20 UNK     1      27.996  -6.495  39.355  1.00  0.00     0.039 A 
ENDROOT
BRANCH   3  12
HETATM   12  C9  UNK     1      30.947  -5.970  33.629  1.00  0.00     0.258 C 
HETATM   13  O2  UNK     1      32.004  -6.514  33.322  1.00  0.00    -0.267 OA
HETATM   14  N1  UNK     1      30.052  -5.373  32.759  1.00  0.00    -0.348 N 
HETATM   15  H3  UNK     1      29.236  -4.897  33.133  1.00  0.00     0.163 HD
BRANCH  14  16
HETATM   16  C1  UNK     1      30.262  -5.313  31.330  1.00  0.00     0.114 C 
HETATM   17  C5  UNK     1      29.767  -3.976  30.782  1.00  0.00     0.037 C 
BRANCH  16  18
HETATM   18  C2  UNK     1      29.634  -6.498  30.628  1.00  0.00    -0.035 A 
HETATM   19  C3  UNK     1      30.401  -7.249  29.755  1.00  0.00     0.016 A 
HETATM   20  C4  UNK     1      29.823  -8.341  29.107  1.00  0.00    -0.056 A 
HETATM   21  C12 UNK     1      30.653  -9.150  28.166  1.00  0.00     0.049 C 
HETATM   22  C7  UNK     1      28.486  -8.663  29.343  1.00  0.00    -0.056 A 
HETATM   23  C15 UNK     1      27.844  -9.827  28.662  1.00  0.00     0.049 C 
HETATM   24  C8  UNK     1      27.728  -7.893  30.225  1.00  0.00     0.008 A 
HETATM   25  C6  UNK     1      28.307  -6.802  30.873  1.00  0.00     0.010 A 
ENDBRANCH  16  18
ENDBRANCH  14  16
ENDBRANCH   3  12
BRANCH  10  26
HETATM   26  N2  UNK     1      26.121  -7.937  38.767  1.00  0.00    -0.116 N 
HETATM   27  O4  UNK     1      26.229  -8.951  39.498  1.00  0.00    -0.532 OA
HETATM   28  O5  UNK     1      25.008  -7.530  38.353  1.00  0.00    -0.532 OA
ENDBRANCH  10  26
TORSDOF 4
ENDMDL
