MODEL 1
REMARK VINA RESULT:      -8.5      0.000      0.000
REMARK  2 active torsions:
REMARK  status: ('A' for Active; 'I' for Inactive)
REMARK    1  A    between atoms: C11_17  and  N1_5 
REMARK       I    between atoms: C8_14  and  N1_5 
REMARK    2  A    between atoms: C3_9  and  C8_14 
ROOT
HETATM    1  O1  UNK     1      19.407   7.164  32.375  1.00  0.00    -0.274 OA
HETATM    2  O2  UNK     1      20.424   5.474  31.220  1.00  0.00    -0.259 OA
HETATM    3  C1  UNK     1      17.202   6.805  33.332  1.00  0.00    -0.001 A 
HETATM    4  C2  UNK     1      18.297   7.632  33.105  1.00  0.00     0.089 A 
HETATM    5  C3  UNK     1      18.276   5.011  32.109  1.00  0.00     0.108 A 
HETATM    6  C4  UNK     1      17.220   5.450  32.802  1.00  0.00     0.037 A 
HETATM    7  C5  UNK     1      16.120   7.305  34.062  1.00  0.00     0.014 A 
HETATM    8  C6  UNK     1      19.454   5.873  31.855  1.00  0.00     0.304 A 
HETATM    9  C7  UNK     1      18.343   8.939  33.585  1.00  0.00     0.038 A 
HETATM   10  C9  UNK     1      16.151   8.614  34.550  1.00  0.00     0.001 A 
HETATM   11  C10 UNK     1      17.260   9.429  34.312  1.00  0.00     0.003 A 
ENDROOT
BRANCH   5  12
HETATM   12  C8  UNK     1      18.201   3.631  31.615  1.00  0.00     0.263 C 
HETATM   13  O3  UNK     1      17.803   2.738  32.360  1.00  0.00    -0.267 OA
HETATM   14  N1  UNK     1      18.618   3.523  30.296  1.00  0.00    -0.305 N 
HETATM   15  H6  UNK     1      18.943   4.350  29.800  1.00  0.00     0.170 HD
BRANCH  14  16
HETATM   16  C11 UNK     1      18.679   2.352  29.501  1.00  0.00     0.159 A 
HETATM   17  N2  UNK     1      17.999   2.239  28.379  1.00  0.00    -0.111 NA
HETATM   18  O4  UNK     1      18.330   0.969  27.921  1.00  0.00    -0.224 OA
HETATM   19  C13 UNK     1      19.192   0.389  28.795  1.00  0.00     0.174 A 
HETATM   20  C12 UNK     1      19.446   1.247  29.832  1.00  0.00     0.079 A 
ENDBRANCH  14  16
ENDBRANCH   5  12
TORSDOF 2
ENDMDL
MODEL 2
REMARK VINA RESULT:      -8.3      1.933      7.207
REMARK  2 active torsions:
REMARK  status: ('A' for Active; 'I' for Inactive)
REMARK    1  A    between atoms: C11_17  and  N1_5 
REMARK       I    between atoms: C8_14  and  N1_5 
REMARK    2  A    between atoms: C3_9  and  C8_14 
ROOT
HETATM    1  O1  UNK     1      19.048   1.490  28.709  1.00  0.00    -0.274 OA
HETATM    2  O2  UNK     1      18.220   3.616  28.829  1.00  0.00    -0.259 OA
HETATM    3  C1  UNK     1      19.539   0.275  30.757  1.00  0.00    -0.001 A 
HETATM    4  C2  UNK     1      19.507   0.332  29.367  1.00  0.00     0.089 A 
HETATM    5  C3  UNK     1      18.661   2.529  30.889  1.00  0.00     0.108 A 
HETATM    6  C4  UNK     1      19.095   1.432  31.519  1.00  0.00     0.037 A 
HETATM    7  C5  UNK     1      20.000  -0.891  31.372  1.00  0.00     0.014 A 
HETATM    8  C6  UNK     1      18.617   2.612  29.411  1.00  0.00     0.304 A 
HETATM    9  C7  UNK     1      19.918  -0.741  28.578  1.00  0.00     0.038 A 
HETATM   10  C9  UNK     1      20.417  -1.975  30.596  1.00  0.00     0.001 A 
HETATM   11  C10 UNK     1      20.376  -1.900  29.201  1.00  0.00     0.003 A 
ENDROOT
BRANCH   5  12
HETATM   12  C8  UNK     1      18.234   3.643  31.744  1.00  0.00     0.263 C 
HETATM   13  O3  UNK     1      17.621   3.413  32.784  1.00  0.00    -0.267 OA
HETATM   14  N1  UNK     1      18.604   4.875  31.223  1.00  0.00    -0.305 N 
HETATM   15  H6  UNK     1      19.096   4.920  30.334  1.00  0.00     0.170 HD
BRANCH  14  16
HETATM   16  C11 UNK     1      18.359   6.156  31.776  1.00  0.00     0.159 A 
HETATM   17  N2  UNK     1      17.442   6.962  31.282  1.00  0.00    -0.111 NA
HETATM   18  O4  UNK     1      17.522   8.087  32.093  1.00  0.00    -0.224 OA
HETATM   19  C13 UNK     1      18.485   7.895  33.032  1.00  0.00     0.174 A 
HETATM   20  C12 UNK     1      19.053   6.660  32.864  1.00  0.00     0.079 A 
ENDBRANCH  14  16
ENDBRANCH   5  12
TORSDOF 2
ENDMDL
MODEL 3
REMARK VINA RESULT:      -8.2      8.655      9.795
REMARK  2 active torsions:
REMARK  status: ('A' for Active; 'I' for Inactive)
REMARK    1  A    between atoms: C11_17  and  N1_5 
REMARK       I    between atoms: C8_14  and  N1_5 
REMARK    2  A    between atoms: C3_9  and  C8_14 
ROOT
HETATM    1  O1  UNK     1      19.575  -0.932  34.802  1.00  0.00    -0.274 OA
HETATM    2  O2  UNK     1      20.613  -2.861  34.151  1.00  0.00    -0.259 OA
HETATM    3  C1  UNK     1      18.464  -0.836  36.961  1.00  0.00    -0.001 A 
HETATM    4  C2  UNK     1      18.832  -0.225  35.767  1.00  0.00     0.089 A 
HETATM    5  C3  UNK     1      19.563  -2.883  36.276  1.00  0.00     0.108 A 
HETATM    6  C4  UNK     1      18.857  -2.216  37.196  1.00  0.00     0.037 A 
HETATM    7  C5  UNK     1      17.728  -0.102  37.894  1.00  0.00     0.014 A 
HETATM    8  C6  UNK     1      19.967  -2.253  34.997  1.00  0.00     0.304 A 
HETATM    9  C7  UNK     1      18.487   1.094  35.480  1.00  0.00     0.038 A 
HETATM   10  C9  UNK     1      17.373   1.222  37.621  1.00  0.00     0.001 A 
HETATM   11  C10 UNK     1      17.752   1.819  36.415  1.00  0.00     0.003 A 
ENDROOT
BRANCH   5  12
HETATM   12  C8  UNK     1      19.912  -4.270  36.605  1.00  0.00     0.263 C 
HETATM   13  O3  UNK     1      21.071  -4.553  36.901  1.00  0.00    -0.267 OA
HETATM   14  N1  UNK     1      18.817  -5.119  36.526  1.00  0.00    -0.305 N 
HETATM   15  H6  UNK     1      17.912  -4.749  36.247  1.00  0.00     0.170 HD
BRANCH  14  16
HETATM   16  C11 UNK     1      18.784  -6.513  36.774  1.00  0.00     0.159 A 
HETATM   17  N2  UNK     1      18.522  -7.382  35.820  1.00  0.00    -0.111 NA
HETATM   18  O4  UNK     1      18.587  -8.610  36.466  1.00  0.00    -0.224 OA
HETATM   19  C13 UNK     1      18.885  -8.411  37.776  1.00  0.00     0.174 A 
HETATM   20  C12 UNK     1      19.021  -7.070  38.020  1.00  0.00     0.079 A 
ENDBRANCH  14  16
ENDBRANCH   5  12
TORSDOF 2
ENDMDL
MODEL 4
REMARK VINA RESULT:      -8.1     14.311     16.926
REMARK  2 active torsions:
REMARK  status: ('A' for Active; 'I' for Inactive)
REMARK    1  A    between atoms: C11_17  and  N1_5 
REMARK       I    between atoms: C8_14  and  N1_5 
REMARK    2  A    between atoms: C3_9  and  C8_14 
ROOT
HETATM    1  O1  UNK     1      19.328   1.192  15.626  1.00  0.00    -0.274 OA
HETATM    2  O2  UNK     1      19.466  -0.307  13.907  1.00  0.00    -0.259 OA
HETATM    3  C1  UNK     1      18.900   0.395  17.882  1.00  0.00    -0.001 A 
HETATM    4  C2  UNK     1      19.132   1.444  16.998  1.00  0.00     0.089 A 
HETATM    5  C3  UNK     1      19.046  -1.198  16.063  1.00  0.00     0.108 A 
HETATM    6  C4  UNK     1      18.860  -0.965  17.367  1.00  0.00     0.037 A 
HETATM    7  C5  UNK     1      18.712   0.685  19.236  1.00  0.00     0.014 A 
HETATM    8  C6  UNK     1      19.296  -0.098  15.103  1.00  0.00     0.304 A 
HETATM    9  C7  UNK     1      19.182   2.768  17.426  1.00  0.00     0.038 A 
HETATM   10  C9  UNK     1      18.758   2.008  19.681  1.00  0.00     0.001 A 
HETATM   11  C10 UNK     1      18.993   3.048  18.778  1.00  0.00     0.003 A 
ENDROOT
BRANCH   5  12
HETATM   12  C8  UNK     1      18.988  -2.602  15.639  1.00  0.00     0.263 C 
HETATM   13  O3  UNK     1      17.923  -3.212  15.696  1.00  0.00    -0.267 OA
HETATM   14  N1  UNK     1      20.222  -3.072  15.212  1.00  0.00    -0.305 N 
HETATM   15  H6  UNK     1      21.032  -2.457  15.237  1.00  0.00     0.170 HD
BRANCH  14  16
HETATM   16  C11 UNK     1      20.536  -4.369  14.737  1.00  0.00     0.159 A 
HETATM   17  N2  UNK     1      20.677  -4.623  13.453  1.00  0.00    -0.111 NA
HETATM   18  O4  UNK     1      20.976  -5.980  13.417  1.00  0.00    -0.224 OA
HETATM   19  C13 UNK     1      20.998  -6.467  14.684  1.00  0.00     0.174 A 
HETATM   20  C12 UNK     1      20.719  -5.461  15.571  1.00  0.00     0.079 A 
ENDBRANCH  14  16
ENDBRANCH   5  12
TORSDOF 2
ENDMDL
MODEL 5
REMARK VINA RESULT:      -8.1      2.186      7.271
REMARK  2 active torsions:
REMARK  status: ('A' for Active; 'I' for Inactive)
REMARK    1  A    between atoms: C11_17  and  N1_5 
REMARK       I    between atoms: C8_14  and  N1_5 
REMARK    2  A    between atoms: C3_9  and  C8_14 
ROOT
HETATM    1  O1  UNK     1      18.738   0.542  32.611  1.00  0.00    -0.274 OA
HETATM    2  O2  UNK     1      17.903   2.469  33.514  1.00  0.00    -0.259 OA
HETATM    3  C1  UNK     1      19.578   0.551  30.331  1.00  0.00    -0.001 A 
HETATM    4  C2  UNK     1      19.316  -0.128  31.516  1.00  0.00     0.089 A 
HETATM    5  C3  UNK     1      18.695   2.595  31.283  1.00  0.00     0.108 A 
HETATM    6  C4  UNK     1      19.244   1.964  30.240  1.00  0.00     0.037 A 
HETATM    7  C5  UNK     1      20.153  -0.149  29.267  1.00  0.00     0.014 A 
HETATM    8  C6  UNK     1      18.407   1.893  32.555  1.00  0.00     0.304 A 
HETATM    9  C7  UNK     1      19.612  -1.481  31.669  1.00  0.00     0.038 A 
HETATM   10  C9  UNK     1      20.455  -1.506  29.404  1.00  0.00     0.001 A 
HETATM   11  C10 UNK     1      20.185  -2.171  30.603  1.00  0.00     0.003 A 
ENDROOT
BRANCH   5  12
HETATM   12  C8  UNK     1      18.393   4.020  31.095  1.00  0.00     0.263 C 
HETATM   13  O3  UNK     1      18.743   4.585  30.061  1.00  0.00    -0.267 OA
HETATM   14  N1  UNK     1      17.717   4.560  32.179  1.00  0.00    -0.305 N 
HETATM   15  H6  UNK     1      17.506   3.976  32.985  1.00  0.00     0.170 HD
BRANCH  14  16
HETATM   16  C11 UNK     1      17.270   5.894  32.342  1.00  0.00     0.159 A 
HETATM   17  N2  UNK     1      15.994   6.211  32.280  1.00  0.00    -0.111 NA
HETATM   18  O4  UNK     1      15.986   7.585  32.487  1.00  0.00    -0.224 OA
HETATM   19  C13 UNK     1      17.260   8.019  32.663  1.00  0.00     0.174 A 
HETATM   20  C12 UNK     1      18.124   6.959  32.577  1.00  0.00     0.079 A 
ENDBRANCH  14  16
ENDBRANCH   5  12
TORSDOF 2
ENDMDL
MODEL 6
REMARK VINA RESULT:      -8.1      3.310      6.495
REMARK  2 active torsions:
REMARK  status: ('A' for Active; 'I' for Inactive)
REMARK    1  A    between atoms: C11_17  and  N1_5 
REMARK       I    between atoms: C8_14  and  N1_5 
REMARK    2  A    between atoms: C3_9  and  C8_14 
ROOT
HETATM    1  O1  UNK     1      18.335   1.423  32.247  1.00  0.00    -0.274 OA
HETATM    2  O2  UNK     1      18.131   3.237  30.871  1.00  0.00    -0.259 OA
HETATM    3  C1  UNK     1      18.417   1.747  34.654  1.00  0.00    -0.001 A 
HETATM    4  C2  UNK     1      18.435   0.900  33.551  1.00  0.00     0.089 A 
HETATM    5  C3  UNK     1      18.201   3.672  33.200  1.00  0.00     0.108 A 
HETATM    6  C4  UNK     1      18.295   3.181  34.440  1.00  0.00     0.037 A 
HETATM    7  C5  UNK     1      18.519   1.190  35.932  1.00  0.00     0.014 A 
HETATM    8  C6  UNK     1      18.217   2.790  32.010  1.00  0.00     0.304 A 
HETATM    9  C7  UNK     1      18.550  -0.481  33.687  1.00  0.00     0.038 A 
HETATM   10  C9  UNK     1      18.635  -0.194  36.085  1.00  0.00     0.001 A 
HETATM   11  C10 UNK     1      18.651  -1.028  34.964  1.00  0.00     0.003 A 
ENDROOT
BRANCH   5  12
HETATM   12  C8  UNK     1      18.081   5.130  33.086  1.00  0.00     0.263 C 
HETATM   13  O3  UNK     1      18.939   5.853  33.588  1.00  0.00    -0.267 OA
HETATM   14  N1  UNK     1      16.943   5.510  32.387  1.00  0.00    -0.305 N 
HETATM   15  H6  UNK     1      16.304   4.799  32.041  1.00  0.00     0.170 HD
BRANCH  14  16
HETATM   16  C11 UNK     1      16.511   6.825  32.089  1.00  0.00     0.159 A 
HETATM   17  N2  UNK     1      16.825   7.420  30.957  1.00  0.00    -0.111 NA
HETATM   18  O4  UNK     1      16.218   8.665  31.060  1.00  0.00    -0.224 OA
HETATM   19  C13 UNK     1      15.570   8.751  32.250  1.00  0.00     0.174 A 
HETATM   20  C12 UNK     1      15.732   7.583  32.949  1.00  0.00     0.079 A 
ENDBRANCH  14  16
ENDBRANCH   5  12
TORSDOF 2
ENDMDL
MODEL 7
REMARK VINA RESULT:      -7.9      1.924      2.692
REMARK  2 active torsions:
REMARK  status: ('A' for Active; 'I' for Inactive)
REMARK    1  A    between atoms: C11_17  and  N1_5 
REMARK       I    between atoms: C8_14  and  N1_5 
REMARK    2  A    between atoms: C3_9  and  C8_14 
ROOT
HETATM    1  O1  UNK     1      18.063   4.009  33.921  1.00  0.00    -0.274 OA
HETATM    2  O2  UNK     1      18.135   1.786  33.399  1.00  0.00    -0.259 OA
HETATM    3  C1  UNK     1      18.140   5.664  32.142  1.00  0.00    -0.001 A 
HETATM    4  C2  UNK     1      18.066   5.352  33.496  1.00  0.00     0.089 A 
HETATM    5  C3  UNK     1      18.216   3.308  31.584  1.00  0.00     0.108 A 
HETATM    6  C4  UNK     1      18.218   4.581  31.174  1.00  0.00     0.037 A 
HETATM    7  C5  UNK     1      18.139   7.007  31.759  1.00  0.00     0.014 A 
HETATM    8  C6  UNK     1      18.137   2.952  33.019  1.00  0.00     0.304 A 
HETATM    9  C7  UNK     1      17.989   6.341  34.474  1.00  0.00     0.038 A 
HETATM   10  C9  UNK     1      18.064   8.011  32.728  1.00  0.00     0.001 A 
HETATM   11  C10 UNK     1      17.989   7.678  34.084  1.00  0.00     0.003 A 
ENDROOT
BRANCH   5  12
HETATM   12  C8  UNK     1      18.298   2.287  30.532  1.00  0.00     0.263 C 
HETATM   13  O3  UNK     1      17.414   2.217  29.681  1.00  0.00    -0.267 OA
HETATM   14  N1  UNK     1      19.430   1.495  30.658  1.00  0.00    -0.305 N 
HETATM   15  H6  UNK     1      20.073   1.653  31.429  1.00  0.00     0.170 HD
BRANCH  14  16
HETATM   16  C11 UNK     1      19.830   0.419  29.827  1.00  0.00     0.159 A 
HETATM   17  N2  UNK     1      19.561   0.401  28.538  1.00  0.00    -0.111 NA
HETATM   18  O4  UNK     1      20.113  -0.798  28.105  1.00  0.00    -0.224 OA
HETATM   19  C13 UNK     1      20.685  -1.435  29.158  1.00  0.00     0.174 A 
HETATM   20  C12 UNK     1      20.526  -0.685  30.293  1.00  0.00     0.079 A 
ENDBRANCH  14  16
ENDBRANCH   5  12
TORSDOF 2
ENDMDL
MODEL 8
REMARK VINA RESULT:      -7.9     10.573     13.534
REMARK  2 active torsions:
REMARK  status: ('A' for Active; 'I' for Inactive)
REMARK    1  A    between atoms: C11_17  and  N1_5 
REMARK       I    between atoms: C8_14  and  N1_5 
REMARK    2  A    between atoms: C3_9  and  C8_14 
ROOT
HETATM    1  O1  UNK     1      20.012  -8.054  35.684  1.00  0.00    -0.274 OA
HETATM    2  O2  UNK     1      20.307  -6.126  34.492  1.00  0.00    -0.259 OA
HETATM    3  C1  UNK     1      19.921  -7.962  38.111  1.00  0.00    -0.001 A 
HETATM    4  C2  UNK     1      19.879  -8.696  36.930  1.00  0.00     0.089 A 
HETATM    5  C3  UNK     1      20.233  -5.917  36.852  1.00  0.00     0.108 A 
HETATM    6  C4  UNK     1      20.107  -6.521  38.038  1.00  0.00     0.037 A 
HETATM    7  C5  UNK     1      19.784  -8.635  39.327  1.00  0.00     0.014 A 
HETATM    8  C6  UNK     1      20.191  -6.677  35.581  1.00  0.00     0.304 A 
HETATM    9  C7  UNK     1      19.704 -10.078  36.930  1.00  0.00     0.038 A 
HETATM   10  C9  UNK     1      19.608 -10.021  39.344  1.00  0.00     0.001 A 
HETATM   11  C10 UNK     1      19.568 -10.742  38.147  1.00  0.00     0.003 A 
ENDROOT
BRANCH   5  12
HETATM   12  C8  UNK     1      20.416  -4.460  36.881  1.00  0.00     0.263 C 
HETATM   13  O3  UNK     1      21.428  -3.984  37.392  1.00  0.00    -0.267 OA
HETATM   14  N1  UNK     1      19.354  -3.787  36.295  1.00  0.00    -0.305 N 
HETATM   15  H6  UNK     1      18.566  -4.312  35.926  1.00  0.00     0.170 HD
BRANCH  14  16
HETATM   16  C11 UNK     1      19.194  -2.387  36.148  1.00  0.00     0.159 A 
HETATM   17  N2  UNK     1      19.990  -1.674  35.379  1.00  0.00    -0.111 NA
HETATM   18  O4  UNK     1      19.502  -0.380  35.511  1.00  0.00    -0.224 OA
HETATM   19  C13 UNK     1      18.437  -0.386  36.353  1.00  0.00     0.174 A 
HETATM   20  C12 UNK     1      18.202  -1.663  36.790  1.00  0.00     0.079 A 
ENDBRANCH  14  16
ENDBRANCH   5  12
TORSDOF 2
ENDMDL
MODEL 9
REMARK VINA RESULT:      -7.9      1.779      2.502
REMARK  2 active torsions:
REMARK  status: ('A' for Active; 'I' for Inactive)
REMARK    1  A    between atoms: C11_17  and  N1_5 
REMARK       I    between atoms: C8_14  and  N1_5 
REMARK    2  A    between atoms: C3_9  and  C8_14 
ROOT
HETATM    1  O1  UNK     1      16.891   7.945  32.902  1.00  0.00    -0.274 OA
HETATM    2  O2  UNK     1      15.814   6.088  32.117  1.00  0.00    -0.259 OA
HETATM    3  C1  UNK     1      19.184   7.759  33.688  1.00  0.00    -0.001 A 
HETATM    4  C2  UNK     1      18.051   8.530  33.446  1.00  0.00     0.089 A 
HETATM    5  C3  UNK     1      18.046   5.789  32.856  1.00  0.00     0.108 A 
HETATM    6  C4  UNK     1      19.150   6.340  33.372  1.00  0.00     0.037 A 
HETATM    7  C5  UNK     1      20.315   8.377  34.227  1.00  0.00     0.014 A 
HETATM    8  C6  UNK     1      16.828   6.589  32.589  1.00  0.00     0.304 A 
HETATM    9  C7  UNK     1      18.017   9.894  33.726  1.00  0.00     0.038 A 
HETATM   10  C9  UNK     1      20.297   9.744  34.514  1.00  0.00     0.001 A 
HETATM   11  C10 UNK     1      19.149  10.501  34.264  1.00  0.00     0.003 A 
ENDROOT
BRANCH   5  12
HETATM   12  C8  UNK     1      18.110   4.351  32.571  1.00  0.00     0.263 C 
HETATM   13  O3  UNK     1      18.021   3.543  33.493  1.00  0.00    -0.267 OA
HETATM   14  N1  UNK     1      18.274   4.092  31.218  1.00  0.00    -0.305 N 
HETATM   15  H6  UNK     1      18.352   4.865  30.562  1.00  0.00     0.170 HD
BRANCH  14  16
HETATM   16  C11 UNK     1      18.375   2.828  30.585  1.00  0.00     0.159 A 
HETATM   17  N2  UNK     1      18.615   1.728  31.268  1.00  0.00    -0.111 NA
HETATM   18  O4  UNK     1      18.635   0.736  30.295  1.00  0.00    -0.224 OA
HETATM   19  C13 UNK     1      18.406   1.295  29.079  1.00  0.00     0.174 A 
HETATM   20  C12 UNK     1      18.232   2.647  29.219  1.00  0.00     0.079 A 
ENDBRANCH  14  16
ENDBRANCH   5  12
TORSDOF 2
ENDMDL
MODEL 10
REMARK VINA RESULT:      -7.9      4.949      8.087
REMARK  2 active torsions:
REMARK  status: ('A' for Active; 'I' for Inactive)
REMARK    1  A    between atoms: C11_17  and  N1_5 
REMARK       I    between atoms: C8_14  and  N1_5 
REMARK    2  A    between atoms: C3_9  and  C8_14 
ROOT
HETATM    1  O1  UNK     1      19.041   1.579  30.758  1.00  0.00    -0.274 OA
HETATM    2  O2  UNK     1      17.885   2.861  32.256  1.00  0.00    -0.259 OA
HETATM    3  C1  UNK     1      19.569  -0.729  31.310  1.00  0.00    -0.001 A 
HETATM    4  C2  UNK     1      19.626   0.343  30.424  1.00  0.00     0.089 A 
HETATM    5  C3  UNK     1      18.343   0.627  32.900  1.00  0.00     0.108 A 
HETATM    6  C4  UNK     1      18.897  -0.550  32.588  1.00  0.00     0.037 A 
HETATM    7  C5  UNK     1      20.161  -1.939  30.942  1.00  0.00     0.014 A 
HETATM    8  C6  UNK     1      18.391   1.781  31.973  1.00  0.00     0.304 A 
HETATM    9  C7  UNK     1      20.254   0.238  29.185  1.00  0.00     0.038 A 
HETATM   10  C9  UNK     1      20.795  -2.060  29.703  1.00  0.00     0.001 A 
HETATM   11  C10 UNK     1      20.842  -0.973  28.826  1.00  0.00     0.003 A 
ENDROOT
BRANCH   5  12
HETATM   12  C8  UNK     1      17.688   0.709  34.211  1.00  0.00     0.263 C 
HETATM   13  O3  UNK     1      16.477   0.904  34.276  1.00  0.00    -0.267 OA
HETATM   14  N1  UNK     1      18.587   0.547  35.257  1.00  0.00    -0.305 N 
HETATM   15  H6  UNK     1      19.575   0.410  35.056  1.00  0.00     0.170 HD
BRANCH  14  16
HETATM   16  C11 UNK     1      18.310   0.567  36.646  1.00  0.00     0.159 A 
HETATM   17  N2  UNK     1      18.292   1.690  37.333  1.00  0.00    -0.111 NA
HETATM   18  O4  UNK     1      17.988   1.279  38.625  1.00  0.00    -0.224 OA
HETATM   19  C13 UNK     1      17.840  -0.070  38.643  1.00  0.00     0.174 A 
HETATM   20  C12 UNK     1      18.039  -0.573  37.385  1.00  0.00     0.079 A 
ENDBRANCH  14  16
ENDBRANCH   5  12
TORSDOF 2
ENDMDL
