MODEL 1
REMARK VINA RESULT:      -8.0      0.000      0.000
REMARK  3 active torsions:
REMARK  status: ('A' for Active; 'I' for Inactive)
REMARK    1  A    between atoms: C5_10  and  N1_4 
REMARK    2  A    between atoms: C5_10  and  N2_5 
REMARK    3  A    between atoms: C6_11  and  N2_5 
ROOT
HETATM    1  O1  UNK     1      19.284  -0.269  32.798  1.00  0.00    -0.275 OA
HETATM    2  O2  UNK     1      20.118  -2.361  33.190  1.00  0.00    -0.260 OA
HETATM    3  C6  UNK     1      18.129   2.974  31.536  1.00  0.00     0.036 A 
HETATM    4  C7  UNK     1      19.364   0.645  30.534  1.00  0.00     0.004 A 
HETATM    5  C8  UNK     1      19.023   0.770  31.882  1.00  0.00     0.092 A 
HETATM    6  C9  UNK     1      18.411   1.915  32.393  1.00  0.00     0.067 A 
HETATM    7  C10 UNK     1      18.459   2.877  30.185  1.00  0.00     0.030 A 
HETATM    8  C11 UNK     1      19.071   1.722  29.687  1.00  0.00     0.017 A 
HETATM    9  C12 UNK     1      20.005  -0.597  30.082  1.00  0.00    -0.043 A 
HETATM   10  C13 UNK     1      20.241  -1.568  30.976  1.00  0.00     0.090 A 
HETATM   11  C14 UNK     1      20.384  -0.763  28.640  1.00  0.00     0.049 C 
HETATM   12  C15 UNK     1      19.887  -1.451  32.401  1.00  0.00     0.288 A 
ENDROOT
BRANCH   3  13
HETATM   13  N2  UNK     1      17.518   4.128  32.025  1.00  0.00    -0.333 N 
HETATM   14  H9  UNK     1      16.668   3.949  32.556  1.00  0.00     0.168 HD
BRANCH  13  15
HETATM   15  C5  UNK     1      17.918   5.454  32.029  1.00  0.00     0.174 C 
HETATM   16  S1  UNK     1      16.786   6.689  32.119  1.00  0.00    -0.041 SA
BRANCH  15  17
HETATM   17  N1  UNK     1      19.234   5.746  32.018  1.00  0.00    -0.358 N 
HETATM   18  C3  UNK     1      20.018   5.925  30.809  1.00  0.00     0.125 C 
HETATM   19  C1  UNK     1      21.459   5.935  31.298  1.00  0.00     0.021 C 
HETATM   20  C2  UNK     1      21.340   6.523  32.700  1.00  0.00     0.021 C 
HETATM   21  C4  UNK     1      20.039   5.921  33.213  1.00  0.00     0.125 C 
ENDBRANCH  15  17
ENDBRANCH  13  15
ENDBRANCH   3  13
TORSDOF 3
ENDMDL
MODEL 2
REMARK VINA RESULT:      -8.0      4.067      7.676
REMARK  3 active torsions:
REMARK  status: ('A' for Active; 'I' for Inactive)
REMARK    1  A    between atoms: C5_10  and  N1_4 
REMARK    2  A    between atoms: C5_10  and  N2_5 
REMARK    3  A    between atoms: C6_11  and  N2_5 
ROOT
HETATM    1  O1  UNK     1      16.466   8.450  33.274  1.00  0.00    -0.275 OA
HETATM    2  O2  UNK     1      15.867  10.556  33.933  1.00  0.00    -0.260 OA
HETATM    3  C6  UNK     1      18.043   5.256  32.408  1.00  0.00     0.036 A 
HETATM    4  C7  UNK     1      18.798   7.753  33.479  1.00  0.00     0.004 A 
HETATM    5  C8  UNK     1      17.478   7.482  33.117  1.00  0.00     0.092 A 
HETATM    6  C9  UNK     1      17.088   6.252  32.586  1.00  0.00     0.067 A 
HETATM    7  C10 UNK     1      19.370   5.499  32.760  1.00  0.00     0.030 A 
HETATM    8  C11 UNK     1      19.745   6.737  33.292  1.00  0.00     0.017 A 
HETATM    9  C12 UNK     1      19.119   9.076  34.031  1.00  0.00    -0.043 A 
HETATM   10  C13 UNK     1      18.137   9.977  34.169  1.00  0.00     0.090 A 
HETATM   11  C14 UNK     1      20.529   9.399  34.430  1.00  0.00     0.049 C 
HETATM   12  C15 UNK     1      16.739   9.706  33.792  1.00  0.00     0.288 A 
ENDROOT
BRANCH   3  13
HETATM   13  N2  UNK     1      17.675   4.019  31.879  1.00  0.00    -0.333 N 
HETATM   14  H9  UNK     1      16.964   4.078  31.153  1.00  0.00     0.168 HD
BRANCH  13  15
HETATM   15  C5  UNK     1      18.184   2.745  32.069  1.00  0.00     0.174 C 
HETATM   16  S1  UNK     1      18.253   2.071  33.603  1.00  0.00    -0.041 SA
BRANCH  15  17
HETATM   17  N1  UNK     1      18.574   2.024  30.998  1.00  0.00    -0.358 N 
HETATM   18  C3  UNK     1      19.297   0.768  31.082  1.00  0.00     0.125 C 
HETATM   19  C1  UNK     1      19.760   0.510  29.655  1.00  0.00     0.021 C 
HETATM   20  C2  UNK     1      18.667   1.164  28.817  1.00  0.00     0.021 C 
HETATM   21  C4  UNK     1      18.319   2.409  29.621  1.00  0.00     0.125 C 
ENDBRANCH  15  17
ENDBRANCH  13  15
ENDBRANCH   3  13
TORSDOF 3
ENDMDL
MODEL 3
REMARK VINA RESULT:      -7.8      1.593      2.470
REMARK  3 active torsions:
REMARK  status: ('A' for Active; 'I' for Inactive)
REMARK    1  A    between atoms: C5_10  and  N1_4 
REMARK    2  A    between atoms: C5_10  and  N2_5 
REMARK    3  A    between atoms: C6_11  and  N2_5 
ROOT
HETATM    1  O1  UNK     1      19.275  -0.185  32.810  1.00  0.00    -0.275 OA
HETATM    2  O2  UNK     1      20.091  -2.249  33.361  1.00  0.00    -0.260 OA
HETATM    3  C6  UNK     1      18.168   2.969  31.305  1.00  0.00     0.036 A 
HETATM    4  C7  UNK     1      19.422   0.577  30.494  1.00  0.00     0.004 A 
HETATM    5  C8  UNK     1      19.044   0.791  31.820  1.00  0.00     0.092 A 
HETATM    6  C9  UNK     1      18.422   1.969  32.238  1.00  0.00     0.067 A 
HETATM    7  C10 UNK     1      18.535   2.784  29.974  1.00  0.00     0.030 A 
HETATM    8  C11 UNK     1      19.156   1.597  29.570  1.00  0.00     0.017 A 
HETATM    9  C12 UNK     1      20.071  -0.693  30.143  1.00  0.00    -0.043 A 
HETATM   10  C13 UNK     1      20.278  -1.603  31.105  1.00  0.00     0.090 A 
HETATM   11  C14 UNK     1      20.490  -0.954  28.726  1.00  0.00     0.049 C 
HETATM   12  C15 UNK     1      19.885  -1.393  32.508  1.00  0.00     0.288 A 
ENDROOT
BRANCH   3  13
HETATM   13  N2  UNK     1      17.548   4.154  31.701  1.00  0.00    -0.333 N 
HETATM   14  H9  UNK     1      16.538   4.074  31.809  1.00  0.00     0.168 HD
BRANCH  13  15
HETATM   15  C5  UNK     1      18.061   5.380  32.092  1.00  0.00     0.174 C 
HETATM   16  S1  UNK     1      19.588   5.865  31.595  1.00  0.00    -0.041 SA
BRANCH  15  17
HETATM   17  N1  UNK     1      17.298   6.208  32.832  1.00  0.00    -0.358 N 
HETATM   18  C3  UNK     1      17.631   6.636  34.179  1.00  0.00     0.125 C 
HETATM   19  C1  UNK     1      16.356   7.294  34.686  1.00  0.00     0.021 C 
HETATM   20  C2  UNK     1      15.730   7.855  33.414  1.00  0.00     0.021 C 
HETATM   21  C4  UNK     1      16.044   6.783  32.378  1.00  0.00     0.125 C 
ENDBRANCH  15  17
ENDBRANCH  13  15
ENDBRANCH   3  13
TORSDOF 3
ENDMDL
MODEL 4
REMARK VINA RESULT:      -7.8      1.526      2.289
REMARK  3 active torsions:
REMARK  status: ('A' for Active; 'I' for Inactive)
REMARK    1  A    between atoms: C5_10  and  N1_4 
REMARK    2  A    between atoms: C5_10  and  N2_5 
REMARK    3  A    between atoms: C6_11  and  N2_5 
ROOT
HETATM    1  O1  UNK     1      19.457   1.075  29.437  1.00  0.00    -0.275 OA
HETATM    2  O2  UNK     1      20.373  -0.564  28.131  1.00  0.00    -0.260 OA
HETATM    3  C6  UNK     1      18.033   3.249  32.022  1.00  0.00     0.036 A 
HETATM    4  C7  UNK     1      19.035   0.623  31.799  1.00  0.00     0.004 A 
HETATM    5  C8  UNK     1      18.995   1.485  30.703  1.00  0.00     0.092 A 
HETATM    6  C9  UNK     1      18.503   2.788  30.797  1.00  0.00     0.067 A 
HETATM    7  C10 UNK     1      18.059   2.410  33.134  1.00  0.00     0.030 A 
HETATM    8  C11 UNK     1      18.557   1.107  33.025  1.00  0.00     0.017 A 
HETATM    9  C12 UNK     1      19.570  -0.732  31.610  1.00  0.00    -0.043 A 
HETATM   10  C13 UNK     1      20.003  -1.095  30.395  1.00  0.00     0.090 A 
HETATM   11  C14 UNK     1      19.626  -1.684  32.769  1.00  0.00     0.049 C 
HETATM   12  C15 UNK     1      19.968  -0.196  29.228  1.00  0.00     0.288 A 
ENDROOT
BRANCH   3  13
HETATM   13  N2  UNK     1      17.536   4.548  32.137  1.00  0.00    -0.333 N 
HETATM   14  H9  UNK     1      16.633   4.602  32.604  1.00  0.00     0.168 HD
BRANCH  13  15
HETATM   15  C5  UNK     1      18.097   5.781  31.848  1.00  0.00     0.174 C 
HETATM   16  S1  UNK     1      17.125   7.104  31.507  1.00  0.00    -0.041 SA
BRANCH  15  17
HETATM   17  N1  UNK     1      19.437   5.923  31.898  1.00  0.00    -0.358 N 
HETATM   18  C3  UNK     1      20.303   5.898  30.732  1.00  0.00     0.125 C 
HETATM   19  C1  UNK     1      21.705   5.795  31.314  1.00  0.00     0.021 C 
HETATM   20  C2  UNK     1      21.578   6.525  32.647  1.00  0.00     0.021 C 
HETATM   21  C4  UNK     1      20.189   6.124  33.124  1.00  0.00     0.125 C 
ENDBRANCH  15  17
ENDBRANCH  13  15
ENDBRANCH   3  13
TORSDOF 3
ENDMDL
MODEL 5
REMARK VINA RESULT:      -7.5      8.178     10.487
REMARK  3 active torsions:
REMARK  status: ('A' for Active; 'I' for Inactive)
REMARK    1  A    between atoms: C5_10  and  N1_4 
REMARK    2  A    between atoms: C5_10  and  N2_5 
REMARK    3  A    between atoms: C6_11  and  N2_5 
ROOT
HETATM    1  O1  UNK     1      19.005  -9.302  38.244  1.00  0.00    -0.275 OA
HETATM    2  O2  UNK     1      19.097 -11.414  39.115  1.00  0.00    -0.260 OA
HETATM    3  C6  UNK     1      19.277  -6.154  36.385  1.00  0.00     0.036 A 
HETATM    4  C7  UNK     1      20.298  -8.778  36.240  1.00  0.00     0.004 A 
HETATM    5  C8  UNK     1      19.419  -8.391  37.252  1.00  0.00     0.092 A 
HETATM    6  C9  UNK     1      18.905  -7.096  37.338  1.00  0.00     0.067 A 
HETATM    7  C10 UNK     1      20.155  -6.512  35.364  1.00  0.00     0.030 A 
HETATM    8  C11 UNK     1      20.661  -7.814  35.290  1.00  0.00     0.017 A 
HETATM    9  C12 UNK     1      20.790 -10.163  36.226  1.00  0.00    -0.043 A 
HETATM   10  C13 UNK     1      20.379 -11.007  37.183  1.00  0.00     0.090 A 
HETATM   11  C14 UNK     1      21.737 -10.610  35.151  1.00  0.00     0.049 C 
HETATM   12  C15 UNK     1      19.451 -10.613  38.257  1.00  0.00     0.288 A 
ENDROOT
BRANCH   3  13
HETATM   13  N2  UNK     1      18.776  -4.854  36.452  1.00  0.00    -0.333 N 
HETATM   14  H9  UNK     1      17.762  -4.800  36.369  1.00  0.00     0.168 HD
BRANCH  13  15
HETATM   15  C5  UNK     1      19.384  -3.642  36.733  1.00  0.00     0.174 C 
HETATM   16  S1  UNK     1      20.851  -3.589  37.545  1.00  0.00    -0.041 SA
BRANCH  15  17
HETATM   17  N1  UNK     1      18.814  -2.501  36.298  1.00  0.00    -0.358 N 
HETATM   18  C3  UNK     1      17.600  -1.932  36.856  1.00  0.00     0.125 C 
HETATM   19  C1  UNK     1      17.205  -0.851  35.861  1.00  0.00     0.021 C 
HETATM   20  C2  UNK     1      18.548  -0.393  35.301  1.00  0.00     0.021 C 
HETATM   21  C4  UNK     1      19.340  -1.690  35.214  1.00  0.00     0.125 C 
ENDBRANCH  15  17
ENDBRANCH  13  15
ENDBRANCH   3  13
TORSDOF 3
ENDMDL
MODEL 6
REMARK VINA RESULT:      -7.5      7.127      9.467
REMARK  3 active torsions:
REMARK  status: ('A' for Active; 'I' for Inactive)
REMARK    1  A    between atoms: C5_10  and  N1_4 
REMARK    2  A    between atoms: C5_10  and  N2_5 
REMARK    3  A    between atoms: C6_11  and  N2_5 
ROOT
HETATM    1  O1  UNK     1      20.769  -8.015  35.019  1.00  0.00    -0.275 OA
HETATM    2  O2  UNK     1      21.602 -10.055  34.410  1.00  0.00    -0.260 OA
HETATM    3  C6  UNK     1      19.804  -4.826  36.548  1.00  0.00     0.036 A 
HETATM    4  C7  UNK     1      21.442  -7.039  37.155  1.00  0.00     0.004 A 
HETATM    5  C8  UNK     1      20.714  -6.973  35.966  1.00  0.00     0.092 A 
HETATM    6  C9  UNK     1      19.899  -5.885  35.651  1.00  0.00     0.067 A 
HETATM    7  C10 UNK     1      20.519  -4.865  37.743  1.00  0.00     0.030 A 
HETATM    8  C11 UNK     1      21.333  -5.962  38.045  1.00  0.00     0.017 A 
HETATM    9  C12 UNK     1      22.275  -8.223  37.405  1.00  0.00    -0.043 A 
HETATM   10  C13 UNK     1      22.309  -9.199  36.486  1.00  0.00     0.090 A 
HETATM   11  C14 UNK     1      23.071  -8.325  38.673  1.00  0.00     0.049 C 
HETATM   12  C15 UNK     1      21.546  -9.143  35.227  1.00  0.00     0.288 A 
ENDROOT
BRANCH   3  13
HETATM   13  N2  UNK     1      18.995  -3.728  36.253  1.00  0.00    -0.333 N 
HETATM   14  H9  UNK     1      18.033  -3.829  36.572  1.00  0.00     0.168 HD
BRANCH  13  15
HETATM   15  C5  UNK     1      19.286  -2.483  35.721  1.00  0.00     0.174 C 
HETATM   16  S1  UNK     1      20.285  -2.337  34.382  1.00  0.00    -0.041 SA
BRANCH  15  17
HETATM   17  N1  UNK     1      18.711  -1.387  36.255  1.00  0.00    -0.358 N 
HETATM   18  C3  UNK     1      18.624  -0.103  35.583  1.00  0.00     0.125 C 
HETATM   19  C1  UNK     1      18.181   0.859  36.675  1.00  0.00     0.021 C 
HETATM   20  C2  UNK     1      17.346  -0.026  37.594  1.00  0.00     0.021 C 
HETATM   21  C4  UNK     1      18.102  -1.348  37.573  1.00  0.00     0.125 C 
ENDBRANCH  15  17
ENDBRANCH  13  15
ENDBRANCH   3  13
TORSDOF 3
ENDMDL
MODEL 7
REMARK VINA RESULT:      -7.4      6.960     10.069
REMARK  3 active torsions:
REMARK  status: ('A' for Active; 'I' for Inactive)
REMARK    1  A    between atoms: C5_10  and  N1_4 
REMARK    2  A    between atoms: C5_10  and  N2_5 
REMARK    3  A    between atoms: C6_11  and  N2_5 
ROOT
HETATM    1  O1  UNK     1      19.091  -0.584  34.064  1.00  0.00    -0.275 OA
HETATM    2  O2  UNK     1      18.374   1.108  32.703  1.00  0.00    -0.260 OA
HETATM    3  C6  UNK     1      19.842  -3.014  36.705  1.00  0.00     0.036 A 
HETATM    4  C7  UNK     1      18.255  -0.709  36.356  1.00  0.00     0.004 A 
HETATM    5  C8  UNK     1      19.050  -1.211  35.325  1.00  0.00     0.092 A 
HETATM    6  C9  UNK     1      19.841  -2.351  35.482  1.00  0.00     0.067 A 
HETATM    7  C10 UNK     1      19.057  -2.534  37.752  1.00  0.00     0.030 A 
HETATM    8  C11 UNK     1      18.269  -1.391  37.580  1.00  0.00     0.017 A 
HETATM    9  C12 UNK     1      17.454   0.496  36.103  1.00  0.00    -0.043 A 
HETATM   10  C13 UNK     1      17.512   1.072  34.894  1.00  0.00     0.090 A 
HETATM   11  C14 UNK     1      16.588   1.062  37.190  1.00  0.00     0.049 C 
HETATM   12  C15 UNK     1      18.346   0.554  33.796  1.00  0.00     0.288 A 
ENDROOT
BRANCH   3  13
HETATM   13  N2  UNK     1      20.624  -4.154  36.883  1.00  0.00    -0.333 N 
HETATM   14  H9  UNK     1      21.549  -3.963  37.264  1.00  0.00     0.168 HD
BRANCH  13  15
HETATM   15  C5  UNK     1      20.335  -5.503  36.756  1.00  0.00     0.174 C 
HETATM   16  S1  UNK     1      19.805  -6.129  35.293  1.00  0.00    -0.041 SA
BRANCH  15  17
HETATM   17  N1  UNK     1      20.537  -6.323  37.806  1.00  0.00    -0.358 N 
HETATM   18  C3  UNK     1      19.621  -7.377  38.204  1.00  0.00     0.125 C 
HETATM   19  C1  UNK     1      20.121  -7.805  39.577  1.00  0.00     0.021 C 
HETATM   20  C2  UNK     1      21.621  -7.543  39.492  1.00  0.00     0.021 C 
HETATM   21  C4  UNK     1      21.698  -6.260  38.676  1.00  0.00     0.125 C 
ENDBRANCH  15  17
ENDBRANCH  13  15
ENDBRANCH   3  13
TORSDOF 3
ENDMDL
MODEL 8
REMARK VINA RESULT:      -7.3      3.599      6.158
REMARK  3 active torsions:
REMARK  status: ('A' for Active; 'I' for Inactive)
REMARK    1  A    between atoms: C5_10  and  N1_4 
REMARK    2  A    between atoms: C5_10  and  N2_5 
REMARK    3  A    between atoms: C6_11  and  N2_5 
ROOT
HETATM    1  O1  UNK     1      18.355   1.490  30.687  1.00  0.00    -0.275 OA
HETATM    2  O2  UNK     1      18.508   1.416  28.406  1.00  0.00    -0.260 OA
HETATM    3  C6  UNK     1      18.185   2.271  34.265  1.00  0.00     0.036 A 
HETATM    4  C7  UNK     1      18.507   3.646  31.824  1.00  0.00     0.004 A 
HETATM    5  C8  UNK     1      18.355   2.260  31.867  1.00  0.00     0.092 A 
HETATM    6  C9  UNK     1      18.194   1.564  33.067  1.00  0.00     0.067 A 
HETATM    7  C10 UNK     1      18.337   3.656  34.252  1.00  0.00     0.030 A 
HETATM    8  C11 UNK     1      18.495   4.340  33.043  1.00  0.00     0.017 A 
HETATM    9  C12 UNK     1      18.670   4.296  30.517  1.00  0.00    -0.043 A 
HETATM   10  C13 UNK     1      18.666   3.539  29.411  1.00  0.00     0.090 A 
HETATM   11  C14 UNK     1      18.837   5.786  30.436  1.00  0.00     0.049 C 
HETATM   12  C15 UNK     1      18.506   2.076  29.440  1.00  0.00     0.288 A 
ENDROOT
BRANCH   3  13
HETATM   13  N2  UNK     1      18.026   1.596  35.475  1.00  0.00    -0.333 N 
HETATM   14  H9  UNK     1      18.353   2.120  36.284  1.00  0.00     0.168 HD
BRANCH  13  15
HETATM   15  C5  UNK     1      17.397   0.403  35.792  1.00  0.00     0.174 C 
HETATM   16  S1  UNK     1      15.732   0.253  35.661  1.00  0.00    -0.041 SA
BRANCH  15  17
HETATM   17  N1  UNK     1      18.143  -0.660  36.154  1.00  0.00    -0.358 N 
HETATM   18  C3  UNK     1      19.281  -1.152  35.398  1.00  0.00     0.125 C 
HETATM   19  C1  UNK     1      19.588  -2.504  36.027  1.00  0.00     0.021 C 
HETATM   20  C2  UNK     1      19.155  -2.313  37.477  1.00  0.00     0.021 C 
HETATM   21  C4  UNK     1      17.907  -1.451  37.349  1.00  0.00     0.125 C 
ENDBRANCH  15  17
ENDBRANCH  13  15
ENDBRANCH   3  13
TORSDOF 3
ENDMDL
MODEL 9
REMARK VINA RESULT:      -7.2      6.644      9.821
REMARK  3 active torsions:
REMARK  status: ('A' for Active; 'I' for Inactive)
REMARK    1  A    between atoms: C5_10  and  N1_4 
REMARK    2  A    between atoms: C5_10  and  N2_5 
REMARK    3  A    between atoms: C6_11  and  N2_5 
ROOT
HETATM    1  O1  UNK     1      19.362  -1.232  33.922  1.00  0.00    -0.275 OA
HETATM    2  O2  UNK     1      18.547   0.152  32.295  1.00  0.00    -0.260 OA
HETATM    3  C6  UNK     1      20.202  -3.169  36.919  1.00  0.00     0.036 A 
HETATM    4  C7  UNK     1      18.369  -1.168  36.152  1.00  0.00     0.004 A 
HETATM    5  C8  UNK     1      19.301  -1.689  35.254  1.00  0.00     0.092 A 
HETATM    6  C9  UNK     1      20.215  -2.679  35.617  1.00  0.00     0.067 A 
HETATM    7  C10 UNK     1      19.283  -2.668  37.838  1.00  0.00     0.030 A 
HETATM    8  C11 UNK     1      18.372  -1.675  37.459  1.00  0.00     0.017 A 
HETATM    9  C12 UNK     1      17.445  -0.127  35.684  1.00  0.00    -0.043 A 
HETATM   10  C13 UNK     1      17.525   0.288  34.412  1.00  0.00     0.090 A 
HETATM   11  C14 UNK     1      16.431   0.454  36.625  1.00  0.00     0.049 C 
HETATM   12  C15 UNK     1      18.503  -0.252  33.451  1.00  0.00     0.288 A 
ENDROOT
BRANCH   3  13
HETATM   13  N2  UNK     1      21.106  -4.159  37.304  1.00  0.00    -0.333 N 
HETATM   14  H9  UNK     1      22.024  -3.801  37.557  1.00  0.00     0.168 HD
BRANCH  13  15
HETATM   15  C5  UNK     1      20.950  -5.518  37.522  1.00  0.00     0.174 C 
HETATM   16  S1  UNK     1      21.818  -6.296  38.728  1.00  0.00    -0.041 SA
BRANCH  15  17
HETATM   17  N1  UNK     1      20.049  -6.204  36.791  1.00  0.00    -0.358 N 
HETATM   18  C3  UNK     1      18.700  -6.508  37.237  1.00  0.00     0.125 C 
HETATM   19  C1  UNK     1      18.195  -7.527  36.226  1.00  0.00     0.021 C 
HETATM   20  C2  UNK     1      18.934  -7.138  34.949  1.00  0.00     0.021 C 
HETATM   21  C4  UNK     1      20.308  -6.729  35.462  1.00  0.00     0.125 C 
ENDBRANCH  15  17
ENDBRANCH  13  15
ENDBRANCH   3  13
TORSDOF 3
ENDMDL
MODEL 10
REMARK VINA RESULT:      -7.1      2.861      4.115
REMARK  3 active torsions:
REMARK  status: ('A' for Active; 'I' for Inactive)
REMARK    1  A    between atoms: C5_10  and  N1_4 
REMARK    2  A    between atoms: C5_10  and  N2_5 
REMARK    3  A    between atoms: C6_11  and  N2_5 
ROOT
HETATM    1  O1  UNK     1      18.012   2.682  33.306  1.00  0.00    -0.275 OA
HETATM    2  O2  UNK     1      17.956   0.472  33.889  1.00  0.00    -0.260 OA
HETATM    3  C6  UNK     1      18.298   6.000  31.772  1.00  0.00     0.036 A 
HETATM    4  C7  UNK     1      18.679   3.304  31.040  1.00  0.00     0.004 A 
HETATM    5  C8  UNK     1      18.261   3.661  32.323  1.00  0.00     0.092 A 
HETATM    6  C9  UNK     1      18.068   4.990  32.701  1.00  0.00     0.067 A 
HETATM    7  C10 UNK     1      18.717   5.673  30.484  1.00  0.00     0.030 A 
HETATM    8  C11 UNK     1      18.905   4.336  30.119  1.00  0.00     0.017 A 
HETATM    9  C12 UNK     1      18.856   1.879  30.728  1.00  0.00    -0.043 A 
HETATM   10  C13 UNK     1      18.612   0.970  31.683  1.00  0.00     0.090 A 
HETATM   11  C14 UNK     1      19.304   1.462  29.358  1.00  0.00     0.049 C 
HETATM   12  C15 UNK     1      18.170   1.332  33.041  1.00  0.00     0.288 A 
ENDROOT
BRANCH   3  13
HETATM   13  N2  UNK     1      18.112   7.335  32.129  1.00  0.00    -0.333 N 
HETATM   14  H9  UNK     1      17.927   7.950  31.339  1.00  0.00     0.168 HD
BRANCH  13  15
HETATM   15  C5  UNK     1      18.008   7.956  33.363  1.00  0.00     0.174 C 
HETATM   16  S1  UNK     1      19.366   8.187  34.321  1.00  0.00    -0.041 SA
BRANCH  15  17
HETATM   17  N1  UNK     1      16.811   8.427  33.766  1.00  0.00    -0.358 N 
HETATM   18  C3  UNK     1      16.556   9.814  34.112  1.00  0.00     0.125 C 
HETATM   19  C1  UNK     1      15.187   9.785  34.776  1.00  0.00     0.021 C 
HETATM   20  C2  UNK     1      14.494   8.618  34.081  1.00  0.00     0.021 C 
HETATM   21  C4  UNK     1      15.620   7.608  33.906  1.00  0.00     0.125 C 
ENDBRANCH  15  17
ENDBRANCH  13  15
ENDBRANCH   3  13
TORSDOF 3
ENDMDL
