MODEL 1
REMARK VINA RESULT:      -8.1      0.000      0.000
REMARK  5 active torsions:
REMARK  status: ('A' for Active; 'I' for Inactive)
REMARK    1  A    between atoms: C12_17  and  O3_3 
REMARK    2  A    between atoms: C16_21  and  O3_3 
REMARK    3  A    between atoms: C1_6  and  N1_5 
REMARK       I    between atoms: C6_11  and  N1_5 
REMARK    4  A    between atoms: C1_6  and  C2_7 
REMARK    5  A    between atoms: C6_11  and  C7_12 
ROOT
HETATM    1  O1  UNK     1      19.702  -0.996  34.899  1.00  0.00    -0.271 OA
HETATM    2  O4  UNK     1      20.761  -2.868  34.124  1.00  0.00    -0.259 OA
HETATM    3  C7  UNK     1      19.621  -3.071  36.191  1.00  0.00     0.108 A 
HETATM    4  C8  UNK     1      18.500  -1.085  37.010  1.00  0.00     0.002 A 
HETATM    5  C9  UNK     1      18.879  -2.483  37.138  1.00  0.00     0.037 A 
HETATM    6  C10 UNK     1      18.922  -0.373  35.892  1.00  0.00     0.123 A 
HETATM    7  C11 UNK     1      20.080  -2.333  34.993  1.00  0.00     0.304 A 
HETATM    8  C12 UNK     1      18.593   0.969  35.709  1.00  0.00     0.103 A 
HETATM    9  C13 UNK     1      17.728  -0.431  37.973  1.00  0.00     0.014 A 
HETATM   10  C14 UNK     1      17.822   1.613  36.674  1.00  0.00     0.040 A 
HETATM   11  C15 UNK     1      17.391   0.915  37.805  1.00  0.00     0.004 A 
ENDROOT
BRANCH   3  12
HETATM   12  C6  UNK     1      19.950  -4.485  36.410  1.00  0.00     0.258 C 
HETATM   13  O2  UNK     1      21.033  -4.815  36.888  1.00  0.00    -0.267 OA
HETATM   14  N1  UNK     1      18.933  -5.339  36.022  1.00  0.00    -0.348 N 
HETATM   15  H9  UNK     1      18.093  -4.957  35.598  1.00  0.00     0.163 HD
BRANCH  14  16
HETATM   16  C1  UNK     1      19.025  -6.776  36.138  1.00  0.00     0.025 C 
HETATM   17  C3  UNK     1      17.734  -7.390  35.572  1.00  0.00     0.038 C 
HETATM   18  C4  UNK     1      20.217  -7.276  35.308  1.00  0.00     0.038 C 
BRANCH  16  19
HETATM   19  C2  UNK     1      19.159  -7.182  37.625  1.00  0.00     0.026 C 
HETATM   20  C5  UNK     1      18.986  -8.671  37.904  1.00  0.00     0.007 C 
ENDBRANCH  16  19
ENDBRANCH  14  16
ENDBRANCH   3  12
BRANCH   8  21
HETATM   21  O3  UNK     1      19.011   1.653  34.611  1.00  0.00    -0.349 OA
BRANCH  21  22
HETATM   22  C16 UNK     1      18.003   2.153  33.733  1.00  0.00     0.171 C 
HETATM   23  C17 UNK     1      18.225   3.635  33.522  1.00  0.00     0.034 C 
ENDBRANCH  21  22
ENDBRANCH   8  21
TORSDOF 5
ENDMDL
MODEL 2
REMARK VINA RESULT:      -7.9      3.196      8.354
REMARK  5 active torsions:
REMARK  status: ('A' for Active; 'I' for Inactive)
REMARK    1  A    between atoms: C12_17  and  O3_3 
REMARK    2  A    between atoms: C16_21  and  O3_3 
REMARK    3  A    between atoms: C1_6  and  N1_5 
REMARK       I    between atoms: C6_11  and  N1_5 
REMARK    4  A    between atoms: C1_6  and  C2_7 
REMARK    5  A    between atoms: C6_11  and  C7_12 
ROOT
HETATM    1  O1  UNK     1      18.778  -0.380  34.212  1.00  0.00    -0.271 OA
HETATM    2  O4  UNK     1      19.019   0.304  32.044  1.00  0.00    -0.259 OA
HETATM    3  C7  UNK     1      18.183   1.906  33.577  1.00  0.00     0.108 A 
HETATM    4  C8  UNK     1      17.928   1.177  35.874  1.00  0.00     0.002 A 
HETATM    5  C9  UNK     1      17.826   2.189  34.835  1.00  0.00     0.037 A 
HETATM    6  C10 UNK     1      18.403  -0.087  35.537  1.00  0.00     0.123 A 
HETATM    7  C11 UNK     1      18.691   0.568  33.196  1.00  0.00     0.304 A 
HETATM    8  C12 UNK     1      18.526  -1.102  36.484  1.00  0.00     0.103 A 
HETATM    9  C13 UNK     1      17.566   1.428  37.199  1.00  0.00     0.014 A 
HETATM   10  C14 UNK     1      18.163  -0.842  37.804  1.00  0.00     0.040 A 
HETATM   11  C15 UNK     1      17.683   0.421  38.161  1.00  0.00     0.004 A 
ENDROOT
BRANCH   3  12
HETATM   12  C6  UNK     1      18.044   2.994  32.602  1.00  0.00     0.258 C 
HETATM   13  O2  UNK     1      17.523   2.798  31.507  1.00  0.00    -0.267 OA
HETATM   14  N1  UNK     1      18.555   4.195  33.061  1.00  0.00    -0.348 N 
HETATM   15  H9  UNK     1      19.004   4.232  33.971  1.00  0.00     0.163 HD
BRANCH  14  16
HETATM   16  C1  UNK     1      18.536   5.409  32.279  1.00  0.00     0.025 C 
HETATM   17  C3  UNK     1      17.116   5.994  32.330  1.00  0.00     0.038 C 
HETATM   18  C4  UNK     1      19.512   6.423  32.893  1.00  0.00     0.038 C 
BRANCH  16  19
HETATM   19  C2  UNK     1      18.893   5.098  30.806  1.00  0.00     0.026 C 
HETATM   20  C5  UNK     1      20.124   5.824  30.274  1.00  0.00     0.007 C 
ENDBRANCH  16  19
ENDBRANCH  14  16
ENDBRANCH   3  12
BRANCH   8  21
HETATM   21  O3  UNK     1      18.992  -2.332  36.141  1.00  0.00    -0.349 OA
BRANCH  21  22
HETATM   22  C16 UNK     1      20.357  -2.619  36.445  1.00  0.00     0.171 C 
HETATM   23  C17 UNK     1      20.417  -3.837  37.341  1.00  0.00     0.034 C 
ENDBRANCH  21  22
ENDBRANCH   8  21
TORSDOF 5
ENDMDL
MODEL 3
REMARK VINA RESULT:      -7.8      4.416      9.659
REMARK  5 active torsions:
REMARK  status: ('A' for Active; 'I' for Inactive)
REMARK    1  A    between atoms: C12_17  and  O3_3 
REMARK    2  A    between atoms: C16_21  and  O3_3 
REMARK    3  A    between atoms: C1_6  and  N1_5 
REMARK       I    between atoms: C6_11  and  N1_5 
REMARK    4  A    between atoms: C1_6  and  C2_7 
REMARK    5  A    between atoms: C6_11  and  C7_12 
ROOT
HETATM    1  O1  UNK     1      18.695   0.726  32.692  1.00  0.00    -0.271 OA
HETATM    2  O4  UNK     1      17.888   2.562  33.789  1.00  0.00    -0.259 OA
HETATM    3  C7  UNK     1      18.574   2.882  31.544  1.00  0.00     0.108 A 
HETATM    4  C8  UNK     1      19.430   0.934  30.384  1.00  0.00     0.002 A 
HETATM    5  C9  UNK     1      19.081   2.345  30.427  1.00  0.00     0.037 A 
HETATM    6  C10 UNK     1      19.229   0.156  31.520  1.00  0.00     0.123 A 
HETATM    7  C11 UNK     1      18.352   2.073  32.764  1.00  0.00     0.304 A 
HETATM    8  C12 UNK     1      19.542  -1.202  31.545  1.00  0.00     0.103 A 
HETATM    9  C13 UNK     1      19.961   0.332  29.242  1.00  0.00     0.014 A 
HETATM   10  C14 UNK     1      20.071  -1.794  30.401  1.00  0.00     0.040 A 
HETATM   11  C15 UNK     1      20.282  -1.029  29.251  1.00  0.00     0.004 A 
ENDROOT
BRANCH   3  12
HETATM   12  C6  UNK     1      18.253   4.313  31.487  1.00  0.00     0.258 C 
HETATM   13  O2  UNK     1      18.370   4.946  30.440  1.00  0.00    -0.267 OA
HETATM   14  N1  UNK     1      17.831   4.817  32.705  1.00  0.00    -0.348 N 
HETATM   15  H9  UNK     1      17.813   4.210  33.518  1.00  0.00     0.163 HD
BRANCH  14  16
HETATM   16  C1  UNK     1      17.462   6.200  32.899  1.00  0.00     0.025 C 
HETATM   17  C3  UNK     1      16.235   6.500  32.023  1.00  0.00     0.038 C 
HETATM   18  C4  UNK     1      17.087   6.423  34.371  1.00  0.00     0.038 C 
BRANCH  16  19
HETATM   19  C2  UNK     1      18.623   7.126  32.463  1.00  0.00     0.026 C 
HETATM   20  C5  UNK     1      19.905   6.977  33.275  1.00  0.00     0.007 C 
ENDBRANCH  16  19
ENDBRANCH  14  16
ENDBRANCH   3  12
BRANCH   8  21
HETATM   21  O3  UNK     1      19.339  -1.950  32.662  1.00  0.00    -0.349 OA
BRANCH  21  22
HETATM   22  C16 UNK     1      20.496  -2.480  33.309  1.00  0.00     0.171 C 
HETATM   23  C17 UNK     1      20.278  -2.451  34.808  1.00  0.00     0.034 C 
ENDBRANCH  21  22
ENDBRANCH   8  21
TORSDOF 5
ENDMDL
MODEL 4
REMARK VINA RESULT:      -7.5      5.103     10.117
REMARK  5 active torsions:
REMARK  status: ('A' for Active; 'I' for Inactive)
REMARK    1  A    between atoms: C12_17  and  O3_3 
REMARK    2  A    between atoms: C16_21  and  O3_3 
REMARK    3  A    between atoms: C1_6  and  N1_5 
REMARK       I    between atoms: C6_11  and  N1_5 
REMARK    4  A    between atoms: C1_6  and  C2_7 
REMARK    5  A    between atoms: C6_11  and  C7_12 
ROOT
HETATM    1  O1  UNK     1      18.775   1.711  32.991  1.00  0.00    -0.271 OA
HETATM    2  O4  UNK     1      18.215   3.179  34.650  1.00  0.00    -0.259 OA
HETATM    3  C7  UNK     1      18.038   3.973  32.424  1.00  0.00     0.108 A 
HETATM    4  C8  UNK     1      18.634   2.414  30.668  1.00  0.00     0.002 A 
HETATM    5  C9  UNK     1      18.176   3.719  31.117  1.00  0.00     0.037 A 
HETATM    6  C10 UNK     1      18.923   1.439  31.617  1.00  0.00     0.123 A 
HETATM    7  C11 UNK     1      18.340   2.950  33.451  1.00  0.00     0.304 A 
HETATM    8  C12 UNK     1      19.365   0.168  31.253  1.00  0.00     0.103 A 
HETATM    9  C13 UNK     1      18.794   2.105  29.315  1.00  0.00     0.014 A 
HETATM   10  C14 UNK     1      19.521  -0.132  29.901  1.00  0.00     0.040 A 
HETATM   11  C15 UNK     1      19.237   0.835  28.934  1.00  0.00     0.004 A 
ENDROOT
BRANCH   3  12
HETATM   12  C6  UNK     1      17.570   5.318  32.777  1.00  0.00     0.258 C 
HETATM   13  O2  UNK     1      16.524   5.766  32.311  1.00  0.00    -0.267 OA
HETATM   14  N1  UNK     1      18.421   5.971  33.651  1.00  0.00    -0.348 N 
HETATM   15  H9  UNK     1      19.283   5.520  33.940  1.00  0.00     0.163 HD
BRANCH  14  16
HETATM   16  C1  UNK     1      18.174   7.308  34.139  1.00  0.00     0.025 C 
HETATM   17  C3  UNK     1      19.358   7.724  35.027  1.00  0.00     0.038 C 
HETATM   18  C4  UNK     1      18.083   8.274  32.949  1.00  0.00     0.038 C 
BRANCH  16  19
HETATM   19  C2  UNK     1      16.882   7.333  34.990  1.00  0.00     0.026 C 
HETATM   20  C5  UNK     1      15.933   8.487  34.687  1.00  0.00     0.007 C 
ENDBRANCH  16  19
ENDBRANCH  14  16
ENDBRANCH   3  12
BRANCH   8  21
HETATM   21  O3  UNK     1      19.644  -0.776  32.191  1.00  0.00    -0.349 OA
BRANCH  21  22
HETATM   22  C16 UNK     1      20.440  -1.887  31.780  1.00  0.00     0.171 C 
HETATM   23  C17 UNK     1      20.891  -2.651  33.007  1.00  0.00     0.034 C 
ENDBRANCH  21  22
ENDBRANCH   8  21
TORSDOF 5
ENDMDL
MODEL 5
REMARK VINA RESULT:      -7.5      4.832      9.605
REMARK  5 active torsions:
REMARK  status: ('A' for Active; 'I' for Inactive)
REMARK    1  A    between atoms: C12_17  and  O3_3 
REMARK    2  A    between atoms: C16_21  and  O3_3 
REMARK    3  A    between atoms: C1_6  and  N1_5 
REMARK       I    between atoms: C6_11  and  N1_5 
REMARK    4  A    between atoms: C1_6  and  C2_7 
REMARK    5  A    between atoms: C6_11  and  C7_12 
ROOT
HETATM    1  O1  UNK     1      18.254   1.678  32.143  1.00  0.00    -0.271 OA
HETATM    2  O4  UNK     1      18.159   3.347  30.585  1.00  0.00    -0.259 OA
HETATM    3  C7  UNK     1      18.236   4.017  32.856  1.00  0.00     0.108 A 
HETATM    4  C8  UNK     1      18.335   2.246  34.505  1.00  0.00     0.002 A 
HETATM    5  C9  UNK     1      18.293   3.653  34.143  1.00  0.00     0.037 A 
HETATM    6  C10 UNK     1      18.314   1.289  33.496  1.00  0.00     0.123 A 
HETATM    7  C11 UNK     1      18.212   3.017  31.765  1.00  0.00     0.304 A 
HETATM    8  C12 UNK     1      18.352  -0.076  33.775  1.00  0.00     0.103 A 
HETATM    9  C13 UNK     1      18.395   1.820  35.834  1.00  0.00     0.014 A 
HETATM   10  C14 UNK     1      18.413  -0.491  35.104  1.00  0.00     0.040 A 
HETATM   11  C15 UNK     1      18.433   0.455  36.132  1.00  0.00     0.004 A 
ENDROOT
BRANCH   3  12
HETATM   12  C6  UNK     1      18.198   5.461  32.591  1.00  0.00     0.258 C 
HETATM   13  O2  UNK     1      18.823   5.947  31.652  1.00  0.00    -0.267 OA
HETATM   14  N1  UNK     1      17.411   6.152  33.495  1.00  0.00    -0.348 N 
HETATM   15  H9  UNK     1      16.971   5.651  34.261  1.00  0.00     0.163 HD
BRANCH  14  16
HETATM   16  C1  UNK     1      17.222   7.583  33.442  1.00  0.00     0.025 C 
HETATM   17  C3  UNK     1      16.294   7.991  34.597  1.00  0.00     0.038 C 
HETATM   18  C4  UNK     1      18.578   8.280  33.624  1.00  0.00     0.038 C 
BRANCH  16  19
HETATM   19  C2  UNK     1      16.555   7.981  32.103  1.00  0.00     0.026 C 
HETATM   20  C5  UNK     1      15.130   7.472  31.917  1.00  0.00     0.007 C 
ENDBRANCH  16  19
ENDBRANCH  14  16
ENDBRANCH   3  12
BRANCH   8  21
HETATM   21  O3  UNK     1      18.332  -1.000  32.778  1.00  0.00    -0.349 OA
BRANCH  21  22
HETATM   22  C16 UNK     1      19.551  -1.691  32.508  1.00  0.00     0.171 C 
HETATM   23  C17 UNK     1      20.120  -1.192  31.197  1.00  0.00     0.034 C 
ENDBRANCH  21  22
ENDBRANCH   8  21
TORSDOF 5
ENDMDL
MODEL 6
REMARK VINA RESULT:      -7.4      2.492      7.978
REMARK  5 active torsions:
REMARK  status: ('A' for Active; 'I' for Inactive)
REMARK    1  A    between atoms: C12_17  and  O3_3 
REMARK    2  A    between atoms: C16_21  and  O3_3 
REMARK    3  A    between atoms: C1_6  and  N1_5 
REMARK       I    between atoms: C6_11  and  N1_5 
REMARK    4  A    between atoms: C1_6  and  C2_7 
REMARK    5  A    between atoms: C6_11  and  C7_12 
ROOT
HETATM    1  O1  UNK     1      20.420  -7.040  35.830  1.00  0.00    -0.271 OA
HETATM    2  O4  UNK     1      20.306  -5.051  34.709  1.00  0.00    -0.259 OA
HETATM    3  C7  UNK     1      19.953  -4.972  37.050  1.00  0.00     0.108 A 
HETATM    4  C8  UNK     1      20.074  -7.082  38.235  1.00  0.00     0.002 A 
HETATM    5  C9  UNK     1      19.878  -5.642  38.207  1.00  0.00     0.037 A 
HETATM    6  C10 UNK     1      20.340  -7.748  37.044  1.00  0.00     0.123 A 
HETATM    7  C11 UNK     1      20.236  -5.661  35.771  1.00  0.00     0.304 A 
HETATM    8  C12 UNK     1      20.539  -9.127  37.002  1.00  0.00     0.103 A 
HETATM    9  C13 UNK     1      20.003  -7.821  39.418  1.00  0.00     0.014 A 
HETATM   10  C14 UNK     1      20.467  -9.856  38.187  1.00  0.00     0.040 A 
HETATM   11  C15 UNK     1      20.199  -9.205  39.393  1.00  0.00     0.004 A 
ENDROOT
BRANCH   3  12
HETATM   12  C6  UNK     1      19.741  -3.522  37.125  1.00  0.00     0.258 C 
HETATM   13  O2  UNK     1      20.526  -2.800  37.737  1.00  0.00    -0.267 OA
HETATM   14  N1  UNK     1      18.603  -3.110  36.455  1.00  0.00    -0.348 N 
HETATM   15  H9  UNK     1      18.003  -3.802  36.017  1.00  0.00     0.163 HD
BRANCH  14  16
HETATM   16  C1  UNK     1      18.183  -1.729  36.391  1.00  0.00     0.025 C 
HETATM   17  C3  UNK     1      19.293  -0.919  35.702  1.00  0.00     0.038 C 
HETATM   18  C4  UNK     1      16.902  -1.628  35.551  1.00  0.00     0.038 C 
BRANCH  16  19
HETATM   19  C2  UNK     1      17.972  -1.171  37.818  1.00  0.00     0.026 C 
HETATM   20  C5  UNK     1      17.746   0.335  37.895  1.00  0.00     0.007 C 
ENDBRANCH  16  19
ENDBRANCH  14  16
ENDBRANCH   3  12
BRANCH   8  21
HETATM   21  O3  UNK     1      20.800  -9.766  35.830  1.00  0.00    -0.349 OA
BRANCH  21  22
HETATM   22  C16 UNK     1      21.445 -11.036  35.911  1.00  0.00     0.171 C 
HETATM   23  C17 UNK     1      22.939 -10.841  35.770  1.00  0.00     0.034 C 
ENDBRANCH  21  22
ENDBRANCH   8  21
TORSDOF 5
ENDMDL
MODEL 7
REMARK VINA RESULT:      -7.2      2.978      4.304
REMARK  5 active torsions:
REMARK  status: ('A' for Active; 'I' for Inactive)
REMARK    1  A    between atoms: C12_17  and  O3_3 
REMARK    2  A    between atoms: C16_21  and  O3_3 
REMARK    3  A    between atoms: C1_6  and  N1_5 
REMARK       I    between atoms: C6_11  and  N1_5 
REMARK    4  A    between atoms: C1_6  and  C2_7 
REMARK    5  A    between atoms: C6_11  and  C7_12 
ROOT
HETATM    1  O1  UNK     1      18.987  -0.377  33.219  1.00  0.00    -0.271 OA
HETATM    2  O4  UNK     1      18.686  -0.748  35.454  1.00  0.00    -0.259 OA
HETATM    3  C7  UNK     1      19.978  -2.347  34.276  1.00  0.00     0.108 A 
HETATM    4  C8  UNK     1      20.294  -1.952  31.907  1.00  0.00     0.002 A 
HETATM    5  C9  UNK     1      20.504  -2.741  33.110  1.00  0.00     0.037 A 
HETATM    6  C10 UNK     1      19.538  -0.787  31.989  1.00  0.00     0.123 A 
HETATM    7  C11 UNK     1      19.171  -1.111  34.387  1.00  0.00     0.304 A 
HETATM    8  C12 UNK     1      19.299   0.014  30.874  1.00  0.00     0.103 A 
HETATM    9  C13 UNK     1      20.823  -2.324  30.669  1.00  0.00     0.014 A 
HETATM   10  C14 UNK     1      19.832  -0.364  29.644  1.00  0.00     0.040 A 
HETATM   11  C15 UNK     1      20.592  -1.532  29.541  1.00  0.00     0.004 A 
ENDROOT
BRANCH   3  12
HETATM   12  C6  UNK     1      20.247  -3.210  35.433  1.00  0.00     0.258 C 
HETATM   13  O2  UNK     1      20.857  -2.783  36.411  1.00  0.00    -0.267 OA
HETATM   14  N1  UNK     1      19.751  -4.491  35.274  1.00  0.00    -0.348 N 
HETATM   15  H9  UNK     1      19.297  -4.748  34.403  1.00  0.00     0.163 HD
BRANCH  14  16
HETATM   16  C1  UNK     1      19.895  -5.522  36.277  1.00  0.00     0.025 C 
HETATM   17  C3  UNK     1      18.503  -5.844  36.842  1.00  0.00     0.038 C 
HETATM   18  C4  UNK     1      20.471  -6.787  35.624  1.00  0.00     0.038 C 
BRANCH  16  19
HETATM   19  C2  UNK     1      20.796  -5.018  37.430  1.00  0.00     0.026 C 
HETATM   20  C5  UNK     1      21.508  -6.113  38.217  1.00  0.00     0.007 C 
ENDBRANCH  16  19
ENDBRANCH  14  16
ENDBRANCH   3  12
BRANCH   8  21
HETATM   21  O3  UNK     1      18.560   1.152  30.969  1.00  0.00    -0.349 OA
BRANCH  21  22
HETATM   22  C16 UNK     1      18.864   2.203  30.054  1.00  0.00     0.171 C 
HETATM   23  C17 UNK     1      17.870   2.165  28.912  1.00  0.00     0.034 C 
ENDBRANCH  21  22
ENDBRANCH   8  21
TORSDOF 5
ENDMDL
MODEL 8
REMARK VINA RESULT:      -7.2      6.793      9.340
REMARK  5 active torsions:
REMARK  status: ('A' for Active; 'I' for Inactive)
REMARK    1  A    between atoms: C12_17  and  O3_3 
REMARK    2  A    between atoms: C16_21  and  O3_3 
REMARK    3  A    between atoms: C1_6  and  N1_5 
REMARK       I    between atoms: C6_11  and  N1_5 
REMARK    4  A    between atoms: C1_6  and  C2_7 
REMARK    5  A    between atoms: C6_11  and  C7_12 
ROOT
HETATM    1  O1  UNK     1      25.626  -5.704  38.736  1.00  0.00    -0.271 OA
HETATM    2  O4  UNK     1      23.380  -5.293  38.844  1.00  0.00    -0.259 OA
HETATM    3  C7  UNK     1      24.051  -7.562  38.958  1.00  0.00     0.108 A 
HETATM    4  C8  UNK     1      26.432  -7.994  38.842  1.00  0.00     0.002 A 
HETATM    5  C9  UNK     1      25.056  -8.447  38.957  1.00  0.00     0.037 A 
HETATM    6  C10 UNK     1      26.686  -6.631  38.733  1.00  0.00     0.123 A 
HETATM    7  C11 UNK     1      24.297  -6.107  38.844  1.00  0.00     0.304 A 
HETATM    8  C12 UNK     1      27.982  -6.131  38.621  1.00  0.00     0.103 A 
HETATM    9  C13 UNK     1      27.511  -8.882  38.836  1.00  0.00     0.014 A 
HETATM   10  C14 UNK     1      29.052  -7.024  38.616  1.00  0.00     0.040 A 
HETATM   11  C15 UNK     1      28.817  -8.397  38.723  1.00  0.00     0.004 A 
ENDROOT
BRANCH   3  12
HETATM   12  C6  UNK     1      22.698  -8.117  39.080  1.00  0.00     0.258 C 
HETATM   13  O2  UNK     1      22.318  -8.632  40.129  1.00  0.00    -0.267 OA
HETATM   14  N1  UNK     1      21.959  -7.989  37.917  1.00  0.00    -0.348 N 
HETATM   15  H9  UNK     1      22.390  -7.582  37.093  1.00  0.00     0.163 HD
BRANCH  14  16
HETATM   16  C1  UNK     1      20.600  -8.464  37.792  1.00  0.00     0.025 C 
HETATM   17  C3  UNK     1      19.756  -7.808  38.896  1.00  0.00     0.038 C 
HETATM   18  C4  UNK     1      20.041  -8.044  36.425  1.00  0.00     0.038 C 
BRANCH  16  19
HETATM   19  C2  UNK     1      20.554  -9.999  37.976  1.00  0.00     0.026 C 
HETATM   20  C5  UNK     1      21.289 -10.799  36.906  1.00  0.00     0.007 C 
ENDBRANCH  16  19
ENDBRANCH  14  16
ENDBRANCH   3  12
BRANCH   8  21
HETATM   21  O3  UNK     1      28.215  -4.796  38.516  1.00  0.00    -0.349 OA
BRANCH  21  22
HETATM   22  C16 UNK     1      29.488  -4.322  38.953  1.00  0.00     0.171 C 
HETATM   23  C17 UNK     1      30.272  -3.836  37.752  1.00  0.00     0.034 C 
ENDBRANCH  21  22
ENDBRANCH   8  21
TORSDOF 5
ENDMDL
MODEL 9
REMARK VINA RESULT:      -7.1     27.169     30.061
REMARK  5 active torsions:
REMARK  status: ('A' for Active; 'I' for Inactive)
REMARK    1  A    between atoms: C12_17  and  O3_3 
REMARK    2  A    between atoms: C16_21  and  O3_3 
REMARK    3  A    between atoms: C1_6  and  N1_5 
REMARK       I    between atoms: C6_11  and  N1_5 
REMARK    4  A    between atoms: C1_6  and  C2_7 
REMARK    5  A    between atoms: C6_11  and  C7_12 
ROOT
HETATM    1  O1  UNK     1      11.069   7.163   9.484  1.00  0.00    -0.271 OA
HETATM    2  O4  UNK     1      12.771   7.453  10.982  1.00  0.00    -0.259 OA
HETATM    3  C7  UNK     1      13.374   6.673   8.827  1.00  0.00     0.108 A 
HETATM    4  C8  UNK     1      11.568   6.366   7.242  1.00  0.00     0.002 A 
HETATM    5  C9  UNK     1      12.976   6.316   7.600  1.00  0.00     0.037 A 
HETATM    6  C10 UNK     1      10.646   6.788   8.194  1.00  0.00     0.123 A 
HETATM    7  C11 UNK     1      12.410   7.125   9.856  1.00  0.00     0.304 A 
HETATM    8  C12 UNK     1       9.282   6.859   7.915  1.00  0.00     0.103 A 
HETATM    9  C13 UNK     1      11.107   6.002   5.974  1.00  0.00     0.014 A 
HETATM   10  C14 UNK     1       8.832   6.495   6.648  1.00  0.00     0.040 A 
HETATM   11  C15 UNK     1       9.743   6.067   5.679  1.00  0.00     0.004 A 
ENDROOT
BRANCH   3  12
HETATM   12  C6  UNK     1      14.815   6.590   9.091  1.00  0.00     0.258 C 
HETATM   13  O2  UNK     1      15.454   5.581   8.799  1.00  0.00    -0.267 OA
HETATM   14  N1  UNK     1      15.320   7.734   9.683  1.00  0.00    -0.348 N 
HETATM   15  H9  UNK     1      14.689   8.494   9.919  1.00  0.00     0.163 HD
BRANCH  14  16
HETATM   16  C1  UNK     1      16.711   7.888  10.041  1.00  0.00     0.025 C 
HETATM   17  C3  UNK     1      16.839   7.725  11.564  1.00  0.00     0.038 C 
HETATM   18  C4  UNK     1      17.535   6.790   9.353  1.00  0.00     0.038 C 
BRANCH  16  19
HETATM   19  C2  UNK     1      17.207   9.300   9.648  1.00  0.00     0.026 C 
HETATM   20  C5  UNK     1      16.173  10.176   8.950  1.00  0.00     0.007 C 
ENDBRANCH  16  19
ENDBRANCH  14  16
ENDBRANCH   3  12
BRANCH   8  21
HETATM   21  O3  UNK     1       8.392   7.274   8.855  1.00  0.00    -0.349 OA
BRANCH  21  22
HETATM   22  C16 UNK     1       7.365   6.357   9.230  1.00  0.00     0.171 C 
HETATM   23  C17 UNK     1       7.932   5.361  10.221  1.00  0.00     0.034 C 
ENDBRANCH  21  22
ENDBRANCH   8  21
TORSDOF 5
ENDMDL
MODEL 10
REMARK VINA RESULT:      -7.1      2.482      8.094
REMARK  5 active torsions:
REMARK  status: ('A' for Active; 'I' for Inactive)
REMARK    1  A    between atoms: C12_17  and  O3_3 
REMARK    2  A    between atoms: C16_21  and  O3_3 
REMARK    3  A    between atoms: C1_6  and  N1_5 
REMARK       I    between atoms: C6_11  and  N1_5 
REMARK    4  A    between atoms: C1_6  and  C2_7 
REMARK    5  A    between atoms: C6_11  and  C7_12 
ROOT
HETATM    1  O1  UNK     1      18.908  -7.210  37.747  1.00  0.00    -0.271 OA
HETATM    2  O4  UNK     1      17.576  -5.828  36.507  1.00  0.00    -0.259 OA
HETATM    3  C7  UNK     1      19.709  -4.990  37.105  1.00  0.00     0.108 A 
HETATM    4  C8  UNK     1      21.119  -6.457  38.420  1.00  0.00     0.002 A 
HETATM    5  C9  UNK     1      20.872  -5.199  37.734  1.00  0.00     0.037 A 
HETATM    6  C10 UNK     1      20.129  -7.435  38.411  1.00  0.00     0.123 A 
HETATM    7  C11 UNK     1      18.642  -6.016  37.082  1.00  0.00     0.304 A 
HETATM    8  C12 UNK     1      20.303  -8.662  39.048  1.00  0.00     0.103 A 
HETATM    9  C13 UNK     1      22.317  -6.719  39.090  1.00  0.00     0.014 A 
HETATM   10  C14 UNK     1      21.501  -8.914  39.713  1.00  0.00     0.040 A 
HETATM   11  C15 UNK     1      22.506  -7.944  39.735  1.00  0.00     0.004 A 
ENDROOT
BRANCH   3  12
HETATM   12  C6  UNK     1      19.556  -3.690  36.442  1.00  0.00     0.258 C 
HETATM   13  O2  UNK     1      20.194  -3.419  35.427  1.00  0.00    -0.267 OA
HETATM   14  N1  UNK     1      18.650  -2.863  37.083  1.00  0.00    -0.348 N 
HETATM   15  H9  UNK     1      18.209  -3.176  37.942  1.00  0.00     0.163 HD
BRANCH  14  16
HETATM   16  C1  UNK     1      18.333  -1.532  36.619  1.00  0.00     0.025 C 
HETATM   17  C3  UNK     1      19.558  -0.975  35.877  1.00  0.00     0.038 C 
HETATM   18  C4  UNK     1      17.151  -1.604  35.642  1.00  0.00     0.038 C 
BRANCH  16  19
HETATM   19  C2  UNK     1      18.019  -0.611  37.823  1.00  0.00     0.026 C 
HETATM   20  C5  UNK     1      17.128   0.584  37.504  1.00  0.00     0.007 C 
ENDBRANCH  16  19
ENDBRANCH  14  16
ENDBRANCH   3  12
BRANCH   8  21
HETATM   21  O3  UNK     1      19.327  -9.609  39.030  1.00  0.00    -0.349 OA
BRANCH  21  22
HETATM   22  C16 UNK     1      19.679 -10.896  38.524  1.00  0.00     0.171 C 
HETATM   23  C17 UNK     1      19.837 -10.809  37.021  1.00  0.00     0.034 C 
ENDBRANCH  21  22
ENDBRANCH   8  21
TORSDOF 5
ENDMDL
