MODEL 1
REMARK VINA RESULT:      -9.2      0.000      0.000
REMARK  7 active torsions:
REMARK  status: ('A' for Active; 'I' for Inactive)
REMARK    1  A    between atoms: C11_17  and  O1_1 
REMARK    2  A    between atoms: C3_9  and  O1_1 
REMARK       I    between atoms: C22_28  and  N1_5 
REMARK    3  A    between atoms: N1_5  and  N2_6 
REMARK    4  A    between atoms: C1_7  and  C2_8 
REMARK    5  A    between atoms: C1_7  and  C3_9 
REMARK    6  A    between atoms: C12_18  and  C21_27 
REMARK    7  A    between atoms: C15_21  and  C22_28 
ROOT
HETATM    1  O4  UNK     1      21.301  -3.443  32.269  1.00  0.00    -0.266 OA
HETATM    2  N1  UNK     1      20.298  -2.228  33.965  1.00  0.00    -0.243 N 
HETATM    3  C22 UNK     1      20.662  -2.467  32.653  1.00  0.00     0.271 C 
HETATM    4  H22 UNK     1      19.819  -1.389  34.278  1.00  0.00     0.192 HD
ENDROOT
BRANCH   2   5
HETATM    5  N2  UNK     1      20.664  -3.125  34.911  1.00  0.00    -0.183 NA
HETATM    6  C21 UNK     1      19.713  -3.925  35.274  1.00  0.00     0.156 C 
BRANCH   6   7
HETATM    7  C12 UNK     1      19.905  -4.965  36.284  1.00  0.00     0.056 A 
HETATM    8  C14 UNK     1      20.391  -4.600  37.475  1.00  0.00     0.159 A 
HETATM    9  O2  UNK     1      20.637  -5.433  38.542  1.00  0.00    -0.321 OA
HETATM   10  C5  UNK     1      20.362  -6.769  38.382  1.00  0.00     0.089 A 
HETATM   11  C10 UNK     1      20.615  -7.606  39.468  1.00  0.00     0.039 A 
HETATM   12  C4  UNK     1      19.851  -7.297  37.195  1.00  0.00     0.049 A 
HETATM   13  C13 UNK     1      20.355  -8.973  39.365  1.00  0.00     0.009 A 
HETATM   14  C6  UNK     1      19.845  -9.501  38.178  1.00  0.00    -0.061 A 
HETATM   15  C16 UNK     1      19.570 -10.963  38.074  1.00  0.00     0.048 C 
HETATM   16  C7  UNK     1      19.591  -8.666  37.089  1.00  0.00     0.025 A 
HETATM   17  C9  UNK     1      19.592  -6.393  36.059  1.00  0.00     0.198 A 
HETATM   18  O3  UNK     1      19.144  -6.802  34.997  1.00  0.00    -0.286 OA
ENDBRANCH   6   7
ENDBRANCH   2   5
BRANCH   3  19
HETATM   19  C15 UNK     1      20.247  -1.433  31.669  1.00  0.00     0.033 A 
HETATM   20  C19 UNK     1      20.669  -1.553  30.361  1.00  0.00     0.020 A 
HETATM   21  C17 UNK     1      20.280  -0.583  29.437  1.00  0.00     0.038 A 
HETATM   22  C11 UNK     1      19.479   0.484  29.841  1.00  0.00     0.068 A 
HETATM   23  C18 UNK     1      19.066   0.581  31.169  1.00  0.00     0.038 A 
HETATM   24  C20 UNK     1      19.455  -0.388  32.094  1.00  0.00     0.020 A 
BRANCH  22  25
HETATM   25  O1  UNK     1      19.100   1.430  28.939  1.00  0.00    -0.351 OA
BRANCH  25  26
HETATM   26  C3  UNK     1      18.147   2.400  29.376  1.00  0.00     0.175 C 
BRANCH  26  27
HETATM   27  C1  UNK     1      18.771   3.783  29.269  1.00  0.00     0.026 C 
BRANCH  27  28
HETATM   28  C2  UNK     1      18.974   4.416  30.643  1.00  0.00    -0.002 C 
HETATM   29  C8  UNK     1      19.891   5.626  30.570  1.00  0.00     0.005 C 
ENDBRANCH  27  28
ENDBRANCH  26  27
ENDBRANCH  25  26
ENDBRANCH  22  25
ENDBRANCH   3  19
TORSDOF 7
ENDMDL
MODEL 2
REMARK VINA RESULT:      -8.8      2.838     10.863
REMARK  7 active torsions:
REMARK  status: ('A' for Active; 'I' for Inactive)
REMARK    1  A    between atoms: C11_17  and  O1_1 
REMARK    2  A    between atoms: C3_9  and  O1_1 
REMARK       I    between atoms: C22_28  and  N1_5 
REMARK    3  A    between atoms: N1_5  and  N2_6 
REMARK    4  A    between atoms: C1_7  and  C2_8 
REMARK    5  A    between atoms: C1_7  and  C3_9 
REMARK    6  A    between atoms: C12_18  and  C21_27 
REMARK    7  A    between atoms: C15_21  and  C22_28 
ROOT
HETATM    1  O4  UNK     1      21.269  -3.953  36.860  1.00  0.00    -0.266 OA
HETATM    2  N1  UNK     1      19.000  -3.504  36.757  1.00  0.00    -0.243 N 
HETATM    3  C22 UNK     1      20.100  -4.311  36.978  1.00  0.00     0.271 C 
HETATM    4  H22 UNK     1      18.040  -3.828  36.802  1.00  0.00     0.192 HD
ENDROOT
BRANCH   2   5
HETATM    5  N2  UNK     1      19.207  -2.219  36.383  1.00  0.00    -0.183 NA
HETATM    6  C21 UNK     1      18.190  -1.670  35.799  1.00  0.00     0.156 C 
BRANCH   6   7
HETATM    7  C12 UNK     1      18.211  -0.288  35.320  1.00  0.00     0.056 A 
HETATM    8  C14 UNK     1      18.184   0.691  36.231  1.00  0.00     0.159 A 
HETATM    9  O2  UNK     1      18.199   2.041  35.971  1.00  0.00    -0.321 OA
HETATM   10  C5  UNK     1      18.245   2.436  34.656  1.00  0.00     0.089 A 
HETATM   11  C10 UNK     1      18.258   3.807  34.402  1.00  0.00     0.039 A 
HETATM   12  C4  UNK     1      18.277   1.528  33.596  1.00  0.00     0.049 A 
HETATM   13  C13 UNK     1      18.305   4.267  33.086  1.00  0.00     0.009 A 
HETATM   14  C6  UNK     1      18.337   3.359  32.027  1.00  0.00    -0.061 A 
HETATM   15  C16 UNK     1      18.386   3.858  30.622  1.00  0.00     0.048 C 
HETATM   16  C7  UNK     1      18.323   1.986  32.277  1.00  0.00     0.025 A 
HETATM   17  C9  UNK     1      18.261   0.082  33.889  1.00  0.00     0.198 A 
HETATM   18  O3  UNK     1      18.290  -0.757  33.000  1.00  0.00    -0.286 OA
ENDBRANCH   6   7
ENDBRANCH   2   5
BRANCH   3  19
HETATM   19  C15 UNK     1      19.804  -5.716  37.364  1.00  0.00     0.033 A 
HETATM   20  C19 UNK     1      20.448  -6.255  38.458  1.00  0.00     0.020 A 
HETATM   21  C17 UNK     1      20.170  -7.573  38.821  1.00  0.00     0.038 A 
HETATM   22  C11 UNK     1      19.254  -8.321  38.083  1.00  0.00     0.068 A 
HETATM   23  C18 UNK     1      18.616  -7.752  36.981  1.00  0.00     0.038 A 
HETATM   24  C20 UNK     1      18.894  -6.434  36.617  1.00  0.00     0.020 A 
BRANCH  22  25
HETATM   25  O1  UNK     1      18.983  -9.606  38.437  1.00  0.00    -0.351 OA
BRANCH  25  26
HETATM   26  C3  UNK     1      19.359 -10.628  37.513  1.00  0.00     0.175 C 
BRANCH  26  27
HETATM   27  C1  UNK     1      20.877 -10.656  37.403  1.00  0.00     0.026 C 
BRANCH  27  28
HETATM   28  C2  UNK     1      21.335 -10.683  35.948  1.00  0.00    -0.002 C 
HETATM   29  C8  UNK     1      21.646  -9.286  35.436  1.00  0.00     0.005 C 
ENDBRANCH  27  28
ENDBRANCH  26  27
ENDBRANCH  25  26
ENDBRANCH  22  25
ENDBRANCH   3  19
TORSDOF 7
ENDMDL
MODEL 3
REMARK VINA RESULT:      -8.8      2.562     11.055
REMARK  7 active torsions:
REMARK  status: ('A' for Active; 'I' for Inactive)
REMARK    1  A    between atoms: C11_17  and  O1_1 
REMARK    2  A    between atoms: C3_9  and  O1_1 
REMARK       I    between atoms: C22_28  and  N1_5 
REMARK    3  A    between atoms: N1_5  and  N2_6 
REMARK    4  A    between atoms: C1_7  and  C2_8 
REMARK    5  A    between atoms: C1_7  and  C3_9 
REMARK    6  A    between atoms: C12_18  and  C21_27 
REMARK    7  A    between atoms: C15_21  and  C22_28 
ROOT
HETATM    1  O4  UNK     1      20.461  -3.698  34.779  1.00  0.00    -0.266 OA
HETATM    2  N1  UNK     1      19.587  -2.387  36.475  1.00  0.00    -0.243 N 
HETATM    3  C22 UNK     1      20.001  -3.579  35.912  1.00  0.00     0.271 C 
HETATM    4  H22 UNK     1      19.156  -2.311  37.391  1.00  0.00     0.192 HD
ENDROOT
BRANCH   2   5
HETATM    5  N2  UNK     1      19.689  -1.255  35.739  1.00  0.00    -0.183 NA
HETATM    6  C21 UNK     1      18.615  -0.958  35.079  1.00  0.00     0.156 C 
BRANCH   6   7
HETATM    7  C12 UNK     1      18.522   0.226  34.225  1.00  0.00     0.056 A 
HETATM    8  C14 UNK     1      18.572   0.049  32.901  1.00  0.00     0.159 A 
HETATM    9  O2  UNK     1      18.500   1.037  31.947  1.00  0.00    -0.321 OA
HETATM   10  C5  UNK     1      18.363   2.332  32.381  1.00  0.00     0.089 A 
HETATM   11  C10 UNK     1      18.291   3.328  31.407  1.00  0.00     0.039 A 
HETATM   12  C4  UNK     1      18.297   2.672  33.734  1.00  0.00     0.049 A 
HETATM   13  C13 UNK     1      18.152   4.662  31.788  1.00  0.00     0.009 A 
HETATM   14  C6  UNK     1      18.086   5.001  33.140  1.00  0.00    -0.061 A 
HETATM   15  C16 UNK     1      17.938   6.430  33.541  1.00  0.00     0.048 C 
HETATM   16  C7  UNK     1      18.158   4.008  34.118  1.00  0.00     0.025 A 
HETATM   17  C9  UNK     1      18.375   1.602  34.747  1.00  0.00     0.198 A 
HETATM   18  O3  UNK     1      18.321   1.843  35.945  1.00  0.00    -0.286 OA
ENDBRANCH   6   7
ENDBRANCH   2   5
BRANCH   3  19
HETATM   19  C15 UNK     1      19.843  -4.787  36.764  1.00  0.00     0.033 A 
HETATM   20  C19 UNK     1      20.753  -5.010  37.777  1.00  0.00     0.020 A 
HETATM   21  C17 UNK     1      20.604  -6.143  38.577  1.00  0.00     0.038 A 
HETATM   22  C11 UNK     1      19.550  -7.026  38.347  1.00  0.00     0.068 A 
HETATM   23  C18 UNK     1      18.644  -6.776  37.317  1.00  0.00     0.038 A 
HETATM   24  C20 UNK     1      18.792  -5.644  36.516  1.00  0.00     0.020 A 
BRANCH  22  25
HETATM   25  O1  UNK     1      19.406  -8.131  39.128  1.00  0.00    -0.351 OA
BRANCH  25  26
HETATM   26  C3  UNK     1      19.269  -9.385  38.460  1.00  0.00     0.175 C 
BRANCH  26  27
HETATM   27  C1  UNK     1      20.648  -9.868  38.034  1.00  0.00     0.026 C 
BRANCH  27  28
HETATM   28  C2  UNK     1      20.763  -9.974  36.516  1.00  0.00    -0.002 C 
HETATM   29  C8  UNK     1      21.593  -8.839  35.939  1.00  0.00     0.005 C 
ENDBRANCH  27  28
ENDBRANCH  26  27
ENDBRANCH  25  26
ENDBRANCH  22  25
ENDBRANCH   3  19
TORSDOF 7
ENDMDL
MODEL 4
REMARK VINA RESULT:      -8.7      2.636      3.151
REMARK  7 active torsions:
REMARK  status: ('A' for Active; 'I' for Inactive)
REMARK    1  A    between atoms: C11_17  and  O1_1 
REMARK    2  A    between atoms: C3_9  and  O1_1 
REMARK       I    between atoms: C22_28  and  N1_5 
REMARK    3  A    between atoms: N1_5  and  N2_6 
REMARK    4  A    between atoms: C1_7  and  C2_8 
REMARK    5  A    between atoms: C1_7  and  C3_9 
REMARK    6  A    between atoms: C12_18  and  C21_27 
REMARK    7  A    between atoms: C15_21  and  C22_28 
ROOT
HETATM    1  O4  UNK     1      18.554  -0.366  37.536  1.00  0.00    -0.266 OA
HETATM    2  N1  UNK     1      18.905  -1.806  35.757  1.00  0.00    -0.243 N 
HETATM    3  C22 UNK     1      18.657  -0.572  36.329  1.00  0.00     0.271 C 
HETATM    4  H22 UNK     1      18.932  -1.973  34.757  1.00  0.00     0.192 HD
ENDROOT
BRANCH   2   5
HETATM    5  N2  UNK     1      19.047  -2.879  36.571  1.00  0.00    -0.183 NA
HETATM    6  C21 UNK     1      20.091  -3.600  36.315  1.00  0.00     0.156 C 
BRANCH   6   7
HETATM    7  C12 UNK     1      20.423  -4.801  37.080  1.00  0.00     0.056 A 
HETATM    8  C14 UNK     1      21.497  -4.761  37.875  1.00  0.00     0.159 A 
HETATM    9  O2  UNK     1      21.960  -5.787  38.666  1.00  0.00    -0.321 OA
HETATM   10  C5  UNK     1      21.263  -6.970  38.646  1.00  0.00     0.089 A 
HETATM   11  C10 UNK     1      21.740  -8.005  39.450  1.00  0.00     0.039 A 
HETATM   12  C4  UNK     1      20.122  -7.161  37.865  1.00  0.00     0.049 A 
HETATM   13  C13 UNK     1      21.073  -9.230  39.471  1.00  0.00     0.009 A 
HETATM   14  C6  UNK     1      19.933  -9.420  38.690  1.00  0.00    -0.061 A 
HETATM   15  C16 UNK     1      19.225 -10.733  38.717  1.00  0.00     0.048 C 
HETATM   16  C7  UNK     1      19.452  -8.387  37.884  1.00  0.00     0.025 A 
HETATM   17  C9  UNK     1      19.636  -6.052  37.022  1.00  0.00     0.198 A 
HETATM   18  O3  UNK     1      18.641  -6.164  36.319  1.00  0.00    -0.286 OA
ENDBRANCH   6   7
ENDBRANCH   2   5
BRANCH   3  19
HETATM   19  C15 UNK     1      18.491   0.559  35.380  1.00  0.00     0.033 A 
HETATM   20  C19 UNK     1      18.275   0.282  34.046  1.00  0.00     0.020 A 
HETATM   21  C17 UNK     1      18.118   1.343  33.155  1.00  0.00     0.038 A 
HETATM   22  C11 UNK     1      18.179   2.658  33.617  1.00  0.00     0.068 A 
HETATM   23  C18 UNK     1      18.398   2.910  34.971  1.00  0.00     0.038 A 
HETATM   24  C20 UNK     1      18.556   1.849  35.863  1.00  0.00     0.020 A 
BRANCH  22  25
HETATM   25  O1  UNK     1      18.027   3.692  32.747  1.00  0.00    -0.351 OA
BRANCH  25  26
HETATM   26  C3  UNK     1      18.122   5.012  33.284  1.00  0.00     0.175 C 
BRANCH  26  27
HETATM   27  C1  UNK     1      18.260   6.000  32.135  1.00  0.00     0.026 C 
BRANCH  27  28
HETATM   28  C2  UNK     1      19.686   6.039  31.594  1.00  0.00    -0.002 C 
HETATM   29  C8  UNK     1      19.723   5.759  30.100  1.00  0.00     0.005 C 
ENDBRANCH  27  28
ENDBRANCH  26  27
ENDBRANCH  25  26
ENDBRANCH  22  25
ENDBRANCH   3  19
TORSDOF 7
ENDMDL
MODEL 5
REMARK VINA RESULT:      -8.5      2.552      3.271
REMARK  7 active torsions:
REMARK  status: ('A' for Active; 'I' for Inactive)
REMARK    1  A    between atoms: C11_17  and  O1_1 
REMARK    2  A    between atoms: C3_9  and  O1_1 
REMARK       I    between atoms: C22_28  and  N1_5 
REMARK    3  A    between atoms: N1_5  and  N2_6 
REMARK    4  A    between atoms: C1_7  and  C2_8 
REMARK    5  A    between atoms: C1_7  and  C3_9 
REMARK    6  A    between atoms: C12_18  and  C21_27 
REMARK    7  A    between atoms: C15_21  and  C22_28 
ROOT
HETATM    1  O4  UNK     1      18.300  -1.309  36.959  1.00  0.00    -0.266 OA
HETATM    2  N1  UNK     1      20.092  -1.749  35.561  1.00  0.00    -0.243 N 
HETATM    3  C22 UNK     1      19.014  -1.008  36.006  1.00  0.00     0.271 C 
HETATM    4  H22 UNK     1      20.639  -1.519  34.738  1.00  0.00     0.192 HD
ENDROOT
BRANCH   2   5
HETATM    5  N2  UNK     1      20.401  -2.895  36.212  1.00  0.00    -0.183 NA
HETATM    6  C21 UNK     1      19.922  -3.962  35.657  1.00  0.00     0.156 C 
BRANCH   6   7
HETATM    7  C12 UNK     1      20.143  -5.300  36.207  1.00  0.00     0.056 A 
HETATM    8  C14 UNK     1      19.994  -5.468  37.525  1.00  0.00     0.159 A 
HETATM    9  O2  UNK     1      20.159  -6.646  38.216  1.00  0.00    -0.321 OA
HETATM   10  C5  UNK     1      20.510  -7.762  37.497  1.00  0.00     0.089 A 
HETATM   11  C10 UNK     1      20.676  -8.951  38.206  1.00  0.00     0.039 A 
HETATM   12  C4  UNK     1      20.701  -7.739  36.114  1.00  0.00     0.049 A 
HETATM   13  C13 UNK     1      21.032 -10.118  37.529  1.00  0.00     0.009 A 
HETATM   14  C6  UNK     1      21.224 -10.095  36.147  1.00  0.00    -0.061 A 
HETATM   15  C16 UNK     1      21.606 -11.346  35.430  1.00  0.00     0.048 C 
HETATM   16  C7  UNK     1      21.059  -8.906  35.434  1.00  0.00     0.025 A 
HETATM   17  C9  UNK     1      20.521  -6.470  35.385  1.00  0.00     0.198 A 
HETATM   18  O3  UNK     1      20.675  -6.393  34.174  1.00  0.00    -0.286 OA
ENDBRANCH   6   7
ENDBRANCH   2   5
BRANCH   3  19
HETATM   19  C15 UNK     1      18.716   0.227  35.234  1.00  0.00     0.033 A 
HETATM   20  C19 UNK     1      18.734   1.441  35.889  1.00  0.00     0.020 A 
HETATM   21  C17 UNK     1      18.455   2.601  35.165  1.00  0.00     0.038 A 
HETATM   22  C11 UNK     1      18.165   2.520  33.803  1.00  0.00     0.068 A 
HETATM   23  C18 UNK     1      18.153   1.280  33.166  1.00  0.00     0.038 A 
HETATM   24  C20 UNK     1      18.432   0.120  33.889  1.00  0.00     0.020 A 
BRANCH  22  25
HETATM   25  O1  UNK     1      17.892   3.651  33.098  1.00  0.00    -0.351 OA
BRANCH  25  26
HETATM   26  C3  UNK     1      18.494   4.862  33.555  1.00  0.00     0.175 C 
BRANCH  26  27
HETATM   27  C1  UNK     1      18.651   5.808  32.373  1.00  0.00     0.026 C 
BRANCH  27  28
HETATM   28  C2  UNK     1      18.932   5.050  31.079  1.00  0.00    -0.002 C 
HETATM   29  C8  UNK     1      19.941   5.784  30.210  1.00  0.00     0.005 C 
ENDBRANCH  27  28
ENDBRANCH  26  27
ENDBRANCH  25  26
ENDBRANCH  22  25
ENDBRANCH   3  19
TORSDOF 7
ENDMDL
MODEL 6
REMARK VINA RESULT:      -8.5      5.996     10.459
REMARK  7 active torsions:
REMARK  status: ('A' for Active; 'I' for Inactive)
REMARK    1  A    between atoms: C11_17  and  O1_1 
REMARK    2  A    between atoms: C3_9  and  O1_1 
REMARK       I    between atoms: C22_28  and  N1_5 
REMARK    3  A    between atoms: N1_5  and  N2_6 
REMARK    4  A    between atoms: C1_7  and  C2_8 
REMARK    5  A    between atoms: C1_7  and  C3_9 
REMARK    6  A    between atoms: C12_18  and  C21_27 
REMARK    7  A    between atoms: C15_21  and  C22_28 
ROOT
HETATM    1  O4  UNK     1      17.295   7.315  30.892  1.00  0.00    -0.266 OA
HETATM    2  N1  UNK     1      17.068   5.602  32.432  1.00  0.00    -0.243 N 
HETATM    3  C22 UNK     1      16.955   6.910  32.001  1.00  0.00     0.271 C 
HETATM    4  H22 UNK     1      16.836   5.291  33.369  1.00  0.00     0.192 HD
ENDROOT
BRANCH   2   5
HETATM    5  N2  UNK     1      17.589   4.684  31.583  1.00  0.00    -0.183 NA
HETATM    6  C21 UNK     1      17.914   3.567  32.150  1.00  0.00     0.156 C 
BRANCH   6   7
HETATM    7  C12 UNK     1      18.494   2.449  31.406  1.00  0.00     0.056 A 
HETATM    8  C14 UNK     1      18.646   2.587  30.085  1.00  0.00     0.159 A 
HETATM    9  O2  UNK     1      19.170   1.649  29.226  1.00  0.00    -0.321 OA
HETATM   10  C5  UNK     1      19.579   0.453  29.762  1.00  0.00     0.089 A 
HETATM   11  C10 UNK     1      20.108  -0.492  28.884  1.00  0.00     0.039 A 
HETATM   12  C4  UNK     1      19.482   0.164  31.125  1.00  0.00     0.049 A 
HETATM   13  C13 UNK     1      20.540  -1.726  29.372  1.00  0.00     0.009 A 
HETATM   14  C6  UNK     1      20.442  -2.014  30.733  1.00  0.00    -0.061 A 
HETATM   15  C16 UNK     1      20.906  -3.335  31.248  1.00  0.00     0.048 C 
HETATM   16  C7  UNK     1      19.913  -1.071  31.615  1.00  0.00     0.025 A 
HETATM   17  C9  UNK     1      18.918   1.179  32.036  1.00  0.00     0.198 A 
HETATM   18  O3  UNK     1      18.811   0.980  33.237  1.00  0.00    -0.286 OA
ENDBRANCH   6   7
ENDBRANCH   2   5
BRANCH   3  19
HETATM   19  C15 UNK     1      16.395   7.870  32.988  1.00  0.00     0.033 A 
HETATM   20  C19 UNK     1      17.205   8.876  33.470  1.00  0.00     0.020 A 
HETATM   21  C17 UNK     1      16.680   9.777  34.396  1.00  0.00     0.038 A 
HETATM   22  C11 UNK     1      15.357   9.653  34.818  1.00  0.00     0.068 A 
HETATM   23  C18 UNK     1      14.559   8.626  34.314  1.00  0.00     0.038 A 
HETATM   24  C20 UNK     1      15.084   7.724  33.389  1.00  0.00     0.020 A 
BRANCH  22  25
HETATM   25  O1  UNK     1      14.845  10.532  35.721  1.00  0.00    -0.351 OA
BRANCH  25  26
HETATM   26  C3  UNK     1      14.590  11.860  35.264  1.00  0.00     0.175 C 
BRANCH  26  27
HETATM   27  C1  UNK     1      13.090  12.036  35.076  1.00  0.00     0.026 C 
BRANCH  27  28
HETATM   28  C2  UNK     1      12.661  11.720  33.647  1.00  0.00    -0.002 C 
HETATM   29  C8  UNK     1      13.613  12.331  32.631  1.00  0.00     0.005 C 
ENDBRANCH  27  28
ENDBRANCH  26  27
ENDBRANCH  25  26
ENDBRANCH  22  25
ENDBRANCH   3  19
TORSDOF 7
ENDMDL
MODEL 7
REMARK VINA RESULT:      -8.4      5.636      9.770
REMARK  7 active torsions:
REMARK  status: ('A' for Active; 'I' for Inactive)
REMARK    1  A    between atoms: C11_17  and  O1_1 
REMARK    2  A    between atoms: C3_9  and  O1_1 
REMARK       I    between atoms: C22_28  and  N1_5 
REMARK    3  A    between atoms: N1_5  and  N2_6 
REMARK    4  A    between atoms: C1_7  and  C2_8 
REMARK    5  A    between atoms: C1_7  and  C3_9 
REMARK    6  A    between atoms: C12_18  and  C21_27 
REMARK    7  A    between atoms: C15_21  and  C22_28 
ROOT
HETATM    1  O4  UNK     1      18.518   5.219  33.841  1.00  0.00    -0.266 OA
HETATM    2  N1  UNK     1      17.836   5.487  31.645  1.00  0.00    -0.243 N 
HETATM    3  C22 UNK     1      17.856   5.807  32.989  1.00  0.00     0.271 C 
HETATM    4  H22 UNK     1      17.242   5.944  30.961  1.00  0.00     0.192 HD
ENDROOT
BRANCH   2   5
HETATM    5  N2  UNK     1      18.596   4.451  31.215  1.00  0.00    -0.183 NA
HETATM    6  C21 UNK     1      17.964   3.323  31.157  1.00  0.00     0.156 C 
BRANCH   6   7
HETATM    7  C12 UNK     1      18.607   2.085  30.718  1.00  0.00     0.056 A 
HETATM    8  C14 UNK     1      18.881   1.949  29.416  1.00  0.00     0.159 A 
HETATM    9  O2  UNK     1      19.480   0.862  28.822  1.00  0.00    -0.321 OA
HETATM   10  C5  UNK     1      19.836  -0.189  29.631  1.00  0.00     0.089 A 
HETATM   11  C10 UNK     1      20.442  -1.287  29.021  1.00  0.00     0.039 A 
HETATM   12  C4  UNK     1      19.613  -0.190  31.009  1.00  0.00     0.049 A 
HETATM   13  C13 UNK     1      20.825  -2.385  29.791  1.00  0.00     0.009 A 
HETATM   14  C6  UNK     1      20.602  -2.385  31.169  1.00  0.00    -0.061 A 
HETATM   15  C16 UNK     1      21.014  -3.563  31.987  1.00  0.00     0.048 C 
HETATM   16  C7  UNK     1      19.996  -1.289  31.783  1.00  0.00     0.025 A 
HETATM   17  C9  UNK     1      18.970   0.981  31.634  1.00  0.00     0.198 A 
HETATM   18  O3  UNK     1      18.752   1.034  32.836  1.00  0.00    -0.286 OA
ENDBRANCH   6   7
ENDBRANCH   2   5
BRANCH   3  19
HETATM   19  C15 UNK     1      16.984   6.939  33.397  1.00  0.00     0.033 A 
HETATM   20  C19 UNK     1      16.106   7.468  32.474  1.00  0.00     0.020 A 
HETATM   21  C17 UNK     1      15.287   8.531  32.858  1.00  0.00     0.038 A 
HETATM   22  C11 UNK     1      15.364   9.040  34.154  1.00  0.00     0.068 A 
HETATM   23  C18 UNK     1      16.261   8.486  35.067  1.00  0.00     0.038 A 
HETATM   24  C20 UNK     1      17.080   7.424  34.684  1.00  0.00     0.020 A 
BRANCH  22  25
HETATM   25  O1  UNK     1      14.566  10.076  34.526  1.00  0.00    -0.351 OA
BRANCH  25  26
HETATM   26  C3  UNK     1      15.198  11.190  35.156  1.00  0.00     0.175 C 
BRANCH  26  27
HETATM   27  C1  UNK     1      15.880  12.035  34.089  1.00  0.00     0.026 C 
BRANCH  27  28
HETATM   28  C2  UNK     1      17.293  12.432  34.505  1.00  0.00    -0.002 C 
HETATM   29  C8  UNK     1      18.321  11.420  34.024  1.00  0.00     0.005 C 
ENDBRANCH  27  28
ENDBRANCH  26  27
ENDBRANCH  25  26
ENDBRANCH  22  25
ENDBRANCH   3  19
TORSDOF 7
ENDMDL
MODEL 8
REMARK VINA RESULT:      -8.2      7.168     10.724
REMARK  7 active torsions:
REMARK  status: ('A' for Active; 'I' for Inactive)
REMARK    1  A    between atoms: C11_17  and  O1_1 
REMARK    2  A    between atoms: C3_9  and  O1_1 
REMARK       I    between atoms: C22_28  and  N1_5 
REMARK    3  A    between atoms: N1_5  and  N2_6 
REMARK    4  A    between atoms: C1_7  and  C2_8 
REMARK    5  A    between atoms: C1_7  and  C3_9 
REMARK    6  A    between atoms: C12_18  and  C21_27 
REMARK    7  A    between atoms: C15_21  and  C22_28 
ROOT
HETATM    1  O4  UNK     1      24.192  -5.830  39.063  1.00  0.00    -0.266 OA
HETATM    2  N1  UNK     1      24.208  -8.137  38.881  1.00  0.00    -0.243 N 
HETATM    3  C22 UNK     1      23.607  -6.893  38.876  1.00  0.00     0.271 C 
HETATM    4  H22 UNK     1      23.705  -9.013  38.781  1.00  0.00     0.192 HD
ENDROOT
BRANCH   2   5
HETATM    5  N2  UNK     1      25.542  -8.210  39.106  1.00  0.00    -0.183 NA
HETATM    6  C21 UNK     1      26.264  -8.099  38.037  1.00  0.00     0.156 C 
BRANCH   6   7
HETATM    7  C12 UNK     1      27.725  -8.151  38.067  1.00  0.00     0.056 A 
HETATM    8  C14 UNK     1      28.308  -9.354  38.109  1.00  0.00     0.159 A 
HETATM    9  O2  UNK     1      29.661  -9.599  38.141  1.00  0.00    -0.321 OA
HETATM   10  C5  UNK     1      30.504  -8.516  38.132  1.00  0.00     0.089 A 
HETATM   11  C10 UNK     1      31.875  -8.773  38.166  1.00  0.00     0.039 A 
HETATM   12  C4  UNK     1      30.041  -7.199  38.090  1.00  0.00     0.049 A 
HETATM   13  C13 UNK     1      32.780  -7.712  38.157  1.00  0.00     0.009 A 
HETATM   14  C6  UNK     1      32.316  -6.397  38.117  1.00  0.00    -0.061 A 
HETATM   15  C16 UNK     1      33.290  -5.266  38.109  1.00  0.00     0.048 C 
HETATM   16  C7  UNK     1      30.946  -6.134  38.083  1.00  0.00     0.025 A 
HETATM   17  C9  UNK     1      28.588  -6.950  38.055  1.00  0.00     0.198 A 
HETATM   18  O3  UNK     1      28.127  -5.818  38.017  1.00  0.00    -0.286 OA
ENDBRANCH   6   7
ENDBRANCH   2   5
BRANCH   3  19
HETATM   19  C15 UNK     1      22.139  -6.886  38.644  1.00  0.00     0.033 A 
HETATM   20  C19 UNK     1      21.541  -5.725  38.201  1.00  0.00     0.020 A 
HETATM   21  C17 UNK     1      20.163  -5.718  37.983  1.00  0.00     0.038 A 
HETATM   22  C11 UNK     1      19.414  -6.872  38.213  1.00  0.00     0.068 A 
HETATM   23  C18 UNK     1      20.044  -8.033  38.660  1.00  0.00     0.038 A 
HETATM   24  C20 UNK     1      21.421  -8.040  38.879  1.00  0.00     0.020 A 
BRANCH  22  25
HETATM   25  O1  UNK     1      18.071  -6.865  38.000  1.00  0.00    -0.351 OA
BRANCH  25  26
HETATM   26  C3  UNK     1      17.621  -6.515  36.691  1.00  0.00     0.175 C 
BRANCH  26  27
HETATM   27  C1  UNK     1      18.128  -7.557  35.704  1.00  0.00     0.026 C 
BRANCH  27  28
HETATM   28  C2  UNK     1      19.231  -6.997  34.811  1.00  0.00    -0.002 C 
HETATM   29  C8  UNK     1      20.515  -7.800  34.940  1.00  0.00     0.005 C 
ENDBRANCH  27  28
ENDBRANCH  26  27
ENDBRANCH  25  26
ENDBRANCH  22  25
ENDBRANCH   3  19
TORSDOF 7
ENDMDL
MODEL 9
REMARK VINA RESULT:      -8.1      7.535     14.541
REMARK  7 active torsions:
REMARK  status: ('A' for Active; 'I' for Inactive)
REMARK    1  A    between atoms: C11_17  and  O1_1 
REMARK    2  A    between atoms: C3_9  and  O1_1 
REMARK       I    between atoms: C22_28  and  N1_5 
REMARK    3  A    between atoms: N1_5  and  N2_6 
REMARK    4  A    between atoms: C1_7  and  C2_8 
REMARK    5  A    between atoms: C1_7  and  C3_9 
REMARK    6  A    between atoms: C12_18  and  C21_27 
REMARK    7  A    between atoms: C15_21  and  C22_28 
ROOT
HETATM    1  O4  UNK     1      19.639   6.965  32.822  1.00  0.00    -0.266 OA
HETATM    2  N1  UNK     1      17.454   7.281  32.126  1.00  0.00    -0.243 N 
HETATM    3  C22 UNK     1      18.612   6.546  32.295  1.00  0.00     0.271 C 
HETATM    4  H22 UNK     1      16.631   6.942  31.638  1.00  0.00     0.192 HD
ENDROOT
BRANCH   2   5
HETATM    5  N2  UNK     1      17.431   8.561  32.568  1.00  0.00    -0.183 NA
HETATM    6  C21 UNK     1      16.602   8.768  33.541  1.00  0.00     0.156 C 
BRANCH   6   7
HETATM    7  C12 UNK     1      16.429  10.082  34.158  1.00  0.00     0.056 A 
HETATM    8  C14 UNK     1      17.451  10.942  34.098  1.00  0.00     0.159 A 
HETATM    9  O2  UNK     1      17.472  12.216  34.618  1.00  0.00    -0.321 OA
HETATM   10  C5  UNK     1      16.343  12.658  35.263  1.00  0.00     0.089 A 
HETATM   11  C10 UNK     1      16.373  13.950  35.788  1.00  0.00     0.039 A 
HETATM   12  C4  UNK     1      15.198  11.872  35.405  1.00  0.00     0.049 A 
HETATM   13  C13 UNK     1      15.256  14.453  36.454  1.00  0.00     0.009 A 
HETATM   14  C6  UNK     1      14.112  13.667  36.596  1.00  0.00    -0.061 A 
HETATM   15  C16 UNK     1      12.921  14.212  37.311  1.00  0.00     0.048 C 
HETATM   16  C7  UNK     1      14.078  12.374  36.073  1.00  0.00     0.025 A 
HETATM   17  C9  UNK     1      15.189  10.508  34.842  1.00  0.00     0.198 A 
HETATM   18  O3  UNK     1      14.213   9.778  34.937  1.00  0.00    -0.286 OA
ENDBRANCH   6   7
ENDBRANCH   2   5
BRANCH   3  19
HETATM   19  C15 UNK     1      18.577   5.156  31.769  1.00  0.00     0.033 A 
HETATM   20  C19 UNK     1      18.937   4.933  30.456  1.00  0.00     0.020 A 
HETATM   21  C17 UNK     1      18.905   3.628  29.962  1.00  0.00     0.038 A 
HETATM   22  C11 UNK     1      18.515   2.577  30.791  1.00  0.00     0.068 A 
HETATM   23  C18 UNK     1      18.158   2.831  32.115  1.00  0.00     0.038 A 
HETATM   24  C20 UNK     1      18.188   4.135  32.610  1.00  0.00     0.020 A 
BRANCH  22  25
HETATM   25  O1  UNK     1      18.484   1.306  30.309  1.00  0.00    -0.351 OA
BRANCH  25  26
HETATM   26  C3  UNK     1      18.749   1.132  28.916  1.00  0.00     0.175 C 
BRANCH  26  27
HETATM   27  C1  UNK     1      19.686  -0.053  28.739  1.00  0.00     0.026 C 
BRANCH  27  28
HETATM   28  C2  UNK     1      20.437  -0.374  30.027  1.00  0.00    -0.002 C 
HETATM   29  C8  UNK     1      20.351  -1.853  30.370  1.00  0.00     0.005 C 
ENDBRANCH  27  28
ENDBRANCH  26  27
ENDBRANCH  25  26
ENDBRANCH  22  25
ENDBRANCH   3  19
TORSDOF 7
ENDMDL
MODEL 10
REMARK VINA RESULT:      -8.1      2.755      3.604
REMARK  7 active torsions:
REMARK  status: ('A' for Active; 'I' for Inactive)
REMARK    1  A    between atoms: C11_17  and  O1_1 
REMARK    2  A    between atoms: C3_9  and  O1_1 
REMARK       I    between atoms: C22_28  and  N1_5 
REMARK    3  A    between atoms: N1_5  and  N2_6 
REMARK    4  A    between atoms: C1_7  and  C2_8 
REMARK    5  A    between atoms: C1_7  and  C3_9 
REMARK    6  A    between atoms: C12_18  and  C21_27 
REMARK    7  A    between atoms: C15_21  and  C22_28 
ROOT
HETATM    1  O4  UNK     1      17.579  -0.251  37.050  1.00  0.00    -0.266 OA
HETATM    2  N1  UNK     1      19.067  -1.420  35.717  1.00  0.00    -0.243 N 
HETATM    3  C22 UNK     1      18.279  -0.333  36.044  1.00  0.00     0.271 C 
HETATM    4  H22 UNK     1      19.597  -1.499  34.855  1.00  0.00     0.192 HD
ENDROOT
BRANCH   2   5
HETATM    5  N2  UNK     1      19.083  -2.483  36.556  1.00  0.00    -0.183 NA
HETATM    6  C21 UNK     1      19.529  -3.572  36.018  1.00  0.00     0.156 C 
BRANCH   6   7
HETATM    7  C12 UNK     1      19.625  -4.831  36.757  1.00  0.00     0.056 A 
HETATM    8  C14 UNK     1      18.575  -5.658  36.726  1.00  0.00     0.159 A 
HETATM    9  O2  UNK     1      18.483  -6.877  37.356  1.00  0.00    -0.321 OA
HETATM   10  C5  UNK     1      19.565  -7.297  38.090  1.00  0.00     0.089 A 
HETATM   11  C10 UNK     1      19.463  -8.534  38.726  1.00  0.00     0.039 A 
HETATM   12  C4  UNK     1      20.732  -6.540  38.215  1.00  0.00     0.049 A 
HETATM   13  C13 UNK     1      20.531  -9.012  39.486  1.00  0.00     0.009 A 
HETATM   14  C6  UNK     1      21.696  -8.256  39.610  1.00  0.00    -0.061 A 
HETATM   15  C16 UNK     1      22.834  -8.774  40.425  1.00  0.00     0.048 C 
HETATM   16  C7  UNK     1      21.802  -7.018  38.976  1.00  0.00     0.025 A 
HETATM   17  C9  UNK     1      20.817  -5.235  37.534  1.00  0.00     0.198 A 
HETATM   18  O3  UNK     1      21.815  -4.532  37.608  1.00  0.00    -0.286 OA
ENDBRANCH   6   7
ENDBRANCH   2   5
BRANCH   3  19
HETATM   19  C15 UNK     1      18.291   0.790  35.070  1.00  0.00     0.033 A 
HETATM   20  C19 UNK     1      18.311   0.501  33.722  1.00  0.00     0.020 A 
HETATM   21  C17 UNK     1      18.321   1.555  32.808  1.00  0.00     0.038 A 
HETATM   22  C11 UNK     1      18.311   2.874  33.262  1.00  0.00     0.068 A 
HETATM   23  C18 UNK     1      18.290   3.138  34.632  1.00  0.00     0.038 A 
HETATM   24  C20 UNK     1      18.280   2.084  35.546  1.00  0.00     0.020 A 
BRANCH  22  25
HETATM   25  O1  UNK     1      18.321   3.901  32.371  1.00  0.00    -0.351 OA
BRANCH  25  26
HETATM   26  C3  UNK     1      17.920   5.183  32.852  1.00  0.00     0.175 C 
BRANCH  26  27
HETATM   27  C1  UNK     1      18.724   6.254  32.129  1.00  0.00     0.026 C 
BRANCH  27  28
HETATM   28  C2  UNK     1      19.841   6.809  33.008  1.00  0.00    -0.002 C 
HETATM   29  C8  UNK     1      19.305   7.312  34.339  1.00  0.00     0.005 C 
ENDBRANCH  27  28
ENDBRANCH  26  27
ENDBRANCH  25  26
ENDBRANCH  22  25
ENDBRANCH   3  19
TORSDOF 7
ENDMDL
