MODEL 1
REMARK VINA RESULT:     -10.9      0.000      0.000
REMARK  2 active torsions:
REMARK  status: ('A' for Active; 'I' for Inactive)
REMARK    1  A    between atoms: C14_19  and  N1_5 
REMARK    2  A    between atoms: C11_16  and  C4_9 
ROOT
HETATM    1  O1  UNK     1      18.553  -1.157  35.026  1.00  0.00    -0.332 OA
HETATM    2  O2  UNK     1      18.545   2.280  31.579  1.00  0.00    -0.274 OA
HETATM    3  O3  UNK     1      16.926   1.733  36.453  1.00  0.00    -0.289 OA
HETATM    4  O4  UNK     1      18.495   3.833  29.896  1.00  0.00    -0.260 OA
HETATM    5  C1  UNK     1      17.499  -0.510  35.740  1.00  0.00     0.125 C 
HETATM    6  C2  UNK     1      18.605   0.641  33.379  1.00  0.00     0.048 A 
HETATM    7  C3  UNK     1      17.493   1.018  35.629  1.00  0.00     0.196 C 
HETATM    8  C4  UNK     1      18.189   1.581  34.433  1.00  0.00     0.044 C 
HETATM    9  C5  UNK     1      18.788  -0.696  33.755  1.00  0.00     0.084 A 
HETATM   10  C6  UNK     1      17.712  -0.892  37.210  1.00  0.00     0.055 C 
HETATM   11  C7  UNK     1      16.146  -1.057  35.267  1.00  0.00     0.055 C 
HETATM   12  C8  UNK     1      18.820   0.964  32.028  1.00  0.00     0.103 A 
HETATM   13  C9  UNK     1      19.266   0.018  31.100  1.00  0.00    -0.001 A 
HETATM   14  C10 UNK     1      19.258  -1.648  32.843  1.00  0.00     0.039 A 
HETATM   15  C12 UNK     1      19.500  -1.291  31.519  1.00  0.00     0.017 A 
HETATM   16  C13 UNK     1      19.477   0.417  29.717  1.00  0.00     0.020 A 
HETATM   17  C15 UNK     1      19.227   1.669  29.324  1.00  0.00     0.083 A 
HETATM   18  C16 UNK     1      18.730   2.687  30.263  1.00  0.00     0.288 A 
ENDROOT
BRANCH   8  19
HETATM   19  C11 UNK     1      18.488   2.889  34.468  1.00  0.00     0.104 C 
HETATM   20  N1  UNK     1      17.900   3.890  33.774  1.00  0.00    -0.365 N 
HETATM   21  H10 UNK     1      17.146   3.632  33.149  1.00  0.00     0.165 HD
BRANCH  20  22
HETATM   22  C14 UNK     1      18.195   5.266  33.793  1.00  0.00     0.032 A 
HETATM   23  C18 UNK     1      17.171   6.200  33.968  1.00  0.00     0.041 A 
HETATM   24  C17 UNK     1      17.449   7.577  33.988  1.00  0.00    -0.024 A 
HETATM   25  C19 UNK     1      18.785   8.015  33.828  1.00  0.00    -0.026 A 
HETATM   26  C22 UNK     1      16.430   8.527  34.164  1.00  0.00     0.012 A 
HETATM   27  C21 UNK     1      19.804   7.065  33.653  1.00  0.00     0.014 A 
HETATM   28  C23 UNK     1      19.063   9.392  33.848  1.00  0.00     0.012 A 
HETATM   29  C20 UNK     1      19.509   5.700  33.635  1.00  0.00     0.030 A 
HETATM   30  C25 UNK     1      18.038  10.322  34.022  1.00  0.00     0.001 A 
HETATM   31  C24 UNK     1      16.724   9.891  34.180  1.00  0.00     0.001 A 
ENDBRANCH  20  22
ENDBRANCH   8  19
TORSDOF 2
ENDMDL
MODEL 2
REMARK VINA RESULT:     -10.2     14.423     16.622
REMARK  2 active torsions:
REMARK  status: ('A' for Active; 'I' for Inactive)
REMARK    1  A    between atoms: C14_19  and  N1_5 
REMARK    2  A    between atoms: C11_16  and  C4_9 
ROOT
HETATM    1  O1  UNK     1      27.102  -6.381  38.828  1.00  0.00    -0.332 OA
HETATM    2  O2  UNK     1      30.632  -6.035  35.495  1.00  0.00    -0.274 OA
HETATM    3  O3  UNK     1      26.761  -9.250  36.663  1.00  0.00    -0.289 OA
HETATM    4  O4  UNK     1      32.359  -5.869  34.001  1.00  0.00    -0.260 OA
HETATM    5  C1  UNK     1      26.937  -7.778  38.578  1.00  0.00     0.125 C 
HETATM    6  C2  UNK     1      28.783  -6.216  37.070  1.00  0.00     0.048 A 
HETATM    7  C3  UNK     1      27.210  -8.207  37.133  1.00  0.00     0.196 C 
HETATM    8  C4  UNK     1      28.090  -7.293  36.343  1.00  0.00     0.044 C 
HETATM    9  C5  UNK     1      28.220  -5.801  38.284  1.00  0.00     0.084 A 
HETATM   10  C6  UNK     1      25.469  -8.078  38.907  1.00  0.00     0.055 C 
HETATM   11  C7  UNK     1      27.840  -8.580  39.524  1.00  0.00     0.055 C 
HETATM   12  C8  UNK     1      29.967  -5.579  36.660  1.00  0.00     0.103 A 
HETATM   13  C9  UNK     1      30.533  -4.526  37.385  1.00  0.00    -0.001 A 
HETATM   14  C10 UNK     1      28.761  -4.733  39.007  1.00  0.00     0.039 A 
HETATM   15  C12 UNK     1      29.913  -4.094  38.558  1.00  0.00     0.017 A 
HETATM   16  C13 UNK     1      31.756  -3.902  36.905  1.00  0.00     0.020 A 
HETATM   17  C15 UNK     1      32.352  -4.341  35.793  1.00  0.00     0.083 A 
HETATM   18  C16 UNK     1      31.805  -5.464  35.016  1.00  0.00     0.288 A 
ENDROOT
BRANCH   8  19
HETATM   19  C11 UNK     1      28.086  -7.452  35.011  1.00  0.00     0.104 C 
HETATM   20  N1  UNK     1      28.732  -8.396  34.289  1.00  0.00    -0.365 N 
HETATM   21  H10 UNK     1      29.290  -9.065  34.807  1.00  0.00     0.165 HD
BRANCH  20  22
HETATM   22  C14 UNK     1      28.744  -8.584  32.895  1.00  0.00     0.032 A 
HETATM   23  C18 UNK     1      29.517  -9.602  32.332  1.00  0.00     0.041 A 
HETATM   24  C17 UNK     1      29.541  -9.802  30.941  1.00  0.00    -0.024 A 
HETATM   25  C19 UNK     1      28.769  -8.957  30.109  1.00  0.00    -0.026 A 
HETATM   26  C22 UNK     1      30.312 -10.821  30.361  1.00  0.00     0.012 A 
HETATM   27  C21 UNK     1      27.998  -7.937  30.689  1.00  0.00     0.014 A 
HETATM   28  C23 UNK     1      28.793  -9.156  28.718  1.00  0.00     0.012 A 
HETATM   29  C20 UNK     1      27.987  -7.754  32.073  1.00  0.00     0.030 A 
HETATM   30  C25 UNK     1      29.567 -10.173  28.158  1.00  0.00     0.001 A 
HETATM   31  C24 UNK     1      30.325 -11.004  28.978  1.00  0.00     0.001 A 
ENDBRANCH  20  22
ENDBRANCH   8  19
TORSDOF 2
ENDMDL
MODEL 3
REMARK VINA RESULT:      -9.4     14.656     17.676
REMARK  2 active torsions:
REMARK  status: ('A' for Active; 'I' for Inactive)
REMARK    1  A    between atoms: C14_19  and  N1_5 
REMARK    2  A    between atoms: C11_16  and  C4_9 
ROOT
HETATM    1  O1  UNK     1      31.651  -3.937  36.719  1.00  0.00    -0.332 OA
HETATM    2  O2  UNK     1      33.167  -7.305  33.550  1.00  0.00    -0.274 OA
HETATM    3  O3  UNK     1      29.225  -6.610  36.814  1.00  0.00    -0.289 OA
HETATM    4  O4  UNK     1      33.968  -8.894  32.107  1.00  0.00    -0.260 OA
HETATM    5  C1  UNK     1      30.817  -4.880  37.395  1.00  0.00     0.125 C 
HETATM    6  C2  UNK     1      32.299  -5.617  35.075  1.00  0.00     0.048 A 
HETATM    7  C3  UNK     1      30.229  -5.974  36.499  1.00  0.00     0.196 C 
HETATM    8  C4  UNK     1      30.977  -6.244  35.234  1.00  0.00     0.044 C 
HETATM    9  C5  UNK     1      32.552  -4.462  35.828  1.00  0.00     0.084 A 
HETATM   10  C6  UNK     1      29.664  -4.055  37.981  1.00  0.00     0.055 C 
HETATM   11  C7  UNK     1      31.604  -5.532  38.540  1.00  0.00     0.055 C 
HETATM   12  C8  UNK     1      33.335  -6.084  34.248  1.00  0.00     0.103 A 
HETATM   13  C9  UNK     1      34.547  -5.398  34.115  1.00  0.00    -0.001 A 
HETATM   14  C10 UNK     1      33.749  -3.752  35.687  1.00  0.00     0.039 A 
HETATM   15  C12 UNK     1      34.743  -4.216  34.831  1.00  0.00     0.017 A 
HETATM   16  C13 UNK     1      35.578  -5.928  33.237  1.00  0.00     0.020 A 
HETATM   17  C15 UNK     1      35.386  -7.073  32.576  1.00  0.00     0.083 A 
HETATM   18  C16 UNK     1      34.137  -7.840  32.709  1.00  0.00     0.288 A 
ENDROOT
BRANCH   8  19
HETATM   19  C11 UNK     1      30.330  -6.942  34.287  1.00  0.00     0.104 C 
HETATM   20  N1  UNK     1      30.272  -6.680  32.962  1.00  0.00    -0.365 N 
HETATM   21  H10 UNK     1      30.770  -5.860  32.636  1.00  0.00     0.165 HD
BRANCH  20  22
HETATM   22  C14 UNK     1      29.602  -7.393  31.952  1.00  0.00     0.032 A 
HETATM   23  C18 UNK     1      30.330  -8.085  30.980  1.00  0.00     0.041 A 
HETATM   24  C17 UNK     1      29.675  -8.801  29.965  1.00  0.00    -0.024 A 
HETATM   25  C19 UNK     1      28.261  -8.819  29.933  1.00  0.00    -0.026 A 
HETATM   26  C22 UNK     1      30.395  -9.500  28.982  1.00  0.00     0.012 A 
HETATM   27  C21 UNK     1      27.542  -8.120  30.916  1.00  0.00     0.014 A 
HETATM   28  C23 UNK     1      27.606  -9.535  28.917  1.00  0.00     0.012 A 
HETATM   29  C20 UNK     1      28.209  -7.413  31.917  1.00  0.00     0.030 A 
HETATM   30  C25 UNK     1      28.337 -10.224  27.948  1.00  0.00     0.001 A 
HETATM   31  C24 UNK     1      29.728 -10.206  27.980  1.00  0.00     0.001 A 
ENDBRANCH  20  22
ENDBRANCH   8  19
TORSDOF 2
ENDMDL
MODEL 4
REMARK VINA RESULT:      -9.3     15.286     18.785
REMARK  2 active torsions:
REMARK  status: ('A' for Active; 'I' for Inactive)
REMARK    1  A    between atoms: C14_19  and  N1_5 
REMARK    2  A    between atoms: C11_16  and  C4_9 
ROOT
HETATM    1  O1  UNK     1      17.535  -6.850  16.052  1.00  0.00    -0.332 OA
HETATM    2  O2  UNK     1      18.428  -2.887  13.372  1.00  0.00    -0.274 OA
HETATM    3  O3  UNK     1      15.453  -4.216  17.380  1.00  0.00    -0.289 OA
HETATM    4  O4  UNK     1      18.824  -1.075  12.029  1.00  0.00    -0.260 OA
HETATM    5  C1  UNK     1      16.293  -6.316  16.514  1.00  0.00     0.125 C 
HETATM    6  C2  UNK     1      18.009  -4.804  14.814  1.00  0.00     0.048 A 
HETATM    7  C3  UNK     1      16.265  -4.791  16.658  1.00  0.00     0.196 C 
HETATM    8  C4  UNK     1      17.265  -4.047  15.834  1.00  0.00     0.044 C 
HETATM    9  C5  UNK     1      18.120  -6.188  15.003  1.00  0.00     0.084 A 
HETATM   10  C6  UNK     1      16.072  -6.941  17.898  1.00  0.00     0.055 C 
HETATM   11  C7  UNK     1      15.162  -6.757  15.575  1.00  0.00     0.055 C 
HETATM   12  C8  UNK     1      18.604  -4.263  13.661  1.00  0.00     0.103 A 
HETATM   13  C9  UNK     1      19.340  -5.047  12.768  1.00  0.00    -0.001 A 
HETATM   14  C10 UNK     1      18.874  -6.981  14.131  1.00  0.00     0.039 A 
HETATM   15  C12 UNK     1      19.486  -6.412  13.017  1.00  0.00     0.017 A 
HETATM   16  C13 UNK     1      19.938  -4.427  11.596  1.00  0.00     0.020 A 
HETATM   17  C15 UNK     1      19.772  -3.124  11.356  1.00  0.00     0.083 A 
HETATM   18  C16 UNK     1      18.982  -2.269  12.256  1.00  0.00     0.288 A 
ENDROOT
BRANCH   8  19
HETATM   19  C11 UNK     1      17.492  -2.768  16.170  1.00  0.00     0.104 C 
HETATM   20  N1  UNK     1      18.666  -2.098  16.129  1.00  0.00    -0.365 N 
HETATM   21  H10 UNK     1      19.477  -2.616  15.810  1.00  0.00     0.165 HD
BRANCH  20  22
HETATM   22  C14 UNK     1      18.930  -0.761  16.477  1.00  0.00     0.032 A 
HETATM   23  C18 UNK     1      18.967  -0.380  17.821  1.00  0.00     0.041 A 
HETATM   24  C17 UNK     1      19.228   0.951  18.185  1.00  0.00    -0.024 A 
HETATM   25  C19 UNK     1      19.456   1.913  17.172  1.00  0.00    -0.026 A 
HETATM   26  C22 UNK     1      19.269   1.348  19.531  1.00  0.00     0.012 A 
HETATM   27  C21 UNK     1      19.416   1.516  15.825  1.00  0.00     0.014 A 
HETATM   28  C23 UNK     1      19.717   3.244  17.535  1.00  0.00     0.012 A 
HETATM   29  C20 UNK     1      19.155   0.188  15.483  1.00  0.00     0.030 A 
HETATM   30  C25 UNK     1      19.752   3.621  18.878  1.00  0.00     0.001 A 
HETATM   31  C24 UNK     1      19.529   2.675  19.874  1.00  0.00     0.001 A 
ENDBRANCH  20  22
ENDBRANCH   8  19
TORSDOF 2
ENDMDL
MODEL 5
REMARK VINA RESULT:      -8.9      1.435      1.897
REMARK  2 active torsions:
REMARK  status: ('A' for Active; 'I' for Inactive)
REMARK    1  A    between atoms: C14_19  and  N1_5 
REMARK    2  A    between atoms: C11_16  and  C4_9 
ROOT
HETATM    1  O1  UNK     1      19.333  -1.736  35.890  1.00  0.00    -0.332 OA
HETATM    2  O2  UNK     1      18.513   0.399  31.594  1.00  0.00    -0.274 OA
HETATM    3  O3  UNK     1      16.491   0.444  36.346  1.00  0.00    -0.289 OA
HETATM    4  O4  UNK     1      18.120   1.312  29.530  1.00  0.00    -0.260 OA
HETATM    5  C1  UNK     1      18.010  -1.443  36.342  1.00  0.00     0.125 C 
HETATM    6  C2  UNK     1      18.930  -0.556  33.795  1.00  0.00     0.048 A 
HETATM    7  C3  UNK     1      17.417  -0.142  35.790  1.00  0.00     0.196 C 
HETATM    8  C4  UNK     1      18.014   0.347  34.510  1.00  0.00     0.044 C 
HETATM    9  C5  UNK     1      19.565  -1.550  34.551  1.00  0.00     0.084 A 
HETATM   10  C6  UNK     1      18.120  -1.321  37.867  1.00  0.00     0.055 C 
HETATM   11  C7  UNK     1      17.078  -2.611  35.996  1.00  0.00     0.055 C 
HETATM   12  C8  UNK     1      19.211  -0.518  32.418  1.00  0.00     0.103 A 
HETATM   13  C9  UNK     1      20.137  -1.383  31.825  1.00  0.00    -0.001 A 
HETATM   14  C10 UNK     1      20.512  -2.405  33.976  1.00  0.00     0.039 A 
HETATM   15  C12 UNK     1      20.799  -2.320  32.617  1.00  0.00     0.017 A 
HETATM   16  C13 UNK     1      20.389  -1.289  30.395  1.00  0.00     0.020 A 
HETATM   17  C15 UNK     1      19.730  -0.403  29.644  1.00  0.00     0.083 A 
HETATM   18  C16 UNK     1      18.728   0.506  30.224  1.00  0.00     0.288 A 
ENDROOT
BRANCH   8  19
HETATM   19  C11 UNK     1      17.761   1.621  34.175  1.00  0.00     0.104 C 
HETATM   20  N1  UNK     1      18.552   2.464  33.472  1.00  0.00    -0.365 N 
HETATM   21  H10 UNK     1      19.445   2.100  33.161  1.00  0.00     0.165 HD
BRANCH  20  22
HETATM   22  C14 UNK     1      18.310   3.802  33.109  1.00  0.00     0.032 A 
HETATM   23  C18 UNK     1      18.132   4.774  34.097  1.00  0.00     0.041 A 
HETATM   24  C17 UNK     1      17.889   6.114  33.750  1.00  0.00    -0.024 A 
HETATM   25  C19 UNK     1      17.827   6.475  32.384  1.00  0.00    -0.026 A 
HETATM   26  C22 UNK     1      17.707   7.102  34.731  1.00  0.00     0.012 A 
HETATM   27  C21 UNK     1      18.009   5.487  31.403  1.00  0.00     0.014 A 
HETATM   28  C23 UNK     1      17.584   7.814  32.037  1.00  0.00     0.012 A 
HETATM   29  C20 UNK     1      18.249   4.160  31.765  1.00  0.00     0.030 A 
HETATM   30  C25 UNK     1      17.404   8.783  33.025  1.00  0.00     0.001 A 
HETATM   31  C24 UNK     1      17.466   8.428  34.370  1.00  0.00     0.001 A 
ENDBRANCH  20  22
ENDBRANCH   8  19
TORSDOF 2
ENDMDL
MODEL 6
REMARK VINA RESULT:      -8.9     14.940     17.635
REMARK  2 active torsions:
REMARK  status: ('A' for Active; 'I' for Inactive)
REMARK    1  A    between atoms: C14_19  and  N1_5 
REMARK    2  A    between atoms: C11_16  and  C4_9 
ROOT
HETATM    1  O1  UNK     1      33.443  -5.367  36.541  1.00  0.00    -0.332 OA
HETATM    2  O2  UNK     1      29.505  -8.161  35.925  1.00  0.00    -0.274 OA
HETATM    3  O3  UNK     1      31.853  -4.252  33.497  1.00  0.00    -0.289 OA
HETATM    4  O4  UNK     1      27.621  -9.447  35.726  1.00  0.00    -0.260 OA
HETATM    5  C1  UNK     1      32.927  -4.364  35.665  1.00  0.00     0.125 C 
HETATM    6  C2  UNK     1      31.512  -6.796  36.119  1.00  0.00     0.048 A 
HETATM    7  C3  UNK     1      32.052  -4.896  34.526  1.00  0.00     0.196 C 
HETATM    8  C4  UNK     1      31.425  -6.231  34.762  1.00  0.00     0.044 C 
HETATM    9  C5  UNK     1      32.554  -6.335  36.935  1.00  0.00     0.084 A 
HETATM   10  C6  UNK     1      34.159  -3.683  35.057  1.00  0.00     0.055 C 
HETATM   11  C7  UNK     1      32.130  -3.334  36.477  1.00  0.00     0.055 C 
HETATM   12  C8  UNK     1      30.634  -7.744  36.672  1.00  0.00     0.103 A 
HETATM   13  C9  UNK     1      30.820  -8.269  37.955  1.00  0.00    -0.001 A 
HETATM   14  C10 UNK     1      32.767  -6.869  38.211  1.00  0.00     0.039 A 
HETATM   15  C12 UNK     1      31.903  -7.836  38.719  1.00  0.00     0.017 A 
HETATM   16  C13 UNK     1      29.880  -9.254  38.468  1.00  0.00     0.020 A 
HETATM   17  C15 UNK     1      28.834  -9.642  37.735  1.00  0.00     0.083 A 
HETATM   18  C16 UNK     1      28.587  -9.094  36.392  1.00  0.00     0.288 A 
ENDROOT
BRANCH   8  19
HETATM   19  C11 UNK     1      30.934  -6.867  33.687  1.00  0.00     0.104 C 
HETATM   20  N1  UNK     1      29.663  -6.851  33.226  1.00  0.00    -0.365 N 
HETATM   21  H10 UNK     1      28.994  -6.298  33.750  1.00  0.00     0.165 HD
BRANCH  20  22
HETATM   22  C14 UNK     1      29.124  -7.508  32.105  1.00  0.00     0.032 A 
HETATM   23  C18 UNK     1      29.901  -8.422  31.388  1.00  0.00     0.041 A 
HETATM   24  C17 UNK     1      29.378  -9.086  30.266  1.00  0.00    -0.024 A 
HETATM   25  C19 UNK     1      28.048  -8.821  29.864  1.00  0.00    -0.026 A 
HETATM   26  C22 UNK     1      30.147 -10.007  29.536  1.00  0.00     0.012 A 
HETATM   27  C21 UNK     1      27.279  -7.900  30.593  1.00  0.00     0.014 A 
HETATM   28  C23 UNK     1      27.525  -9.485  28.741  1.00  0.00     0.012 A 
HETATM   29  C20 UNK     1      27.815  -7.249  31.706  1.00  0.00     0.030 A 
HETATM   30  C25 UNK     1      28.303 -10.396  28.027  1.00  0.00     0.001 A 
HETATM   31  C24 UNK     1      29.612 -10.656  28.423  1.00  0.00     0.001 A 
ENDBRANCH  20  22
ENDBRANCH   8  19
TORSDOF 2
ENDMDL
MODEL 7
REMARK VINA RESULT:      -8.8     14.802     17.496
REMARK  2 active torsions:
REMARK  status: ('A' for Active; 'I' for Inactive)
REMARK    1  A    between atoms: C14_19  and  N1_5 
REMARK    2  A    between atoms: C11_16  and  C4_9 
ROOT
HETATM    1  O1  UNK     1      34.037  -8.972  29.606  1.00  0.00    -0.332 OA
HETATM    2  O2  UNK     1      29.812  -7.961  31.799  1.00  0.00    -0.274 OA
HETATM    3  O3  UNK     1      34.732  -8.778  33.144  1.00  0.00    -0.289 OA
HETATM    4  O4  UNK     1      27.784  -7.566  32.788  1.00  0.00    -0.260 OA
HETATM    5  C1  UNK     1      34.607  -9.458  30.823  1.00  0.00     0.125 C 
HETATM    6  C2  UNK     1      31.975  -8.367  30.758  1.00  0.00     0.048 A 
HETATM    7  C3  UNK     1      34.098  -8.765  32.090  1.00  0.00     0.196 C 
HETATM    8  C4  UNK     1      32.763  -8.104  31.974  1.00  0.00     0.044 C 
HETATM    9  C5  UNK     1      32.680  -8.772  29.617  1.00  0.00     0.084 A 
HETATM   10  C6  UNK     1      36.114  -9.199  30.696  1.00  0.00     0.055 C 
HETATM   11  C7  UNK     1      34.363 -10.968  30.938  1.00  0.00     0.055 C 
HETATM   12  C8  UNK     1      30.578  -8.263  30.647  1.00  0.00     0.103 A 
HETATM   13  C9  UNK     1      29.911  -8.481  29.437  1.00  0.00    -0.001 A 
HETATM   14  C10 UNK     1      32.030  -8.969  28.394  1.00  0.00     0.039 A 
HETATM   15  C12 UNK     1      30.648  -8.821  28.303  1.00  0.00     0.017 A 
HETATM   16  C13 UNK     1      28.463  -8.350  29.384  1.00  0.00     0.020 A 
HETATM   17  C15 UNK     1      27.767  -8.046  30.483  1.00  0.00     0.083 A 
HETATM   18  C16 UNK     1      28.427  -7.836  31.781  1.00  0.00     0.288 A 
ENDROOT
BRANCH   8  19
HETATM   19  C11 UNK     1      32.438  -7.226  32.934  1.00  0.00     0.104 C 
HETATM   20  N1  UNK     1      31.867  -7.485  34.133  1.00  0.00    -0.365 N 
HETATM   21  H10 UNK     1      31.654  -8.454  34.337  1.00  0.00     0.165 HD
BRANCH  20  22
HETATM   22  C14 UNK     1      31.516  -6.584  35.154  1.00  0.00     0.032 A 
HETATM   23  C18 UNK     1      30.555  -6.940  36.104  1.00  0.00     0.041 A 
HETATM   24  C17 UNK     1      30.193  -6.051  37.129  1.00  0.00    -0.024 A 
HETATM   25  C19 UNK     1      30.814  -4.782  37.195  1.00  0.00    -0.026 A 
HETATM   26  C22 UNK     1      29.228  -6.396  38.090  1.00  0.00     0.012 A 
HETATM   27  C21 UNK     1      31.778  -4.437  36.234  1.00  0.00     0.014 A 
HETATM   28  C23 UNK     1      30.451  -3.892  38.221  1.00  0.00     0.012 A 
HETATM   29  C20 UNK     1      32.125  -5.333  35.222  1.00  0.00     0.030 A 
HETATM   30  C25 UNK     1      29.490  -4.251  39.166  1.00  0.00     0.001 A 
HETATM   31  C24 UNK     1      28.880  -5.500  39.102  1.00  0.00     0.001 A 
ENDBRANCH  20  22
ENDBRANCH   8  19
TORSDOF 2
ENDMDL
MODEL 8
REMARK VINA RESULT:      -8.8     14.701     17.681
REMARK  2 active torsions:
REMARK  status: ('A' for Active; 'I' for Inactive)
REMARK    1  A    between atoms: C14_19  and  N1_5 
REMARK    2  A    between atoms: C11_16  and  C4_9 
ROOT
HETATM    1  O1  UNK     1      28.002  -6.228  38.607  1.00  0.00    -0.332 OA
HETATM    2  O2  UNK     1      31.860  -7.687  36.023  1.00  0.00    -0.274 OA
HETATM    3  O3  UNK     1      26.976  -9.180  36.797  1.00  0.00    -0.289 OA
HETATM    4  O4  UNK     1      33.728  -8.378  34.892  1.00  0.00    -0.260 OA
HETATM    5  C1  UNK     1      27.389  -7.515  38.508  1.00  0.00     0.125 C 
HETATM    6  C2  UNK     1      29.864  -6.955  37.210  1.00  0.00     0.048 A 
HETATM    7  C3  UNK     1      27.695  -8.272  37.212  1.00  0.00     0.196 C 
HETATM    8  C4  UNK     1      28.945  -7.861  36.503  1.00  0.00     0.044 C 
HETATM    9  C5  UNK     1      29.318  -6.159  38.226  1.00  0.00     0.084 A 
HETATM   10  C6  UNK     1      25.879  -7.251  38.575  1.00  0.00     0.055 C 
HETATM   11  C7  UNK     1      27.805  -8.376  39.707  1.00  0.00     0.055 C 
HETATM   12  C8  UNK     1      31.243  -6.829  36.966  1.00  0.00     0.103 A 
HETATM   13  C9  UNK     1      32.037  -5.903  37.650  1.00  0.00    -0.001 A 
HETATM   14  C10 UNK     1      30.095  -5.211  38.901  1.00  0.00     0.039 A 
HETATM   15  C12 UNK     1      31.451  -5.081  38.612  1.00  0.00     0.017 A 
HETATM   16  C13 UNK     1      33.457  -5.816  37.346  1.00  0.00     0.020 A 
HETATM   17  C15 UNK     1      34.010  -6.625  36.439  1.00  0.00     0.083 A 
HETATM   18  C16 UNK     1      33.215  -7.632  35.718  1.00  0.00     0.288 A 
ENDROOT
BRANCH   8  19
HETATM   19  C11 UNK     1      29.073  -8.257  35.227  1.00  0.00     0.104 C 
HETATM   20  N1  UNK     1      29.574  -9.428  34.771  1.00  0.00    -0.365 N 
HETATM   21  H10 UNK     1      29.894 -10.090  35.468  1.00  0.00     0.165 HD
BRANCH  20  22
HETATM   22  C14 UNK     1      29.720  -9.865  33.442  1.00  0.00     0.032 A 
HETATM   23  C18 UNK     1      28.979  -9.264  32.421  1.00  0.00     0.041 A 
HETATM   24  C17 UNK     1      29.114  -9.690  31.089  1.00  0.00    -0.024 A 
HETATM   25  C19 UNK     1      30.012 -10.739  30.786  1.00  0.00    -0.026 A 
HETATM   26  C22 UNK     1      28.376  -9.095  30.053  1.00  0.00     0.012 A 
HETATM   27  C21 UNK     1      30.750 -11.334  31.822  1.00  0.00     0.014 A 
HETATM   28  C23 UNK     1      30.147 -11.165  29.454  1.00  0.00     0.012 A 
HETATM   29  C20 UNK     1      30.604 -10.898  33.140  1.00  0.00     0.030 A 
HETATM   30  C25 UNK     1      29.405 -10.564  28.437  1.00  0.00     0.001 A 
HETATM   31  C24 UNK     1      28.521  -9.531  28.735  1.00  0.00     0.001 A 
ENDBRANCH  20  22
ENDBRANCH   8  19
TORSDOF 2
ENDMDL
MODEL 9
REMARK VINA RESULT:      -8.8     24.417     28.064
REMARK  2 active torsions:
REMARK  status: ('A' for Active; 'I' for Inactive)
REMARK    1  A    between atoms: C14_19  and  N1_5 
REMARK    2  A    between atoms: C11_16  and  C4_9 
ROOT
HETATM    1  O1  UNK     1      15.954  15.944   5.881  1.00  0.00    -0.332 OA
HETATM    2  O2  UNK     1      19.086  12.782   7.852  1.00  0.00    -0.274 OA
HETATM    3  O3  UNK     1      14.096  14.035   8.318  1.00  0.00    -0.289 OA
HETATM    4  O4  UNK     1      20.618  11.371   8.804  1.00  0.00    -0.260 OA
HETATM    5  C1  UNK     1      15.056  15.814   6.983  1.00  0.00     0.125 C 
HETATM    6  C2  UNK     1      17.445  14.268   6.837  1.00  0.00     0.048 A 
HETATM    7  C3  UNK     1      15.044  14.431   7.641  1.00  0.00     0.196 C 
HETATM    8  C4  UNK     1      16.274  13.608   7.437  1.00  0.00     0.044 C 
HETATM    9  C5  UNK     1      17.205  15.409   6.059  1.00  0.00     0.084 A 
HETATM   10  C6  UNK     1      13.662  16.093   6.405  1.00  0.00     0.055 C 
HETATM   11  C7  UNK     1      15.384  16.876   8.042  1.00  0.00     0.055 C 
HETATM   12  C8  UNK     1      18.783  13.865   6.989  1.00  0.00     0.103 A 
HETATM   13  C9  UNK     1      19.835  14.519   6.340  1.00  0.00    -0.001 A 
HETATM   14  C10 UNK     1      18.244  16.059   5.384  1.00  0.00     0.039 A 
HETATM   15  C12 UNK     1      19.556  15.613   5.521  1.00  0.00     0.017 A 
HETATM   16  C13 UNK     1      21.198  14.048   6.532  1.00  0.00     0.020 A 
HETATM   17  C15 UNK     1      21.453  13.014   7.337  1.00  0.00     0.083 A 
HETATM   18  C16 UNK     1      20.379  12.315   8.060  1.00  0.00     0.288 A 
ENDROOT
BRANCH   8  19
HETATM   19  C11 UNK     1      16.176  12.298   7.708  1.00  0.00     0.104 C 
HETATM   20  N1  UNK     1      16.243  11.696   8.917  1.00  0.00    -0.365 N 
HETATM   21  H10 UNK     1      16.386  12.298   9.720  1.00  0.00     0.165 HD
BRANCH  20  22
HETATM   22  C14 UNK     1      16.144  10.327   9.227  1.00  0.00     0.032 A 
HETATM   23  C18 UNK     1      14.938   9.649   9.030  1.00  0.00     0.041 A 
HETATM   24  C17 UNK     1      14.824   8.283   9.334  1.00  0.00    -0.024 A 
HETATM   25  C19 UNK     1      15.948   7.592   9.846  1.00  0.00    -0.026 A 
HETATM   26  C22 UNK     1      13.619   7.588   9.142  1.00  0.00     0.012 A 
HETATM   27  C21 UNK     1      17.153   8.286  10.038  1.00  0.00     0.014 A 
HETATM   28  C23 UNK     1      15.833   6.225  10.150  1.00  0.00     0.012 A 
HETATM   29  C20 UNK     1      17.248   9.644   9.730  1.00  0.00     0.030 A 
HETATM   30  C25 UNK     1      14.627   5.551   9.954  1.00  0.00     0.001 A 
HETATM   31  C24 UNK     1      13.522   6.231   9.451  1.00  0.00     0.001 A 
ENDBRANCH  20  22
ENDBRANCH   8  19
TORSDOF 2
ENDMDL
MODEL 10
REMARK VINA RESULT:      -8.7     15.354     18.832
REMARK  2 active torsions:
REMARK  status: ('A' for Active; 'I' for Inactive)
REMARK    1  A    between atoms: C14_19  and  N1_5 
REMARK    2  A    between atoms: C11_16  and  C4_9 
ROOT
HETATM    1  O1  UNK     1      32.528  -4.770  36.959  1.00  0.00    -0.332 OA
HETATM    2  O2  UNK     1      34.211  -8.280  34.037  1.00  0.00    -0.274 OA
HETATM    3  O3  UNK     1      29.689  -6.812  36.058  1.00  0.00    -0.289 OA
HETATM    4  O4  UNK     1      35.067  -9.958  32.734  1.00  0.00    -0.260 OA
HETATM    5  C1  UNK     1      31.348  -5.519  37.258  1.00  0.00     0.125 C 
HETATM    6  C2  UNK     1      33.286  -6.494  35.410  1.00  0.00     0.048 A 
HETATM    7  C3  UNK     1      30.851  -6.414  36.119  1.00  0.00     0.196 C 
HETATM    8  C4  UNK     1      31.880  -6.804  35.108  1.00  0.00     0.044 C 
HETATM    9  C5  UNK     1      33.529  -5.457  36.321  1.00  0.00     0.084 A 
HETATM   10  C6  UNK     1      30.270  -4.472  37.564  1.00  0.00     0.055 C 
HETATM   11  C7  UNK     1      31.588  -6.376  38.509  1.00  0.00     0.055 C 
HETATM   12  C8  UNK     1      34.406  -7.157  34.879  1.00  0.00     0.103 A 
HETATM   13  C9  UNK     1      35.714  -6.765  35.180  1.00  0.00    -0.001 A 
HETATM   14  C10 UNK     1      34.832  -5.038  36.613  1.00  0.00     0.039 A 
HETATM   15  C12 UNK     1      35.922  -5.688  36.041  1.00  0.00     0.017 A 
HETATM   16  C13 UNK     1      36.831  -7.488  34.591  1.00  0.00     0.020 A 
HETATM   17  C15 UNK     1      36.618  -8.532  33.787  1.00  0.00     0.083 A 
HETATM   18  C16 UNK     1      35.258  -8.994  33.467  1.00  0.00     0.288 A 
ENDROOT
BRANCH   8  19
HETATM   19  C11 UNK     1      31.426  -7.299  33.946  1.00  0.00     0.104 C 
HETATM   20  N1  UNK     1      31.444  -8.587  33.533  1.00  0.00    -0.365 N 
HETATM   21  H10 UNK     1      31.847  -9.265  34.168  1.00  0.00     0.165 HD
BRANCH  20  22
HETATM   22  C14 UNK     1      30.977  -9.129  32.322  1.00  0.00     0.032 A 
HETATM   23  C18 UNK     1      29.745  -8.727  31.802  1.00  0.00     0.041 A 
HETATM   24  C17 UNK     1      29.265  -9.260  30.594  1.00  0.00    -0.024 A 
HETATM   25  C19 UNK     1      30.045 -10.215  29.901  1.00  0.00    -0.026 A 
HETATM   26  C22 UNK     1      28.028  -8.865  30.060  1.00  0.00     0.012 A 
HETATM   27  C21 UNK     1      31.282 -10.611  30.436  1.00  0.00     0.014 A 
HETATM   28  C23 UNK     1      29.565 -10.749  28.694  1.00  0.00     0.012 A 
HETATM   29  C20 UNK     1      31.743 -10.070  31.638  1.00  0.00     0.030 A 
HETATM   30  C25 UNK     1      28.333 -10.346  28.178  1.00  0.00     0.001 A 
HETATM   31  C24 UNK     1      27.566  -9.405  28.859  1.00  0.00     0.001 A 
ENDBRANCH  20  22
ENDBRANCH   8  19
TORSDOF 2
ENDMDL
