MODEL 1
REMARK VINA RESULT:      -8.6      0.000      0.000
REMARK  6 active torsions:
REMARK  status: ('A' for Active; 'I' for Inactive)
REMARK    1  A    between atoms: C16_23  and  O2_2 
REMARK    2  A    between atoms: C9_16  and  O2_2 
REMARK    3  A    between atoms: C13_20  and  O4_4 
REMARK    4  A    between atoms: C14_21  and  O5_5 
REMARK       I    between atoms: C17_24  and  N1_7 
REMARK    5  A    between atoms: C7_14  and  C8_15 
REMARK    6  A    between atoms: C16_23  and  C17_24 
ROOT
HETATM    1  O1  UNK     1      19.483   2.270  30.942  1.00  0.00    -0.306 OA
HETATM    2  O3  UNK     1      17.725   2.465  27.875  1.00  0.00    -0.284 OA
HETATM    3  C1  UNK     1      19.029   0.898  29.139  1.00  0.00     0.051 A 
HETATM    4  C2  UNK     1      19.658   1.027  30.376  1.00  0.00     0.093 A 
HETATM    5  C3  UNK     1      18.707   2.989  30.041  1.00  0.00     0.127 A 
HETATM    6  C4  UNK     1      18.375   2.167  28.851  1.00  0.00     0.218 A 
HETATM    7  C5  UNK     1      20.369  -0.016  30.929  1.00  0.00     0.075 A 
HETATM    8  C6  UNK     1      19.079  -0.266  28.401  1.00  0.00     0.021 A 
HETATM    9  C7  UNK     1      18.311   4.249  30.219  1.00  0.00     0.053 C 
HETATM   10  C9  UNK     1      20.435  -1.209  30.200  1.00  0.00     0.072 A 
HETATM   11  C10 UNK     1      19.797  -1.331  28.949  1.00  0.00     0.038 A 
ENDROOT
BRANCH   9  12
HETATM   12  C8  UNK     1      18.621   5.096  31.387  1.00  0.00    -0.031 A 
HETATM   13  C11 UNK     1      17.645   5.313  32.344  1.00  0.00     0.051 A 
HETATM   14  C13 UNK     1      17.937   6.112  33.448  1.00  0.00     0.102 A 
HETATM   15  C14 UNK     1      19.202   6.684  33.580  1.00  0.00     0.101 A 
HETATM   16  C15 UNK     1      20.175   6.456  32.606  1.00  0.00     0.040 A 
HETATM   17  C12 UNK     1      19.882   5.656  31.502  1.00  0.00     0.014 A 
BRANCH  14  18
HETATM   18  O4  UNK     1      16.979   6.329  34.393  1.00  0.00    -0.353 OA
HETATM   19  C18 UNK     1      16.010   7.337  34.114  1.00  0.00     0.210 C 
ENDBRANCH  14  18
BRANCH  15  20
HETATM   20  O5  UNK     1      19.501   7.468  34.653  1.00  0.00    -0.353 OA
HETATM   21  C19 UNK     1      19.511   8.879  34.444  1.00  0.00     0.210 C 
ENDBRANCH  15  20
ENDBRANCH   9  12
BRANCH  10  22
HETATM   22  O2  UNK     1      21.127  -2.268  30.705  1.00  0.00    -0.342 OA
BRANCH  22  23
HETATM   23  C16 UNK     1      20.487  -3.031  31.726  1.00  0.00     0.278 C 
BRANCH  23  24
HETATM   24  C17 UNK     1      20.865  -2.479  33.081  1.00  0.00     0.239 C 
HETATM   25  O6  UNK     1      22.012  -2.181  33.397  1.00  0.00    -0.271 OA
HETATM   26  N1  UNK     1      19.777  -2.351  33.916  1.00  0.00    -0.368 N 
HETATM   27  H16 UNK     1      19.884  -1.991  34.859  1.00  0.00     0.159 HD
HETATM   28  H17 UNK     1      18.838  -2.605  33.627  1.00  0.00     0.159 HD
ENDBRANCH  23  24
ENDBRANCH  22  23
ENDBRANCH  10  22
TORSDOF 6
ENDMDL
MODEL 2
REMARK VINA RESULT:      -8.4      2.284      3.234
REMARK  6 active torsions:
REMARK  status: ('A' for Active; 'I' for Inactive)
REMARK    1  A    between atoms: C16_23  and  O2_2 
REMARK    2  A    between atoms: C9_16  and  O2_2 
REMARK    3  A    between atoms: C13_20  and  O4_4 
REMARK    4  A    between atoms: C14_21  and  O5_5 
REMARK       I    between atoms: C17_24  and  N1_7 
REMARK    5  A    between atoms: C7_14  and  C8_15 
REMARK    6  A    between atoms: C16_23  and  C17_24 
ROOT
HETATM    1  O1  UNK     1      18.001   3.157  33.250  1.00  0.00    -0.306 OA
HETATM    2  O3  UNK     1      18.986   2.642  29.888  1.00  0.00    -0.284 OA
HETATM    3  C1  UNK     1      18.648   1.391  31.907  1.00  0.00     0.051 A 
HETATM    4  C2  UNK     1      18.242   1.803  33.175  1.00  0.00     0.093 A 
HETATM    5  C3  UNK     1      18.259   3.657  31.980  1.00  0.00     0.127 A 
HETATM    6  C4  UNK     1      18.682   2.575  31.058  1.00  0.00     0.218 A 
HETATM    7  C5  UNK     1      18.111   0.904  34.211  1.00  0.00     0.075 A 
HETATM    8  C6  UNK     1      18.941   0.076  31.614  1.00  0.00     0.021 A 
HETATM    9  C7  UNK     1      18.142   4.939  31.632  1.00  0.00     0.053 C 
HETATM   10  C9  UNK     1      18.403  -0.438  33.940  1.00  0.00     0.072 A 
HETATM   11  C10 UNK     1      18.813  -0.846  32.655  1.00  0.00     0.038 A 
ENDROOT
BRANCH   9  12
HETATM   12  C8  UNK     1      17.724   6.041  32.520  1.00  0.00    -0.031 A 
HETATM   13  C11 UNK     1      18.649   6.601  33.384  1.00  0.00     0.051 A 
HETATM   14  C13 UNK     1      18.255   7.643  34.223  1.00  0.00     0.102 A 
HETATM   15  C14 UNK     1      16.941   8.109  34.186  1.00  0.00     0.101 A 
HETATM   16  C15 UNK     1      16.021   7.533  33.310  1.00  0.00     0.040 A 
HETATM   17  C12 UNK     1      16.416   6.491  32.470  1.00  0.00     0.014 A 
BRANCH  14  18
HETATM   18  O4  UNK     1      19.162   8.197  35.076  1.00  0.00    -0.353 OA
HETATM   19  C18 UNK     1      20.089   9.128  34.520  1.00  0.00     0.210 C 
ENDBRANCH  14  18
BRANCH  15  20
HETATM   20  O5  UNK     1      16.543   9.125  35.001  1.00  0.00    -0.353 OA
HETATM   21  C19 UNK     1      16.348  10.403  34.397  1.00  0.00     0.210 C 
ENDBRANCH  15  20
ENDBRANCH   9  12
BRANCH  10  22
HETATM   22  O2  UNK     1      18.288  -1.364  34.933  1.00  0.00    -0.342 OA
BRANCH  22  23
HETATM   23  C16 UNK     1      19.294  -1.356  35.944  1.00  0.00     0.278 C 
BRANCH  23  24
HETATM   24  C17 UNK     1      20.364  -2.365  35.600  1.00  0.00     0.239 C 
HETATM   25  O6  UNK     1      21.527  -2.064  35.349  1.00  0.00    -0.271 OA
HETATM   26  N1  UNK     1      19.885  -3.657  35.600  1.00  0.00    -0.368 N 
HETATM   27  H16 UNK     1      20.495  -4.439  35.385  1.00  0.00     0.159 HD
HETATM   28  H17 UNK     1      18.918  -3.877  35.812  1.00  0.00     0.159 HD
ENDBRANCH  23  24
ENDBRANCH  22  23
ENDBRANCH  10  22
TORSDOF 6
ENDMDL
MODEL 3
REMARK VINA RESULT:      -8.3      4.355     10.140
REMARK  6 active torsions:
REMARK  status: ('A' for Active; 'I' for Inactive)
REMARK    1  A    between atoms: C16_23  and  O2_2 
REMARK    2  A    between atoms: C9_16  and  O2_2 
REMARK    3  A    between atoms: C13_20  and  O4_4 
REMARK    4  A    between atoms: C14_21  and  O5_5 
REMARK       I    between atoms: C17_24  and  N1_7 
REMARK    5  A    between atoms: C7_14  and  C8_15 
REMARK    6  A    between atoms: C16_23  and  C17_24 
ROOT
HETATM    1  O1  UNK     1      17.195   7.683  32.930  1.00  0.00    -0.306 OA
HETATM    2  O3  UNK     1      20.085   9.270  34.222  1.00  0.00    -0.284 OA
HETATM    3  C1  UNK     1      17.730   9.665  33.992  1.00  0.00     0.051 A 
HETATM    4  C2  UNK     1      16.727   8.878  33.428  1.00  0.00     0.093 A 
HETATM    5  C3  UNK     1      18.563   7.682  33.176  1.00  0.00     0.127 A 
HETATM    6  C4  UNK     1      18.981   8.930  33.860  1.00  0.00     0.218 A 
HETATM    7  C5  UNK     1      15.417   9.304  33.399  1.00  0.00     0.075 A 
HETATM    8  C6  UNK     1      17.478  10.901  34.548  1.00  0.00     0.021 A 
HETATM    9  C7  UNK     1      19.392   6.692  32.844  1.00  0.00     0.053 C 
HETATM   10  C9  UNK     1      15.133  10.555  33.957  1.00  0.00     0.072 A 
HETATM   11  C10 UNK     1      16.154  11.345  34.525  1.00  0.00     0.038 A 
ENDROOT
BRANCH   9  12
HETATM   12  C8  UNK     1      19.012   5.438  32.165  1.00  0.00    -0.031 A 
HETATM   13  C11 UNK     1      18.449   4.413  32.904  1.00  0.00     0.051 A 
HETATM   14  C13 UNK     1      18.089   3.227  32.262  1.00  0.00     0.102 A 
HETATM   15  C14 UNK     1      18.300   3.085  30.891  1.00  0.00     0.101 A 
HETATM   16  C15 UNK     1      18.870   4.128  30.161  1.00  0.00     0.040 A 
HETATM   17  C12 UNK     1      19.229   5.314  30.803  1.00  0.00     0.014 A 
BRANCH  14  18
HETATM   18  O4  UNK     1      17.534   2.215  32.985  1.00  0.00    -0.353 OA
HETATM   19  C18 UNK     1      18.170   1.872  34.214  1.00  0.00     0.210 C 
ENDBRANCH  14  18
BRANCH  15  20
HETATM   20  O5  UNK     1      17.955   1.932  30.252  1.00  0.00    -0.353 OA
HETATM   21  C19 UNK     1      18.224   1.859  28.854  1.00  0.00     0.210 C 
ENDBRANCH  15  20
ENDBRANCH   9  12
BRANCH  10  22
HETATM   22  O2  UNK     1      13.852  11.019  33.952  1.00  0.00    -0.342 OA
BRANCH  22  23
HETATM   23  C16 UNK     1      13.371  11.578  32.731  1.00  0.00     0.278 C 
BRANCH  23  24
HETATM   24  C17 UNK     1      11.868  11.437  32.670  1.00  0.00     0.239 C 
HETATM   25  O6  UNK     1      11.089  12.231  33.187  1.00  0.00    -0.271 OA
HETATM   26  N1  UNK     1      11.475  10.317  31.969  1.00  0.00    -0.368 N 
HETATM   27  H16 UNK     1      10.492  10.097  31.848  1.00  0.00     0.159 HD
HETATM   28  H17 UNK     1      12.142   9.677  31.550  1.00  0.00     0.159 HD
ENDBRANCH  23  24
ENDBRANCH  22  23
ENDBRANCH  10  22
TORSDOF 6
ENDMDL
MODEL 4
REMARK VINA RESULT:      -8.3      2.423      3.034
REMARK  6 active torsions:
REMARK  status: ('A' for Active; 'I' for Inactive)
REMARK    1  A    between atoms: C16_23  and  O2_2 
REMARK    2  A    between atoms: C9_16  and  O2_2 
REMARK    3  A    between atoms: C13_20  and  O4_4 
REMARK    4  A    between atoms: C14_21  and  O5_5 
REMARK       I    between atoms: C17_24  and  N1_7 
REMARK    5  A    between atoms: C7_14  and  C8_15 
REMARK    6  A    between atoms: C16_23  and  C17_24 
ROOT
HETATM    1  O1  UNK     1      18.021   3.281  33.148  1.00  0.00    -0.306 OA
HETATM    2  O3  UNK     1      19.023   2.697  29.802  1.00  0.00    -0.284 OA
HETATM    3  C1  UNK     1      18.677   1.488  31.845  1.00  0.00     0.051 A 
HETATM    4  C2  UNK     1      18.264   1.926  33.102  1.00  0.00     0.093 A 
HETATM    5  C3  UNK     1      18.285   3.754  31.868  1.00  0.00     0.127 A 
HETATM    6  C4  UNK     1      18.714   2.653  30.971  1.00  0.00     0.218 A 
HETATM    7  C5  UNK     1      18.130   1.049  34.156  1.00  0.00     0.075 A 
HETATM    8  C6  UNK     1      18.973   0.168  31.582  1.00  0.00     0.021 A 
HETATM    9  C7  UNK     1      18.168   5.028  31.493  1.00  0.00     0.053 C 
HETATM   10  C9  UNK     1      18.424  -0.298  33.916  1.00  0.00     0.072 A 
HETATM   11  C10 UNK     1      18.842  -0.733  32.642  1.00  0.00     0.038 A 
ENDROOT
BRANCH   9  12
HETATM   12  C8  UNK     1      17.744   6.148  32.355  1.00  0.00    -0.031 A 
HETATM   13  C11 UNK     1      16.404   6.486  32.415  1.00  0.00     0.051 A 
HETATM   14  C13 UNK     1      16.003   7.544  33.231  1.00  0.00     0.102 A 
HETATM   15  C14 UNK     1      16.949   8.250  33.972  1.00  0.00     0.101 A 
HETATM   16  C15 UNK     1      18.297   7.897  33.900  1.00  0.00     0.040 A 
HETATM   17  C12 UNK     1      18.697   6.838  33.085  1.00  0.00     0.014 A 
BRANCH  14  18
HETATM   18  O4  UNK     1      14.684   7.880  33.293  1.00  0.00    -0.353 OA
HETATM   19  C18 UNK     1      13.819   7.294  32.323  1.00  0.00     0.210 C 
ENDBRANCH  14  18
BRANCH  15  20
HETATM   20  O5  UNK     1      16.571   9.286  34.772  1.00  0.00    -0.353 OA
HETATM   21  C19 UNK     1      16.597  10.592  34.198  1.00  0.00     0.210 C 
ENDBRANCH  15  20
ENDBRANCH   9  12
BRANCH  10  22
HETATM   22  O2  UNK     1      18.306  -1.203  34.927  1.00  0.00    -0.342 OA
BRANCH  22  23
HETATM   23  C16 UNK     1      19.338  -1.210  35.912  1.00  0.00     0.278 C 
BRANCH  23  24
HETATM   24  C17 UNK     1      20.336  -2.297  35.589  1.00  0.00     0.239 C 
HETATM   25  O6  UNK     1      21.511  -2.080  35.307  1.00  0.00    -0.271 OA
HETATM   26  N1  UNK     1      19.778  -3.556  35.647  1.00  0.00    -0.368 N 
HETATM   27  H16 UNK     1      20.334  -4.382  35.452  1.00  0.00     0.159 HD
HETATM   28  H17 UNK     1      18.803  -3.706  35.883  1.00  0.00     0.159 HD
ENDBRANCH  23  24
ENDBRANCH  22  23
ENDBRANCH  10  22
TORSDOF 6
ENDMDL
MODEL 5
REMARK VINA RESULT:      -8.3     22.039     24.683
REMARK  6 active torsions:
REMARK  status: ('A' for Active; 'I' for Inactive)
REMARK    1  A    between atoms: C16_23  and  O2_2 
REMARK    2  A    between atoms: C9_16  and  O2_2 
REMARK    3  A    between atoms: C13_20  and  O4_4 
REMARK    4  A    between atoms: C14_21  and  O5_5 
REMARK       I    between atoms: C17_24  and  N1_7 
REMARK    5  A    between atoms: C7_14  and  C8_15 
REMARK    6  A    between atoms: C16_23  and  C17_24 
ROOT
HETATM    1  O1  UNK     1       9.990   5.189   9.160  1.00  0.00    -0.306 OA
HETATM    2  O3  UNK     1       8.978   6.758   6.152  1.00  0.00    -0.284 OA
HETATM    3  C1  UNK     1      10.986   6.088   7.279  1.00  0.00     0.051 A 
HETATM    4  C2  UNK     1      11.172   5.459   8.509  1.00  0.00     0.093 A 
HETATM    5  C3  UNK     1       8.983   5.659   8.325  1.00  0.00     0.127 A 
HETATM    6  C4  UNK     1       9.551   6.254   7.091  1.00  0.00     0.218 A 
HETATM    7  C5  UNK     1      12.434   5.161   8.976  1.00  0.00     0.075 A 
HETATM    8  C6  UNK     1      12.039   6.447   6.465  1.00  0.00     0.021 A 
HETATM    9  C7  UNK     1       7.680   5.587   8.595  1.00  0.00     0.053 C 
HETATM   10  C9  UNK     1      13.520   5.515   8.168  1.00  0.00     0.072 A 
HETATM   11  C10 UNK     1      13.324   6.152   6.926  1.00  0.00     0.038 A 
ENDROOT
BRANCH   9  12
HETATM   12  C8  UNK     1       7.079   5.003   9.810  1.00  0.00    -0.031 A 
HETATM   13  C11 UNK     1       6.658   3.685   9.790  1.00  0.00     0.051 A 
HETATM   14  C13 UNK     1       6.090   3.133  10.938  1.00  0.00     0.102 A 
HETATM   15  C14 UNK     1       5.952   3.908  12.089  1.00  0.00     0.101 A 
HETATM   16  C15 UNK     1       6.381   5.235  12.093  1.00  0.00     0.040 A 
HETATM   17  C12 UNK     1       6.949   5.787  10.944  1.00  0.00     0.014 A 
BRANCH  14  18
HETATM   18  O4  UNK     1       5.674   1.835  10.923  1.00  0.00    -0.353 OA
HETATM   19  C18 UNK     1       5.154   1.336   9.694  1.00  0.00     0.210 C 
ENDBRANCH  14  18
BRANCH  15  20
HETATM   20  O5  UNK     1       5.399   3.381  13.217  1.00  0.00    -0.353 OA
HETATM   21  C19 UNK     1       5.795   3.952  14.462  1.00  0.00     0.210 C 
ENDBRANCH  15  20
ENDBRANCH   9  12
BRANCH  10  22
HETATM   22  O2  UNK     1      14.787   5.242   8.588  1.00  0.00    -0.342 OA
BRANCH  22  23
HETATM   23  C16 UNK     1      14.997   5.147   9.995  1.00  0.00     0.278 C 
BRANCH  23  24
HETATM   24  C17 UNK     1      15.566   6.448  10.510  1.00  0.00     0.239 C 
HETATM   25  O6  UNK     1      14.906   7.286  11.116  1.00  0.00    -0.271 OA
HETATM   26  N1  UNK     1      16.906   6.585  10.220  1.00  0.00    -0.368 N 
HETATM   27  H16 UNK     1      17.420   7.412  10.506  1.00  0.00     0.159 HD
HETATM   28  H17 UNK     1      17.428   5.874   9.717  1.00  0.00     0.159 HD
ENDBRANCH  23  24
ENDBRANCH  22  23
ENDBRANCH  10  22
TORSDOF 6
ENDMDL
MODEL 6
REMARK VINA RESULT:      -8.2      4.570     10.042
REMARK  6 active torsions:
REMARK  status: ('A' for Active; 'I' for Inactive)
REMARK    1  A    between atoms: C16_23  and  O2_2 
REMARK    2  A    between atoms: C9_16  and  O2_2 
REMARK    3  A    between atoms: C13_20  and  O4_4 
REMARK    4  A    between atoms: C14_21  and  O5_5 
REMARK       I    between atoms: C17_24  and  N1_7 
REMARK    5  A    between atoms: C7_14  and  C8_15 
REMARK    6  A    between atoms: C16_23  and  C17_24 
ROOT
HETATM    1  O1  UNK     1      19.541  -2.398  34.808  1.00  0.00    -0.306 OA
HETATM    2  O3  UNK     1      18.248  -0.134  37.204  1.00  0.00    -0.284 OA
HETATM    3  C1  UNK     1      18.640  -0.271  34.841  1.00  0.00     0.051 A 
HETATM    4  C2  UNK     1      19.182  -1.295  34.067  1.00  0.00     0.093 A 
HETATM    5  C3  UNK     1      19.223  -2.087  36.124  1.00  0.00     0.127 A 
HETATM    6  C4  UNK     1      18.636  -0.729  36.224  1.00  0.00     0.218 A 
HETATM    7  C5  UNK     1      19.321  -1.162  32.702  1.00  0.00     0.075 A 
HETATM    8  C6  UNK     1      18.215   0.923  34.297  1.00  0.00     0.021 A 
HETATM    9  C7  UNK     1      19.417  -2.902  37.162  1.00  0.00     0.053 C 
HETATM   10  C9  UNK     1      18.896   0.040  32.125  1.00  0.00     0.072 A 
HETATM   11  C10 UNK     1      18.350   1.071  32.915  1.00  0.00     0.038 A 
ENDROOT
BRANCH   9  12
HETATM   12  C8  UNK     1      19.997  -4.257  37.102  1.00  0.00    -0.031 A 
HETATM   13  C11 UNK     1      19.403  -5.211  36.294  1.00  0.00     0.051 A 
HETATM   14  C13 UNK     1      19.951  -6.493  36.236  1.00  0.00     0.102 A 
HETATM   15  C14 UNK     1      21.084  -6.801  36.989  1.00  0.00     0.101 A 
HETATM   16  C15 UNK     1      21.670  -5.828  37.798  1.00  0.00     0.040 A 
HETATM   17  C12 UNK     1      21.122  -4.546  37.855  1.00  0.00     0.014 A 
BRANCH  14  18
HETATM   18  O4  UNK     1      19.370  -7.435  35.442  1.00  0.00    -0.353 OA
HETATM   19  C18 UNK     1      17.980  -7.682  35.641  1.00  0.00     0.210 C 
ENDBRANCH  14  18
BRANCH  15  20
HETATM   20  O5  UNK     1      21.628  -8.049  36.942  1.00  0.00    -0.353 OA
HETATM   21  C19 UNK     1      21.321  -8.932  38.019  1.00  0.00     0.210 C 
ENDBRANCH  15  20
ENDBRANCH   9  12
BRANCH  10  22
HETATM   22  O2  UNK     1      19.014   0.218  30.779  1.00  0.00    -0.342 OA
BRANCH  22  23
HETATM   23  C16 UNK     1      18.783   1.533  30.278  1.00  0.00     0.278 C 
BRANCH  23  24
HETATM   24  C17 UNK     1      18.410   1.457  28.816  1.00  0.00     0.239 C 
HETATM   25  O6  UNK     1      17.925   2.393  28.188  1.00  0.00    -0.271 OA
HETATM   26  N1  UNK     1      18.675   0.219  28.271  1.00  0.00    -0.368 N 
HETATM   27  H16 UNK     1      18.474   0.026  27.295  1.00  0.00     0.159 HD
HETATM   28  H17 UNK     1      19.078  -0.537  28.813  1.00  0.00     0.159 HD
ENDBRANCH  23  24
ENDBRANCH  22  23
ENDBRANCH  10  22
TORSDOF 6
ENDMDL
MODEL 7
REMARK VINA RESULT:      -8.2      4.590     10.248
REMARK  6 active torsions:
REMARK  status: ('A' for Active; 'I' for Inactive)
REMARK    1  A    between atoms: C16_23  and  O2_2 
REMARK    2  A    between atoms: C9_16  and  O2_2 
REMARK    3  A    between atoms: C13_20  and  O4_4 
REMARK    4  A    between atoms: C14_21  and  O5_5 
REMARK       I    between atoms: C17_24  and  N1_7 
REMARK    5  A    between atoms: C7_14  and  C8_15 
REMARK    6  A    between atoms: C16_23  and  C17_24 
ROOT
HETATM    1  O1  UNK     1      19.654  -2.612  34.702  1.00  0.00    -0.306 OA
HETATM    2  O3  UNK     1      18.263  -0.472  37.155  1.00  0.00    -0.284 OA
HETATM    3  C1  UNK     1      18.724  -0.499  34.801  1.00  0.00     0.051 A 
HETATM    4  C2  UNK     1      19.302  -1.481  33.999  1.00  0.00     0.093 A 
HETATM    5  C3  UNK     1      19.294  -2.363  36.021  1.00  0.00     0.127 A 
HETATM    6  C4  UNK     1      18.687  -1.018  36.162  1.00  0.00     0.218 A 
HETATM    7  C5  UNK     1      19.478  -1.287  32.646  1.00  0.00     0.075 A 
HETATM    8  C6  UNK     1      18.299   0.712  34.298  1.00  0.00     0.021 A 
HETATM    9  C7  UNK     1      19.469  -3.220  37.027  1.00  0.00     0.053 C 
HETATM   10  C9  UNK     1      19.055  -0.066  32.110  1.00  0.00     0.072 A 
HETATM   11  C10 UNK     1      18.472   0.923  32.929  1.00  0.00     0.038 A 
ENDROOT
BRANCH   9  12
HETATM   12  C8  UNK     1      20.068  -4.565  36.925  1.00  0.00    -0.031 A 
HETATM   13  C11 UNK     1      21.144  -4.889  37.732  1.00  0.00     0.051 A 
HETATM   14  C13 UNK     1      21.710  -6.160  37.636  1.00  0.00     0.102 A 
HETATM   15  C14 UNK     1      21.192  -7.088  36.732  1.00  0.00     0.101 A 
HETATM   16  C15 UNK     1      20.107  -6.745  35.925  1.00  0.00     0.040 A 
HETATM   17  C12 UNK     1      19.541  -5.473  36.022  1.00  0.00     0.014 A 
BRANCH  14  18
HETATM   18  O4  UNK     1      22.770  -6.484  38.429  1.00  0.00    -0.353 OA
HETATM   19  C18 UNK     1      22.476  -7.018  39.718  1.00  0.00     0.210 C 
ENDBRANCH  14  18
BRANCH  15  20
HETATM   20  O5  UNK     1      21.737  -8.332  36.628  1.00  0.00    -0.353 OA
HETATM   21  C19 UNK     1      21.469  -9.059  35.430  1.00  0.00     0.210 C 
ENDBRANCH  15  20
ENDBRANCH   9  12
BRANCH  10  22
HETATM   22  O2  UNK     1      19.208   0.173  30.778  1.00  0.00    -0.342 OA
BRANCH  22  23
HETATM   23  C16 UNK     1      18.799   1.452  30.298  1.00  0.00     0.278 C 
BRANCH  23  24
HETATM   24  C17 UNK     1      18.454   1.353  28.830  1.00  0.00     0.239 C 
HETATM   25  O6  UNK     1      17.976   2.278  28.180  1.00  0.00    -0.271 OA
HETATM   26  N1  UNK     1      18.737   0.110  28.308  1.00  0.00    -0.368 N 
HETATM   27  H16 UNK     1      18.555  -0.099  27.332  1.00  0.00     0.159 HD
HETATM   28  H17 UNK     1      19.133  -0.637  28.869  1.00  0.00     0.159 HD
ENDBRANCH  23  24
ENDBRANCH  22  23
ENDBRANCH  10  22
TORSDOF 6
ENDMDL
MODEL 8
REMARK VINA RESULT:      -8.2      3.685      5.849
REMARK  6 active torsions:
REMARK  status: ('A' for Active; 'I' for Inactive)
REMARK    1  A    between atoms: C16_23  and  O2_2 
REMARK    2  A    between atoms: C9_16  and  O2_2 
REMARK    3  A    between atoms: C13_20  and  O4_4 
REMARK    4  A    between atoms: C14_21  and  O5_5 
REMARK       I    between atoms: C17_24  and  N1_7 
REMARK    5  A    between atoms: C7_14  and  C8_15 
REMARK    6  A    between atoms: C16_23  and  C17_24 
ROOT
HETATM    1  O1  UNK     1      18.958   0.305  34.626  1.00  0.00    -0.306 OA
HETATM    2  O3  UNK     1      17.494   1.133  37.742  1.00  0.00    -0.284 OA
HETATM    3  C1  UNK     1      18.621  -0.699  36.680  1.00  0.00     0.051 A 
HETATM    4  C2  UNK     1      19.137  -0.825  35.392  1.00  0.00     0.093 A 
HETATM    5  C3  UNK     1      18.295   1.213  35.444  1.00  0.00     0.127 A 
HETATM    6  C4  UNK     1      18.044   0.634  36.786  1.00  0.00     0.218 A 
HETATM    7  C5  UNK     1      19.755  -1.986  34.980  1.00  0.00     0.075 A 
HETATM    8  C6  UNK     1      18.695  -1.714  37.610  1.00  0.00     0.021 A 
HETATM    9  C7  UNK     1      17.933   2.441  35.073  1.00  0.00     0.053 C 
HETATM   10  C9  UNK     1      19.844  -3.032  35.905  1.00  0.00     0.072 A 
HETATM   11  C10 UNK     1      19.318  -2.897  37.206  1.00  0.00     0.038 A 
ENDROOT
BRANCH   9  12
HETATM   12  C8  UNK     1      18.166   3.050  33.750  1.00  0.00    -0.031 A 
HETATM   13  C11 UNK     1      18.183   2.241  32.627  1.00  0.00     0.051 A 
HETATM   14  C13 UNK     1      18.403   2.815  31.375  1.00  0.00     0.102 A 
HETATM   15  C14 UNK     1      18.604   4.191  31.265  1.00  0.00     0.101 A 
HETATM   16  C15 UNK     1      18.584   4.993  32.407  1.00  0.00     0.040 A 
HETATM   17  C12 UNK     1      18.364   4.417  33.659  1.00  0.00     0.014 A 
BRANCH  14  18
HETATM   18  O4  UNK     1      18.420   2.023  30.267  1.00  0.00    -0.353 OA
HETATM   19  C18 UNK     1      19.109   0.779  30.371  1.00  0.00     0.210 C 
ENDBRANCH  14  18
BRANCH  15  20
HETATM   20  O5  UNK     1      18.820   4.765  30.049  1.00  0.00    -0.353 OA
HETATM   21  C19 UNK     1      19.738   5.855  29.999  1.00  0.00     0.210 C 
ENDBRANCH  15  20
ENDBRANCH   9  12
BRANCH  10  22
HETATM   22  O2  UNK     1      20.446  -4.200  35.544  1.00  0.00    -0.342 OA
BRANCH  22  23
HETATM   23  C16 UNK     1      19.924  -5.400  36.112  1.00  0.00     0.278 C 
BRANCH  23  24
HETATM   24  C17 UNK     1      19.812  -6.458  35.040  1.00  0.00     0.239 C 
HETATM   25  O6  UNK     1      20.663  -6.643  34.175  1.00  0.00    -0.271 OA
HETATM   26  N1  UNK     1      18.648  -7.189  35.145  1.00  0.00    -0.368 N 
HETATM   27  H16 UNK     1      18.441  -7.935  34.489  1.00  0.00     0.159 HD
HETATM   28  H17 UNK     1      17.962  -7.015  35.871  1.00  0.00     0.159 HD
ENDBRANCH  23  24
ENDBRANCH  22  23
ENDBRANCH  10  22
TORSDOF 6
ENDMDL
MODEL 9
REMARK VINA RESULT:      -8.0      1.622      2.296
REMARK  6 active torsions:
REMARK  status: ('A' for Active; 'I' for Inactive)
REMARK    1  A    between atoms: C16_23  and  O2_2 
REMARK    2  A    between atoms: C9_16  and  O2_2 
REMARK    3  A    between atoms: C13_20  and  O4_4 
REMARK    4  A    between atoms: C14_21  and  O5_5 
REMARK       I    between atoms: C17_24  and  N1_7 
REMARK    5  A    between atoms: C7_14  and  C8_15 
REMARK    6  A    between atoms: C16_23  and  C17_24 
ROOT
HETATM    1  O1  UNK     1      19.609   1.132  31.153  1.00  0.00    -0.306 OA
HETATM    2  O3  UNK     1      19.200   0.081  27.797  1.00  0.00    -0.284 OA
HETATM    3  C1  UNK     1      19.872  -0.806  29.922  1.00  0.00     0.051 A 
HETATM    4  C2  UNK     1      19.967  -0.197  31.172  1.00  0.00     0.093 A 
HETATM    5  C3  UNK     1      19.264   1.410  29.836  1.00  0.00     0.127 A 
HETATM    6  C4  UNK     1      19.408   0.207  28.982  1.00  0.00     0.218 A 
HETATM    7  C5  UNK     1      20.384  -0.903  32.280  1.00  0.00     0.075 A 
HETATM    8  C6  UNK     1      20.183  -2.133  29.719  1.00  0.00     0.021 A 
HETATM    9  C7  UNK     1      18.855   2.601  29.396  1.00  0.00     0.053 C 
HETATM   10  C9  UNK     1      20.706  -2.253  32.101  1.00  0.00     0.072 A 
HETATM   11  C10 UNK     1      20.607  -2.860  30.833  1.00  0.00     0.038 A 
ENDROOT
BRANCH   9  12
HETATM   12  C8  UNK     1      18.699   3.819  30.215  1.00  0.00    -0.031 A 
HETATM   13  C11 UNK     1      18.325   3.698  31.541  1.00  0.00     0.051 A 
HETATM   14  C13 UNK     1      18.178   4.849  32.316  1.00  0.00     0.102 A 
HETATM   15  C14 UNK     1      18.406   6.104  31.751  1.00  0.00     0.101 A 
HETATM   16  C15 UNK     1      18.783   6.208  30.411  1.00  0.00     0.040 A 
HETATM   17  C12 UNK     1      18.930   5.056  29.638  1.00  0.00     0.014 A 
BRANCH  14  18
HETATM   18  O4  UNK     1      17.809   4.736  33.623  1.00  0.00    -0.353 OA
HETATM   19  C18 UNK     1      18.231   3.563  34.315  1.00  0.00     0.210 C 
ENDBRANCH  14  18
BRANCH  15  20
HETATM   20  O5  UNK     1      18.265   7.236  32.495  1.00  0.00    -0.353 OA
HETATM   21  C19 UNK     1      19.358   7.600  33.336  1.00  0.00     0.210 C 
ENDBRANCH  15  20
ENDBRANCH   9  12
BRANCH  10  22
HETATM   22  O2  UNK     1      21.123  -2.991  33.167  1.00  0.00    -0.342 OA
BRANCH  22  23
HETATM   23  C16 UNK     1      20.292  -2.980  34.327  1.00  0.00     0.278 C 
BRANCH  23  24
HETATM   24  C17 UNK     1      21.063  -2.410  35.494  1.00  0.00     0.239 C 
HETATM   25  O6  UNK     1      22.076  -1.728  35.372  1.00  0.00    -0.271 OA
HETATM   26  N1  UNK     1      20.499  -2.743  36.707  1.00  0.00    -0.368 N 
HETATM   27  H16 UNK     1      20.913  -2.427  37.578  1.00  0.00     0.159 HD
HETATM   28  H17 UNK     1      19.660  -3.308  36.778  1.00  0.00     0.159 HD
ENDBRANCH  23  24
ENDBRANCH  22  23
ENDBRANCH  10  22
TORSDOF 6
ENDMDL
MODEL 10
REMARK VINA RESULT:      -8.0     21.517     24.116
REMARK  6 active torsions:
REMARK  status: ('A' for Active; 'I' for Inactive)
REMARK    1  A    between atoms: C16_23  and  O2_2 
REMARK    2  A    between atoms: C9_16  and  O2_2 
REMARK    3  A    between atoms: C13_20  and  O4_4 
REMARK    4  A    between atoms: C14_21  and  O5_5 
REMARK       I    between atoms: C17_24  and  N1_7 
REMARK    5  A    between atoms: C7_14  and  C8_15 
REMARK    6  A    between atoms: C16_23  and  C17_24 
ROOT
HETATM    1  O1  UNK     1       8.924   5.817   9.973  1.00  0.00    -0.306 OA
HETATM    2  O3  UNK     1       7.425   7.179   7.069  1.00  0.00    -0.284 OA
HETATM    3  C1  UNK     1       9.506   6.214   7.772  1.00  0.00     0.051 A 
HETATM    4  C2  UNK     1       9.906   5.721   9.013  1.00  0.00     0.093 A 
HETATM    5  C3  UNK     1       7.832   6.396   9.338  1.00  0.00     0.127 A 
HETATM    6  C4  UNK     1       8.133   6.680   7.915  1.00  0.00     0.218 A 
HETATM    7  C5  UNK     1      11.169   5.203   9.202  1.00  0.00     0.075 A 
HETATM    8  C6  UNK     1      10.337   6.213   6.672  1.00  0.00     0.021 A 
HETATM    9  C7  UNK     1       6.666   6.661   9.929  1.00  0.00     0.053 C 
HETATM   10  C9  UNK     1      12.033   5.191   8.101  1.00  0.00     0.072 A 
HETATM   11  C10 UNK     1      11.620   5.691   6.849  1.00  0.00     0.038 A 
ENDROOT
BRANCH   9  12
HETATM   12  C8  UNK     1       6.331   6.392  11.341  1.00  0.00    -0.031 A 
HETATM   13  C11 UNK     1       6.205   5.082  11.768  1.00  0.00     0.051 A 
HETATM   14  C13 UNK     1       5.889   4.827  13.103  1.00  0.00     0.102 A 
HETATM   15  C14 UNK     1       5.701   5.887  13.989  1.00  0.00     0.101 A 
HETATM   16  C15 UNK     1       5.831   7.202  13.542  1.00  0.00     0.040 A 
HETATM   17  C12 UNK     1       6.148   7.456  12.207  1.00  0.00     0.014 A 
BRANCH  14  18
HETATM   18  O4  UNK     1       5.764   3.539  13.528  1.00  0.00    -0.353 OA
HETATM   19  C18 UNK     1       4.760   2.744  12.902  1.00  0.00     0.210 C 
ENDBRANCH  14  18
BRANCH  15  20
HETATM   20  O5  UNK     1       5.391   5.652  15.295  1.00  0.00    -0.353 OA
HETATM   21  C19 UNK     1       5.598   6.723  16.214  1.00  0.00     0.210 C 
ENDBRANCH  15  20
ENDBRANCH   9  12
BRANCH  10  22
HETATM   22  O2  UNK     1      13.291   4.688   8.239  1.00  0.00    -0.342 OA
BRANCH  22  23
HETATM   23  C16 UNK     1      14.324   5.613   8.577  1.00  0.00     0.278 C 
BRANCH  23  24
HETATM   24  C17 UNK     1      14.817   5.330   9.977  1.00  0.00     0.239 C 
HETATM   25  O6  UNK     1      15.003   6.200  10.821  1.00  0.00    -0.271 OA
HETATM   26  N1  UNK     1      15.033   3.986  10.194  1.00  0.00    -0.368 N 
HETATM   27  H16 UNK     1      15.366   3.651  11.092  1.00  0.00     0.159 HD
HETATM   28  H17 UNK     1      14.870   3.287   9.477  1.00  0.00     0.159 HD
ENDBRANCH  23  24
ENDBRANCH  22  23
ENDBRANCH  10  22
TORSDOF 6
ENDMDL
