MODEL 1
REMARK VINA RESULT:      -7.8      0.000      0.000
REMARK  1 active torsions:
REMARK  status: ('A' for Active; 'I' for Inactive)
REMARK    1  A    between atoms: C3_8  and  N1_5 
ROOT
HETATM    1 Cl1  UNK     1      18.875   1.100  30.168  1.00  0.00    -0.084 Cl
HETATM    2  O2  UNK     1      20.485  -3.113  33.966  1.00  0.00    -0.275 OA
HETATM    3  O3  UNK     1      20.469  -4.009  36.069  1.00  0.00    -0.260 OA
HETATM    4  C3  UNK     1      18.872  -0.999  34.963  1.00  0.00     0.049 A 
HETATM    5  C6  UNK     1      19.280  -1.025  33.547  1.00  0.00     0.026 A 
HETATM    6  C7  UNK     1      20.075  -2.084  33.097  1.00  0.00     0.092 A 
HETATM    7  C8  UNK     1      19.283  -1.999  35.759  1.00  0.00     0.113 A 
HETATM    8  C9  UNK     1      18.923  -0.048  32.604  1.00  0.00     0.041 A 
HETATM    9  C10 UNK     1      20.507  -2.188  31.772  1.00  0.00     0.046 A 
HETATM   10  C11 UNK     1      20.140  -1.208  30.858  1.00  0.00    -0.038 A 
HETATM   11  C12 UNK     1      20.119  -3.119  35.301  1.00  0.00     0.290 A 
HETATM   12  C13 UNK     1      19.350  -0.140  31.273  1.00  0.00     0.041 A 
HETATM   13  C14 UNK     1      20.614  -1.337  29.446  1.00  0.00     0.050 C 
ENDROOT
BRANCH   4  14
HETATM   14  N1  UNK     1      18.097   0.023  35.427  1.00  0.00    -0.376 N 
HETATM   15  C1  UNK     1      18.667   1.261  35.959  1.00  0.00     0.149 C 
HETATM   16  C4  UNK     1      17.924   1.652  37.231  1.00  0.00     0.187 C 
HETATM   17  O1  UNK     1      16.521   1.749  36.977  1.00  0.00    -0.388 OA
HETATM   18  C5  UNK     1      15.990   0.489  36.559  1.00  0.00     0.187 C 
HETATM   19  C2  UNK     1      16.644   0.045  35.255  1.00  0.00     0.149 C 
ENDBRANCH   4  14
TORSDOF 1
ENDMDL
MODEL 2
REMARK VINA RESULT:      -7.4      2.605      3.721
REMARK  1 active torsions:
REMARK  status: ('A' for Active; 'I' for Inactive)
REMARK    1  A    between atoms: C3_8  and  N1_5 
ROOT
HETATM    1 Cl1  UNK     1      17.649   4.954  32.799  1.00  0.00    -0.084 Cl
HETATM    2  O2  UNK     1      19.613  -0.154  30.604  1.00  0.00    -0.275 OA
HETATM    3  O3  UNK     1      19.988  -2.398  30.817  1.00  0.00    -0.260 OA
HETATM    4  C3  UNK     1      18.532  -0.188  33.229  1.00  0.00     0.049 A 
HETATM    5  C6  UNK     1      18.590   1.069  32.460  1.00  0.00     0.026 A 
HETATM    6  C7  UNK     1      19.130   1.042  31.171  1.00  0.00     0.092 A 
HETATM    7  C8  UNK     1      19.001  -1.306  32.653  1.00  0.00     0.113 A 
HETATM    8  C9  UNK     1      18.136   2.308  32.937  1.00  0.00     0.041 A 
HETATM    9  C10 UNK     1      19.225   2.184  30.372  1.00  0.00     0.046 A 
HETATM   10  C11 UNK     1      18.768   3.400  30.867  1.00  0.00    -0.038 A 
HETATM   11  C12 UNK     1      19.572  -1.351  31.298  1.00  0.00     0.290 A 
HETATM   12  C13 UNK     1      18.225   3.461  32.147  1.00  0.00     0.041 A 
HETATM   13  C14 UNK     1      18.880   4.610  29.997  1.00  0.00     0.050 C 
ENDROOT
BRANCH   4  14
HETATM   14  N1  UNK     1      18.010  -0.187  34.489  1.00  0.00    -0.376 N 
HETATM   15  C1  UNK     1      16.654  -0.656  34.777  1.00  0.00     0.149 C 
HETATM   16  C4  UNK     1      15.979   0.315  35.739  1.00  0.00     0.187 C 
HETATM   17  O1  UNK     1      16.773   0.481  36.916  1.00  0.00    -0.388 OA
HETATM   18  C5  UNK     1      18.050   1.037  36.596  1.00  0.00     0.187 C 
HETATM   19  C2  UNK     1      18.821   0.099  35.673  1.00  0.00     0.149 C 
ENDBRANCH   4  14
TORSDOF 1
ENDMDL
MODEL 3
REMARK VINA RESULT:      -7.4     25.621     27.113
REMARK  1 active torsions:
REMARK  status: ('A' for Active; 'I' for Inactive)
REMARK    1  A    between atoms: C3_8  and  N1_5 
ROOT
HETATM    1 Cl1  UNK     1      14.886  11.631   8.922  1.00  0.00    -0.084 Cl
HETATM    2  O2  UNK     1      16.277   6.001   9.985  1.00  0.00    -0.275 OA
HETATM    3  O3  UNK     1      15.762   3.775   9.912  1.00  0.00    -0.260 OA
HETATM    4  C3  UNK     1      13.760   6.521   8.780  1.00  0.00     0.049 A 
HETATM    5  C6  UNK     1      14.671   7.630   9.119  1.00  0.00     0.026 A 
HETATM    6  C7  UNK     1      15.901   7.330   9.711  1.00  0.00     0.092 A 
HETATM    7  C8  UNK     1      14.156   5.268   9.056  1.00  0.00     0.113 A 
HETATM    8  C9  UNK     1      14.386   8.984   8.886  1.00  0.00     0.041 A 
HETATM    9  C10 UNK     1      16.825   8.317  10.065  1.00  0.00     0.046 A 
HETATM   10  C11 UNK     1      16.520   9.651   9.824  1.00  0.00    -0.038 A 
HETATM   11  C12 UNK     1      15.447   4.937   9.679  1.00  0.00     0.290 A 
HETATM   12  C13 UNK     1      15.303   9.984   9.236  1.00  0.00     0.041 A 
HETATM   13  C14 UNK     1      17.521  10.691  10.211  1.00  0.00     0.050 C 
ENDROOT
BRANCH   4  14
HETATM   14  N1  UNK     1      12.554   6.787   8.201  1.00  0.00    -0.376 N 
HETATM   15  C1  UNK     1      11.430   7.346   8.952  1.00  0.00     0.149 C 
HETATM   16  C4  UNK     1      10.152   6.608   8.571  1.00  0.00     0.187 C 
HETATM   17  O1  UNK     1       9.955   6.654   7.155  1.00  0.00    -0.388 OA
HETATM   18  C5  UNK     1      11.028   6.005   6.469  1.00  0.00     0.187 C 
HETATM   19  C2  UNK     1      12.346   6.716   6.754  1.00  0.00     0.149 C 
ENDBRANCH   4  14
TORSDOF 1
ENDMDL
MODEL 4
REMARK VINA RESULT:      -7.3      4.645      6.041
REMARK  1 active torsions:
REMARK  status: ('A' for Active; 'I' for Inactive)
REMARK    1  A    between atoms: C3_8  and  N1_5 
ROOT
HETATM    1 Cl1  UNK     1      18.251   1.987  36.925  1.00  0.00    -0.084 Cl
HETATM    2  O2  UNK     1      18.459   1.238  31.080  1.00  0.00    -0.275 OA
HETATM    3  O3  UNK     1      18.510   2.100  28.964  1.00  0.00    -0.260 OA
HETATM    4  C3  UNK     1      18.370   3.904  32.055  1.00  0.00     0.049 A 
HETATM    5  C6  UNK     1      18.364   2.764  32.991  1.00  0.00     0.026 A 
HETATM    6  C7  UNK     1      18.409   1.467  32.469  1.00  0.00     0.092 A 
HETATM    7  C8  UNK     1      18.418   3.643  30.739  1.00  0.00     0.113 A 
HETATM    8  C9  UNK     1      18.316   2.889  34.388  1.00  0.00     0.041 A 
HETATM    9  C10 UNK     1      18.407   0.330  33.281  1.00  0.00     0.046 A 
HETATM   10  C11 UNK     1      18.359   0.481  34.662  1.00  0.00    -0.038 A 
HETATM   11  C12 UNK     1      18.466   2.285  30.175  1.00  0.00     0.290 A 
HETATM   12  C13 UNK     1      18.313   1.758  35.214  1.00  0.00     0.041 A 
HETATM   13  C14 UNK     1      18.357  -0.748  35.513  1.00  0.00     0.050 C 
ENDROOT
BRANCH   4  14
HETATM   14  N1  UNK     1      18.326   5.178  32.539  1.00  0.00    -0.376 N 
HETATM   15  C1  UNK     1      19.535   5.964  32.788  1.00  0.00     0.149 C 
HETATM   16  C4  UNK     1      19.404   6.679  34.127  1.00  0.00     0.187 C 
HETATM   17  O1  UNK     1      18.211   7.466  34.157  1.00  0.00    -0.388 OA
HETATM   18  C5  UNK     1      17.052   6.641  34.014  1.00  0.00     0.187 C 
HETATM   19  C2  UNK     1      17.075   5.924  32.668  1.00  0.00     0.149 C 
ENDBRANCH   4  14
TORSDOF 1
ENDMDL
MODEL 5
REMARK VINA RESULT:      -7.3      3.893      6.444
REMARK  1 active torsions:
REMARK  status: ('A' for Active; 'I' for Inactive)
REMARK    1  A    between atoms: C3_8  and  N1_5 
ROOT
HETATM    1 Cl1  UNK     1      18.990   6.124  29.735  1.00  0.00    -0.084 Cl
HETATM    2  O2  UNK     1      17.977   2.226  34.042  1.00  0.00    -0.275 OA
HETATM    3  O3  UNK     1      17.975   0.077  34.821  1.00  0.00    -0.260 OA
HETATM    4  C3  UNK     1      18.965   1.223  31.575  1.00  0.00     0.049 A 
HETATM    5  C6  UNK     1      18.721   2.667  31.753  1.00  0.00     0.026 A 
HETATM    6  C7  UNK     1      18.235   3.119  32.983  1.00  0.00     0.092 A 
HETATM    7  C8  UNK     1      18.707   0.406  32.608  1.00  0.00     0.113 A 
HETATM    8  C9  UNK     1      18.947   3.633  30.761  1.00  0.00     0.041 A 
HETATM    9  C10 UNK     1      17.976   4.468  33.239  1.00  0.00     0.046 A 
HETATM   10  C11 UNK     1      18.207   5.406  32.240  1.00  0.00    -0.038 A 
HETATM   11  C12 UNK     1      18.195   0.866  33.908  1.00  0.00     0.290 A 
HETATM   12  C13 UNK     1      18.691   4.989  31.004  1.00  0.00     0.041 A 
HETATM   13  C14 UNK     1      17.923   6.843  32.534  1.00  0.00     0.050 C 
ENDROOT
BRANCH   4  14
HETATM   14  N1  UNK     1      19.439   0.758  30.385  1.00  0.00    -0.376 N 
HETATM   15  C1  UNK     1      18.894   1.193  29.099  1.00  0.00     0.149 C 
HETATM   16  C4  UNK     1      18.721  -0.017  28.188  1.00  0.00     0.187 C 
HETATM   17  O1  UNK     1      19.957  -0.723  28.060  1.00  0.00    -0.388 OA
HETATM   18  C5  UNK     1      20.397  -1.218  29.327  1.00  0.00     0.187 C 
HETATM   19  C2  UNK     1      20.647  -0.062  30.289  1.00  0.00     0.149 C 
ENDBRANCH   4  14
TORSDOF 1
ENDMDL
MODEL 6
REMARK VINA RESULT:      -7.2      8.892     10.701
REMARK  1 active torsions:
REMARK  status: ('A' for Active; 'I' for Inactive)
REMARK    1  A    between atoms: C3_8  and  N1_5 
ROOT
HETATM    1 Cl1  UNK     1      20.549   9.261  34.608  1.00  0.00    -0.084 Cl
HETATM    2  O2  UNK     1      15.801   6.770  32.154  1.00  0.00    -0.275 OA
HETATM    3  O3  UNK     1      13.558   6.767  31.716  1.00  0.00    -0.260 OA
HETATM    4  C3  UNK     1      15.418   9.199  33.574  1.00  0.00     0.049 A 
HETATM    5  C6  UNK     1      16.761   8.600  33.465  1.00  0.00     0.026 A 
HETATM    6  C7  UNK     1      16.906   7.403  32.757  1.00  0.00     0.092 A 
HETATM    7  C8  UNK     1      14.392   8.565  32.985  1.00  0.00     0.113 A 
HETATM    8  C9  UNK     1      17.920   9.153  34.030  1.00  0.00     0.041 A 
HETATM    9  C10 UNK     1      18.140   6.766  32.604  1.00  0.00     0.046 A 
HETATM   10  C11 UNK     1      19.274   7.333  33.173  1.00  0.00    -0.038 A 
HETATM   11  C12 UNK     1      14.528   7.307  32.236  1.00  0.00     0.290 A 
HETATM   12  C13 UNK     1      19.164   8.525  33.884  1.00  0.00     0.041 A 
HETATM   13  C14 UNK     1      20.583   6.635  32.999  1.00  0.00     0.050 C 
ENDROOT
BRANCH   4  14
HETATM   14  N1  UNK     1      15.250  10.366  34.259  1.00  0.00    -0.376 N 
HETATM   15  C1  UNK     1      14.671  10.412  35.602  1.00  0.00     0.149 C 
HETATM   16  C4  UNK     1      13.675  11.562  35.683  1.00  0.00     0.187 C 
HETATM   17  O1  UNK     1      14.301  12.790  35.305  1.00  0.00    -0.388 OA
HETATM   18  C5  UNK     1      14.759  12.734  33.952  1.00  0.00     0.187 C 
HETATM   19  C2  UNK     1      15.806  11.637  33.791  1.00  0.00     0.149 C 
ENDBRANCH   4  14
TORSDOF 1
ENDMDL
MODEL 7
REMARK VINA RESULT:      -7.2      2.839      4.290
REMARK  1 active torsions:
REMARK  status: ('A' for Active; 'I' for Inactive)
REMARK    1  A    between atoms: C3_8  and  N1_5 
ROOT
HETATM    1 Cl1  UNK     1      20.031  -2.525  31.014  1.00  0.00    -0.084 Cl
HETATM    2  O2  UNK     1      18.692   3.217  31.032  1.00  0.00    -0.275 OA
HETATM    3  O3  UNK     1      17.878   5.067  32.098  1.00  0.00    -0.260 OA
HETATM    4  C3  UNK     1      18.178   1.747  33.406  1.00  0.00     0.049 A 
HETATM    5  C6  UNK     1      18.758   1.082  32.225  1.00  0.00     0.026 A 
HETATM    6  C7  UNK     1      18.996   1.842  31.076  1.00  0.00     0.092 A 
HETATM    7  C8  UNK     1      17.903   3.058  33.324  1.00  0.00     0.113 A 
HETATM    8  C9  UNK     1      19.094  -0.280  32.171  1.00  0.00     0.041 A 
HETATM    9  C10 UNK     1      19.542   1.295  29.912  1.00  0.00     0.046 A 
HETATM   10  C11 UNK     1      19.867  -0.056  29.884  1.00  0.00    -0.038 A 
HETATM   11  C12 UNK     1      18.147   3.872  32.123  1.00  0.00     0.290 A 
HETATM   12  C13 UNK     1      19.643  -0.842  31.011  1.00  0.00     0.041 A 
HETATM   13  C14 UNK     1      20.449  -0.622  28.629  1.00  0.00     0.050 C 
ENDROOT
BRANCH   4  14
HETATM   14  N1  UNK     1      17.937   1.026  34.539  1.00  0.00    -0.376 N 
HETATM   15  C1  UNK     1      18.906   0.933  35.630  1.00  0.00     0.149 C 
HETATM   16  C4  UNK     1      18.987  -0.511  36.111  1.00  0.00     0.187 C 
HETATM   17  O1  UNK     1      17.689  -0.987  36.476  1.00  0.00    -0.388 OA
HETATM   18  C5  UNK     1      16.806  -0.973  35.352  1.00  0.00     0.187 C 
HETATM   19  C2  UNK     1      16.625   0.450  34.837  1.00  0.00     0.149 C 
ENDBRANCH   4  14
TORSDOF 1
ENDMDL
MODEL 8
REMARK VINA RESULT:      -7.1     25.411     26.951
REMARK  1 active torsions:
REMARK  status: ('A' for Active; 'I' for Inactive)
REMARK    1  A    between atoms: C3_8  and  N1_5 
ROOT
HETATM    1 Cl1  UNK     1      11.851  10.863  10.447  1.00  0.00    -0.084 Cl
HETATM    2  O2  UNK     1      15.485   6.220  10.392  1.00  0.00    -0.275 OA
HETATM    3  O3  UNK     1      16.001   4.105   9.696  1.00  0.00    -0.260 OA
HETATM    4  C3  UNK     1      13.086   6.021   8.885  1.00  0.00     0.049 A 
HETATM    5  C6  UNK     1      13.393   7.247   9.645  1.00  0.00     0.026 A 
HETATM    6  C7  UNK     1      14.585   7.303  10.374  1.00  0.00     0.092 A 
HETATM    7  C8  UNK     1      13.969   5.011   8.928  1.00  0.00     0.113 A 
HETATM    8  C9  UNK     1      12.563   8.377   9.690  1.00  0.00     0.041 A 
HETATM    9  C10 UNK     1      14.957   8.424  11.121  1.00  0.00     0.046 A 
HETATM   10  C11 UNK     1      14.117   9.531  11.149  1.00  0.00    -0.038 A 
HETATM   11  C12 UNK     1      15.227   5.055   9.689  1.00  0.00     0.290 A 
HETATM   12  C13 UNK     1      12.922   9.507  10.435  1.00  0.00     0.041 A 
HETATM   13  C14 UNK     1      14.532  10.719  11.956  1.00  0.00     0.050 C 
ENDROOT
BRANCH   4  14
HETATM   14  N1  UNK     1      11.929   5.941   8.167  1.00  0.00    -0.376 N 
HETATM   15  C1  UNK     1      11.898   6.083   6.711  1.00  0.00     0.149 C 
HETATM   16  C4  UNK     1      10.729   6.977   6.317  1.00  0.00     0.187 C 
HETATM   17  O1  UNK     1       9.507   6.463   6.853  1.00  0.00    -0.388 OA
HETATM   18  C5  UNK     1       9.546   6.440   8.282  1.00  0.00     0.187 C 
HETATM   19  C2  UNK     1      10.662   5.521   8.767  1.00  0.00     0.149 C 
ENDBRANCH   4  14
TORSDOF 1
ENDMDL
MODEL 9
REMARK VINA RESULT:      -7.0     12.020     13.802
REMARK  1 active torsions:
REMARK  status: ('A' for Active; 'I' for Inactive)
REMARK    1  A    between atoms: C3_8  and  N1_5 
ROOT
HETATM    1 Cl1  UNK     1      28.387  -9.689  35.207  1.00  0.00    -0.084 Cl
HETATM    2  O2  UNK     1      28.457  -5.304  39.149  1.00  0.00    -0.275 OA
HETATM    3  O3  UNK     1      29.488  -3.500  40.100  1.00  0.00    -0.260 OA
HETATM    4  C3  UNK     1      30.701  -5.550  37.425  1.00  0.00     0.049 A 
HETATM    5  C6  UNK     1      29.571  -6.492  37.323  1.00  0.00     0.026 A 
HETATM    6  C7  UNK     1      28.486  -6.336  38.190  1.00  0.00     0.092 A 
HETATM    7  C8  UNK     1      30.634  -4.580  38.351  1.00  0.00     0.113 A 
HETATM    8  C9  UNK     1      29.507  -7.550  36.403  1.00  0.00     0.041 A 
HETATM    9  C10 UNK     1      27.374  -7.182  38.163  1.00  0.00     0.046 A 
HETATM   10  C11 UNK     1      27.334  -8.222  37.243  1.00  0.00    -0.038 A 
HETATM   11  C12 UNK     1      29.500  -4.403  39.271  1.00  0.00     0.290 A 
HETATM   12  C13 UNK     1      28.398  -8.406  36.365  1.00  0.00     0.041 A 
HETATM   13  C14 UNK     1      26.137  -9.117  37.231  1.00  0.00     0.050 C 
ENDROOT
BRANCH   4  14
HETATM   14  N1  UNK     1      31.771  -5.682  36.590  1.00  0.00    -0.376 N 
HETATM   15  C1  UNK     1      32.905  -6.552  36.900  1.00  0.00     0.149 C 
HETATM   16  C4  UNK     1      34.204  -5.823  36.575  1.00  0.00     0.187 C 
HETATM   17  O1  UNK     1      34.197  -5.378  35.217  1.00  0.00    -0.388 OA
HETATM   18  C5  UNK     1      33.134  -4.450  34.988  1.00  0.00     0.187 C 
HETATM   19  C2  UNK     1      31.786  -5.117  35.241  1.00  0.00     0.149 C 
ENDBRANCH   4  14
TORSDOF 1
ENDMDL
MODEL 10
REMARK VINA RESULT:      -7.0     12.195     13.921
REMARK  1 active torsions:
REMARK  status: ('A' for Active; 'I' for Inactive)
REMARK    1  A    between atoms: C3_8  and  N1_5 
ROOT
HETATM    1 Cl1  UNK     1      32.438  -9.579  35.784  1.00  0.00    -0.084 Cl
HETATM    2  O2  UNK     1      30.938  -4.699  38.735  1.00  0.00    -0.275 OA
HETATM    3  O3  UNK     1      29.413  -3.483  39.926  1.00  0.00    -0.260 OA
HETATM    4  C3  UNK     1      28.985  -6.749  38.519  1.00  0.00     0.049 A 
HETATM    5  C6  UNK     1      30.318  -6.917  37.910  1.00  0.00     0.026 A 
HETATM    6  C7  UNK     1      31.250  -5.884  38.040  1.00  0.00     0.092 A 
HETATM    7  C8  UNK     1      28.728  -5.606  39.173  1.00  0.00     0.113 A 
HETATM    8  C9  UNK     1      30.723  -8.058  37.200  1.00  0.00     0.041 A 
HETATM    9  C10 UNK     1      32.535  -5.958  37.496  1.00  0.00     0.046 A 
HETATM   10  C11 UNK     1      32.912  -7.098  36.796  1.00  0.00    -0.038 A 
HETATM   11  C12 UNK     1      29.697  -4.509  39.319  1.00  0.00     0.290 A 
HETATM   12  C13 UNK     1      32.008  -8.146  36.648  1.00  0.00     0.041 A 
HETATM   13  C14 UNK     1      34.290  -7.157  36.221  1.00  0.00     0.050 C 
ENDROOT
BRANCH   4  14
HETATM   14  N1  UNK     1      28.059  -7.743  38.406  1.00  0.00    -0.376 N 
HETATM   15  C1  UNK     1      27.664  -8.581  39.539  1.00  0.00     0.149 C 
HETATM   16  C4  UNK     1      27.590 -10.035  39.090  1.00  0.00     0.187 C 
HETATM   17  O1  UNK     1      26.713 -10.165  37.969  1.00  0.00    -0.388 OA
HETATM   18  C5  UNK     1      27.195  -9.411  36.853  1.00  0.00     0.187 C 
HETATM   19  C2  UNK     1      27.250  -7.927  37.201  1.00  0.00     0.149 C 
ENDBRANCH   4  14
TORSDOF 1
ENDMDL
