MODEL 1
REMARK VINA RESULT:      -9.2      0.000      0.000
REMARK  8 active torsions:
REMARK  status: ('A' for Active; 'I' for Inactive)
REMARK    1  A    between atoms: C17_25  and  O2_2 
REMARK    2  A    between atoms: C7_15  and  O2_2 
REMARK    3  A    between atoms: C16_24  and  O4_4 
REMARK    4  A    between atoms: C14_22  and  O5_5 
REMARK    5  A    between atoms: C15_23  and  O6_6 
REMARK    6  A    between atoms: C22_30  and  O7_7 
REMARK    7  A    between atoms: C10_18  and  C9_17 
REMARK    8  A    between atoms: C11_19  and  C17_25 
ROOT
HETATM    1  O1  UNK     1      18.800   0.539  34.619  1.00  0.00    -0.306 OA
HETATM    2  O3  UNK     1      17.262   1.568  37.638  1.00  0.00    -0.284 OA
HETATM    3  C1  UNK     1      18.337  -0.359  36.696  1.00  0.00     0.051 A 
HETATM    4  C2  UNK     1      18.895  -0.564  35.436  1.00  0.00     0.093 A 
HETATM    5  C3  UNK     1      18.152   1.511  35.372  1.00  0.00     0.127 A 
HETATM    6  C4  UNK     1      17.821   1.004  36.726  1.00  0.00     0.218 A 
HETATM    7  C5  UNK     1      19.471  -1.769  35.098  1.00  0.00     0.075 A 
HETATM    8  C6  UNK     1      18.327  -1.335  37.670  1.00  0.00     0.021 A 
HETATM    9  C7  UNK     1      19.474  -2.777  36.068  1.00  0.00     0.082 A 
HETATM   10  C8  UNK     1      18.907  -2.562  37.341  1.00  0.00     0.038 A 
HETATM   11  C9  UNK     1      17.863   2.738  34.937  1.00  0.00     0.053 C 
ENDROOT
BRANCH   9  12
HETATM   12  O2  UNK     1      20.033  -3.987  35.779  1.00  0.00    -0.275 OA
BRANCH  12  13
HETATM   13  C17 UNK     1      20.744  -4.557  36.837  1.00  0.00     0.298 C 
HETATM   14  O8  UNK     1      21.671  -4.033  37.438  1.00  0.00    -0.259 OA
BRANCH  13  15
HETATM   15  C11 UNK     1      20.241  -5.919  37.146  1.00  0.00     0.045 A 
HETATM   16  C12 UNK     1      19.300  -6.488  36.311  1.00  0.00     0.057 A 
HETATM   17  C15 UNK     1      18.829  -7.768  36.602  1.00  0.00     0.105 A 
HETATM   18  C16 UNK     1      19.307  -8.451  37.720  1.00  0.00     0.135 A 
HETATM   19  C14 UNK     1      20.258  -7.854  38.548  1.00  0.00     0.105 A 
HETATM   20  C13 UNK     1      20.730  -6.574  38.258  1.00  0.00     0.057 A 
BRANCH  17  21
HETATM   21  O6  UNK     1      17.901  -8.341  35.784  1.00  0.00    -0.353 OA
HETATM   22  C25 UNK     1      16.911  -7.480  35.226  1.00  0.00     0.210 C 
ENDBRANCH  17  21
BRANCH  18  23
HETATM   23  O4  UNK     1      18.846  -9.702  38.003  1.00  0.00    -0.351 OA
HETATM   24  C23 UNK     1      19.574 -10.799  37.457  1.00  0.00     0.210 C 
ENDBRANCH  18  23
BRANCH  19  25
HETATM   25  O5  UNK     1      20.733  -8.511  39.643  1.00  0.00    -0.353 OA
HETATM   26  C24 UNK     1      22.142  -8.482  39.854  1.00  0.00     0.210 C 
ENDBRANCH  19  25
ENDBRANCH  13  15
ENDBRANCH  12  13
ENDBRANCH   9  12
BRANCH  11  27
HETATM   27  C10 UNK     1      18.175   3.278  33.600  1.00  0.00    -0.033 A 
HETATM   28  C18 UNK     1      18.469   4.624  33.466  1.00  0.00     0.014 A 
HETATM   29  C20 UNK     1      18.762   5.135  32.202  1.00  0.00     0.037 A 
HETATM   30  C22 UNK     1      18.756   4.294  31.090  1.00  0.00     0.068 A 
HETATM   31  C21 UNK     1      18.457   2.940  31.242  1.00  0.00     0.037 A 
HETATM   32  C19 UNK     1      18.163   2.428  32.506  1.00  0.00     0.014 A 
BRANCH  30  33
HETATM   33  O7  UNK     1      19.042   4.792  29.857  1.00  0.00    -0.356 OA
HETATM   34  C26 UNK     1      19.813   5.992  29.804  1.00  0.00     0.210 C 
ENDBRANCH  30  33
ENDBRANCH  11  27
TORSDOF 8
ENDMDL
MODEL 2
REMARK VINA RESULT:      -9.2      0.268      2.398
REMARK  8 active torsions:
REMARK  status: ('A' for Active; 'I' for Inactive)
REMARK    1  A    between atoms: C17_25  and  O2_2 
REMARK    2  A    between atoms: C7_15  and  O2_2 
REMARK    3  A    between atoms: C16_24  and  O4_4 
REMARK    4  A    between atoms: C14_22  and  O5_5 
REMARK    5  A    between atoms: C15_23  and  O6_6 
REMARK    6  A    between atoms: C22_30  and  O7_7 
REMARK    7  A    between atoms: C10_18  and  C9_17 
REMARK    8  A    between atoms: C11_19  and  C17_25 
ROOT
HETATM    1  O1  UNK     1      18.894   0.360  34.733  1.00  0.00    -0.306 OA
HETATM    2  O3  UNK     1      17.436   1.307  37.819  1.00  0.00    -0.284 OA
HETATM    3  C1  UNK     1      18.510  -0.585  36.806  1.00  0.00     0.051 A 
HETATM    4  C2  UNK     1      19.032  -0.757  35.525  1.00  0.00     0.093 A 
HETATM    5  C3  UNK     1      18.256   1.308  35.525  1.00  0.00     0.127 A 
HETATM    6  C4  UNK     1      17.975   0.769  36.878  1.00  0.00     0.218 A 
HETATM    7  C5  UNK     1      19.614  -1.946  35.145  1.00  0.00     0.075 A 
HETATM    8  C6  UNK     1      18.544  -1.581  37.759  1.00  0.00     0.021 A 
HETATM    9  C7  UNK     1      19.662  -2.973  36.095  1.00  0.00     0.082 A 
HETATM   10  C8  UNK     1      19.131  -2.792  37.388  1.00  0.00     0.038 A 
HETATM   11  C9  UNK     1      17.936   2.538  35.124  1.00  0.00     0.053 C 
ENDROOT
BRANCH   9  12
HETATM   12  O2  UNK     1      20.229  -4.168  35.765  1.00  0.00    -0.275 OA
BRANCH  12  13
HETATM   13  C17 UNK     1      20.969  -4.755  36.793  1.00  0.00     0.298 C 
HETATM   14  O8  UNK     1      21.940  -4.259  37.347  1.00  0.00    -0.259 OA
BRANCH  13  15
HETATM   15  C11 UNK     1      20.436  -6.097  37.136  1.00  0.00     0.045 A 
HETATM   16  C12 UNK     1      20.986  -6.782  38.201  1.00  0.00     0.057 A 
HETATM   17  C15 UNK     1      20.483  -8.042  38.523  1.00  0.00     0.105 A 
HETATM   18  C16 UNK     1      19.443  -8.592  37.773  1.00  0.00     0.135 A 
HETATM   19  C14 UNK     1      18.905  -7.880  36.701  1.00  0.00     0.105 A 
HETATM   20  C13 UNK     1      19.407  -6.618  36.379  1.00  0.00     0.057 A 
BRANCH  17  21
HETATM   21  O6  UNK     1      21.017  -8.727  39.573  1.00  0.00    -0.353 OA
HETATM   22  C25 UNK     1      22.326  -8.348  39.995  1.00  0.00     0.210 C 
ENDBRANCH  17  21
BRANCH  18  23
HETATM   23  O4  UNK     1      18.953  -9.824  38.089  1.00  0.00    -0.351 OA
HETATM   24  C23 UNK     1      19.640 -10.951  37.552  1.00  0.00     0.210 C 
ENDBRANCH  18  23
BRANCH  19  25
HETATM   25  O5  UNK     1      17.889  -8.405  35.961  1.00  0.00    -0.353 OA
HETATM   26  C24 UNK     1      17.108  -7.493  35.193  1.00  0.00     0.210 C 
ENDBRANCH  19  25
ENDBRANCH  13  15
ENDBRANCH  12  13
ENDBRANCH   9  12
BRANCH  11  27
HETATM   27  C10 UNK     1      18.198   3.109  33.789  1.00  0.00    -0.033 A 
HETATM   28  C18 UNK     1      18.204   2.272  32.686  1.00  0.00     0.014 A 
HETATM   29  C20 UNK     1      18.452   2.811  31.424  1.00  0.00     0.037 A 
HETATM   30  C22 UNK     1      18.692   4.178  31.283  1.00  0.00     0.068 A 
HETATM   31  C21 UNK     1      18.683   5.007  32.405  1.00  0.00     0.037 A 
HETATM   32  C19 UNK     1      18.435   4.468  33.668  1.00  0.00     0.014 A 
BRANCH  30  33
HETATM   33  O7  UNK     1      18.934   4.704  30.052  1.00  0.00    -0.356 OA
HETATM   34  C26 UNK     1      19.759   5.868  29.993  1.00  0.00     0.210 C 
ENDBRANCH  30  33
ENDBRANCH  11  27
TORSDOF 8
ENDMDL
MODEL 3
REMARK VINA RESULT:      -9.2     24.066     29.374
REMARK  8 active torsions:
REMARK  status: ('A' for Active; 'I' for Inactive)
REMARK    1  A    between atoms: C17_25  and  O2_2 
REMARK    2  A    between atoms: C7_15  and  O2_2 
REMARK    3  A    between atoms: C16_24  and  O4_4 
REMARK    4  A    between atoms: C14_22  and  O5_5 
REMARK    5  A    between atoms: C15_23  and  O6_6 
REMARK    6  A    between atoms: C22_30  and  O7_7 
REMARK    7  A    between atoms: C10_18  and  C9_17 
REMARK    8  A    between atoms: C11_19  and  C17_25 
ROOT
HETATM    1  O1  UNK     1       7.135   5.066  11.115  1.00  0.00    -0.306 OA
HETATM    2  O3  UNK     1       5.280   8.054  10.698  1.00  0.00    -0.284 OA
HETATM    3  C1  UNK     1       7.126   6.891   9.699  1.00  0.00     0.051 A 
HETATM    4  C2  UNK     1       7.723   5.677  10.031  1.00  0.00     0.093 A 
HETATM    5  C3  UNK     1       6.107   5.913  11.513  1.00  0.00     0.127 A 
HETATM    6  C4  UNK     1       6.041   7.114  10.646  1.00  0.00     0.218 A 
HETATM    7  C5  UNK     1       8.791   5.186   9.312  1.00  0.00     0.075 A 
HETATM    8  C6  UNK     1       7.561   7.667   8.645  1.00  0.00     0.021 A 
HETATM    9  C7  UNK     1       9.252   5.954   8.237  1.00  0.00     0.082 A 
HETATM   10  C8  UNK     1       8.643   7.182   7.908  1.00  0.00     0.038 A 
HETATM   11  C9  UNK     1       5.289   5.680  12.540  1.00  0.00     0.053 C 
ENDROOT
BRANCH   9  12
HETATM   12  O2  UNK     1      10.306   5.509   7.496  1.00  0.00    -0.275 OA
BRANCH  12  13
HETATM   13  C17 UNK     1      11.193   6.512   7.100  1.00  0.00     0.298 C 
HETATM   14  O8  UNK     1      11.279   6.985   5.976  1.00  0.00    -0.259 OA
BRANCH  13  15
HETATM   15  C11 UNK     1      12.055   6.939   8.230  1.00  0.00     0.045 A 
HETATM   16  C12 UNK     1      12.868   6.005   8.839  1.00  0.00     0.057 A 
HETATM   17  C15 UNK     1      13.679   6.408   9.900  1.00  0.00     0.105 A 
HETATM   18  C16 UNK     1      13.658   7.734  10.331  1.00  0.00     0.135 A 
HETATM   19  C14 UNK     1      12.826   8.659   9.699  1.00  0.00     0.105 A 
HETATM   20  C13 UNK     1      12.016   8.257   8.637  1.00  0.00     0.057 A 
BRANCH  17  21
HETATM   21  O6  UNK     1      14.488   5.495  10.508  1.00  0.00    -0.353 OA
HETATM   22  C25 UNK     1      15.622   5.043   9.771  1.00  0.00     0.210 C 
ENDBRANCH  17  21
BRANCH  18  23
HETATM   23  O4  UNK     1      14.450   8.127  11.368  1.00  0.00    -0.351 OA
HETATM   24  C23 UNK     1      15.751   8.609  11.042  1.00  0.00     0.210 C 
ENDBRANCH  18  23
BRANCH  19  25
HETATM   25  O5  UNK     1      12.797   9.958  10.110  1.00  0.00    -0.353 OA
HETATM   26  C24 UNK     1      11.522  10.503  10.444  1.00  0.00     0.210 C 
ENDBRANCH  19  25
ENDBRANCH  13  15
ENDBRANCH  12  13
ENDBRANCH   9  12
BRANCH  11  27
HETATM   27  C10 UNK     1       5.325   4.500  13.424  1.00  0.00    -0.033 A 
HETATM   28  C18 UNK     1       4.886   3.279  12.941  1.00  0.00     0.014 A 
HETATM   29  C20 UNK     1       4.918   2.164  13.777  1.00  0.00     0.037 A 
HETATM   30  C22 UNK     1       5.387   2.285  15.085  1.00  0.00     0.068 A 
HETATM   31  C21 UNK     1       5.825   3.522  15.557  1.00  0.00     0.037 A 
HETATM   32  C19 UNK     1       5.793   4.639  14.721  1.00  0.00     0.014 A 
BRANCH  30  33
HETATM   33  O7  UNK     1       5.419   1.197  15.901  1.00  0.00    -0.356 OA
HETATM   34  C26 UNK     1       5.604   1.436  17.296  1.00  0.00     0.210 C 
ENDBRANCH  30  33
ENDBRANCH  11  27
TORSDOF 8
ENDMDL
MODEL 4
REMARK VINA RESULT:      -9.2     24.005     29.268
REMARK  8 active torsions:
REMARK  status: ('A' for Active; 'I' for Inactive)
REMARK    1  A    between atoms: C17_25  and  O2_2 
REMARK    2  A    between atoms: C7_15  and  O2_2 
REMARK    3  A    between atoms: C16_24  and  O4_4 
REMARK    4  A    between atoms: C14_22  and  O5_5 
REMARK    5  A    between atoms: C15_23  and  O6_6 
REMARK    6  A    between atoms: C22_30  and  O7_7 
REMARK    7  A    between atoms: C10_18  and  C9_17 
REMARK    8  A    between atoms: C11_19  and  C17_25 
ROOT
HETATM    1  O1  UNK     1       7.075   5.022  11.239  1.00  0.00    -0.306 OA
HETATM    2  O3  UNK     1       5.216   8.012  10.853  1.00  0.00    -0.284 OA
HETATM    3  C1  UNK     1       7.050   6.851   9.828  1.00  0.00     0.051 A 
HETATM    4  C2  UNK     1       7.651   5.635  10.150  1.00  0.00     0.093 A 
HETATM    5  C3  UNK     1       6.052   5.869  11.652  1.00  0.00     0.127 A 
HETATM    6  C4  UNK     1       5.976   7.072  10.788  1.00  0.00     0.218 A 
HETATM    7  C5  UNK     1       8.710   5.147   9.417  1.00  0.00     0.075 A 
HETATM    8  C6  UNK     1       7.472   7.629   8.771  1.00  0.00     0.021 A 
HETATM    9  C7  UNK     1       9.157   5.917   8.338  1.00  0.00     0.082 A 
HETATM   10  C8  UNK     1       8.545   7.146   8.019  1.00  0.00     0.038 A 
HETATM   11  C9  UNK     1       5.247   5.633  12.688  1.00  0.00     0.053 C 
ENDROOT
BRANCH   9  12
HETATM   12  O2  UNK     1      10.202   5.474   7.583  1.00  0.00    -0.275 OA
BRANCH  12  13
HETATM   13  C17 UNK     1      11.070   6.481   7.157  1.00  0.00     0.298 C 
HETATM   14  O8  UNK     1      11.098   6.973   6.038  1.00  0.00    -0.259 OA
BRANCH  13  15
HETATM   15  C11 UNK     1      11.994   6.886   8.246  1.00  0.00     0.045 A 
HETATM   16  C12 UNK     1      12.039   8.213   8.623  1.00  0.00     0.057 A 
HETATM   17  C15 UNK     1      12.906   8.593   9.648  1.00  0.00     0.105 A 
HETATM   18  C16 UNK     1      13.710   7.639  10.272  1.00  0.00     0.135 A 
HETATM   19  C14 UNK     1      13.645   6.304   9.872  1.00  0.00     0.105 A 
HETATM   20  C13 UNK     1      12.778   5.923   8.847  1.00  0.00     0.057 A 
BRANCH  17  21
HETATM   21  O6  UNK     1      12.958   9.900  10.030  1.00  0.00    -0.353 OA
HETATM   22  C25 UNK     1      11.828  10.415  10.731  1.00  0.00     0.210 C 
ENDBRANCH  17  21
BRANCH  18  23
HETATM   23  O4  UNK     1      14.557   8.011  11.273  1.00  0.00    -0.351 OA
HETATM   24  C23 UNK     1      15.847   8.478  10.888  1.00  0.00     0.210 C 
ENDBRANCH  18  23
BRANCH  19  25
HETATM   25  O5  UNK     1      14.425   5.363  10.474  1.00  0.00    -0.353 OA
HETATM   26  C24 UNK     1      15.577   4.923   9.759  1.00  0.00     0.210 C 
ENDBRANCH  19  25
ENDBRANCH  13  15
ENDBRANCH  12  13
ENDBRANCH   9  12
BRANCH  11  27
HETATM   27  C10 UNK     1       5.293   4.451  13.569  1.00  0.00    -0.033 A 
HETATM   28  C18 UNK     1       5.744   4.595  14.870  1.00  0.00     0.014 A 
HETATM   29  C20 UNK     1       5.789   3.477  15.703  1.00  0.00     0.037 A 
HETATM   30  C22 UNK     1       5.383   2.232  15.223  1.00  0.00     0.068 A 
HETATM   31  C21 UNK     1       4.931   2.104  13.910  1.00  0.00     0.037 A 
HETATM   32  C19 UNK     1       4.886   3.222  13.076  1.00  0.00     0.014 A 
BRANCH  30  33
HETATM   33  O7  UNK     1       5.426   1.141  16.036  1.00  0.00    -0.356 OA
HETATM   34  C26 UNK     1       5.480   1.381  17.441  1.00  0.00     0.210 C 
ENDBRANCH  30  33
ENDBRANCH  11  27
TORSDOF 8
ENDMDL
MODEL 5
REMARK VINA RESULT:      -9.0     27.746     30.359
REMARK  8 active torsions:
REMARK  status: ('A' for Active; 'I' for Inactive)
REMARK    1  A    between atoms: C17_25  and  O2_2 
REMARK    2  A    between atoms: C7_15  and  O2_2 
REMARK    3  A    between atoms: C16_24  and  O4_4 
REMARK    4  A    between atoms: C14_22  and  O5_5 
REMARK    5  A    between atoms: C15_23  and  O6_6 
REMARK    6  A    between atoms: C22_30  and  O7_7 
REMARK    7  A    between atoms: C10_18  and  C9_17 
REMARK    8  A    between atoms: C11_19  and  C17_25 
ROOT
HETATM    1  O1  UNK     1      14.396   8.460   8.224  1.00  0.00    -0.306 OA
HETATM    2  O3  UNK     1      15.233   7.138  11.402  1.00  0.00    -0.284 OA
HETATM    3  C1  UNK     1      13.742   6.702   9.573  1.00  0.00     0.051 A 
HETATM    4  C2  UNK     1      13.564   7.373   8.364  1.00  0.00     0.093 A 
HETATM    5  C3  UNK     1      15.153   8.507   9.389  1.00  0.00     0.127 A 
HETATM    6  C4  UNK     1      14.786   7.403  10.309  1.00  0.00     0.218 A 
HETATM    7  C5  UNK     1      12.635   6.945   7.441  1.00  0.00     0.075 A 
HETATM    8  C6  UNK     1      13.009   5.585   9.915  1.00  0.00     0.021 A 
HETATM    9  C7  UNK     1      11.879   5.813   7.763  1.00  0.00     0.082 A 
HETATM   10  C8  UNK     1      12.064   5.140   8.988  1.00  0.00     0.038 A 
HETATM   11  C9  UNK     1      16.085   9.424   9.649  1.00  0.00     0.053 C 
ENDROOT
BRANCH   9  12
HETATM   12  O2  UNK     1      10.948   5.352   6.880  1.00  0.00    -0.275 OA
BRANCH  12  13
HETATM   13  C17 UNK     1       9.914   6.253   6.615  1.00  0.00     0.298 C 
HETATM   14  O8  UNK     1       9.724   6.827   5.553  1.00  0.00    -0.259 OA
BRANCH  13  15
HETATM   15  C11 UNK     1       9.058   6.450   7.811  1.00  0.00     0.045 A 
HETATM   16  C12 UNK     1       9.237   7.582   8.580  1.00  0.00     0.057 A 
HETATM   17  C15 UNK     1       8.432   7.767   9.704  1.00  0.00     0.105 A 
HETATM   18  C16 UNK     1       7.465   6.817  10.034  1.00  0.00     0.135 A 
HETATM   19  C14 UNK     1       7.304   5.682   9.240  1.00  0.00     0.105 A 
HETATM   20  C13 UNK     1       8.109   5.496   8.116  1.00  0.00     0.057 A 
BRANCH  17  21
HETATM   21  O6  UNK     1       8.598   8.882  10.470  1.00  0.00    -0.353 OA
HETATM   22  C25 UNK     1       9.754   9.677  10.214  1.00  0.00     0.210 C 
ENDBRANCH  17  21
BRANCH  18  23
HETATM   23  O4  UNK     1       6.678   6.999  11.132  1.00  0.00    -0.351 OA
HETATM   24  C23 UNK     1       5.470   7.733  10.947  1.00  0.00     0.210 C 
ENDBRANCH  18  23
BRANCH  19  25
HETATM   25  O5  UNK     1       6.364   4.747   9.552  1.00  0.00    -0.353 OA
HETATM   26  C24 UNK     1       6.807   3.595  10.267  1.00  0.00     0.210 C 
ENDBRANCH  19  25
ENDBRANCH  13  15
ENDBRANCH  12  13
ENDBRANCH   9  12
BRANCH  11  27
HETATM   27  C10 UNK     1      16.477  10.536   8.761  1.00  0.00    -0.033 A 
HETATM   28  C18 UNK     1      17.821  10.767   8.520  1.00  0.00     0.014 A 
HETATM   29  C20 UNK     1      18.192  11.818   7.683  1.00  0.00     0.037 A 
HETATM   30  C22 UNK     1      17.214  12.624   7.099  1.00  0.00     0.068 A 
HETATM   31  C21 UNK     1      15.865  12.378   7.352  1.00  0.00     0.037 A 
HETATM   32  C19 UNK     1      15.493  11.326   8.190  1.00  0.00     0.014 A 
BRANCH  30  33
HETATM   33  O7  UNK     1      17.576  13.649   6.281  1.00  0.00    -0.356 OA
HETATM   34  C26 UNK     1      18.808  13.513   5.574  1.00  0.00     0.210 C 
ENDBRANCH  30  33
ENDBRANCH  11  27
TORSDOF 8
ENDMDL
MODEL 6
REMARK VINA RESULT:      -8.9     27.747     30.349
REMARK  8 active torsions:
REMARK  status: ('A' for Active; 'I' for Inactive)
REMARK    1  A    between atoms: C17_25  and  O2_2 
REMARK    2  A    between atoms: C7_15  and  O2_2 
REMARK    3  A    between atoms: C16_24  and  O4_4 
REMARK    4  A    between atoms: C14_22  and  O5_5 
REMARK    5  A    between atoms: C15_23  and  O6_6 
REMARK    6  A    between atoms: C22_30  and  O7_7 
REMARK    7  A    between atoms: C10_18  and  C9_17 
REMARK    8  A    between atoms: C11_19  and  C17_25 
ROOT
HETATM    1  O1  UNK     1      14.390   8.509   8.237  1.00  0.00    -0.306 OA
HETATM    2  O3  UNK     1      15.259   7.192  11.408  1.00  0.00    -0.284 OA
HETATM    3  C1  UNK     1      13.764   6.741   9.585  1.00  0.00     0.051 A 
HETATM    4  C2  UNK     1      13.572   7.412   8.379  1.00  0.00     0.093 A 
HETATM    5  C3  UNK     1      15.152   8.564   9.398  1.00  0.00     0.127 A 
HETATM    6  C4  UNK     1      14.803   7.454  10.318  1.00  0.00     0.218 A 
HETATM    7  C5  UNK     1      12.645   6.974   7.459  1.00  0.00     0.075 A 
HETATM    8  C6  UNK     1      13.047   5.614   9.929  1.00  0.00     0.021 A 
HETATM    9  C7  UNK     1      11.904   5.832   7.783  1.00  0.00     0.082 A 
HETATM   10  C8  UNK     1      12.103   5.160   9.006  1.00  0.00     0.038 A 
HETATM   11  C9  UNK     1      16.075   9.492   9.655  1.00  0.00     0.053 C 
ENDROOT
BRANCH   9  12
HETATM   12  O2  UNK     1      10.974   5.362   6.903  1.00  0.00    -0.275 OA
BRANCH  12  13
HETATM   13  C17 UNK     1       9.943   6.261   6.623  1.00  0.00     0.298 C 
HETATM   14  O8  UNK     1       9.755   6.820   5.553  1.00  0.00    -0.259 OA
BRANCH  13  15
HETATM   15  C11 UNK     1       9.086   6.478   7.816  1.00  0.00     0.045 A 
HETATM   16  C12 UNK     1       8.123   5.539   8.125  1.00  0.00     0.057 A 
HETATM   17  C15 UNK     1       7.319   5.743   9.246  1.00  0.00     0.105 A 
HETATM   18  C16 UNK     1       7.493   6.882  10.032  1.00  0.00     0.135 A 
HETATM   19  C14 UNK     1       8.473   7.817   9.698  1.00  0.00     0.105 A 
HETATM   20  C13 UNK     1       9.279   7.613   8.577  1.00  0.00     0.057 A 
BRANCH  17  21
HETATM   21  O6  UNK     1       6.366   4.822   9.563  1.00  0.00    -0.353 OA
HETATM   22  C25 UNK     1       6.822   3.539   9.988  1.00  0.00     0.210 C 
ENDBRANCH  17  21
BRANCH  18  23
HETATM   23  O4  UNK     1       6.707   7.081  11.128  1.00  0.00    -0.351 OA
HETATM   24  C23 UNK     1       5.499   7.812  10.933  1.00  0.00     0.210 C 
ENDBRANCH  18  23
BRANCH  19  25
HETATM   25  O5  UNK     1       8.654   8.933  10.458  1.00  0.00    -0.353 OA
HETATM   26  C24 UNK     1       9.844   9.685  10.232  1.00  0.00     0.210 C 
ENDBRANCH  19  25
ENDBRANCH  13  15
ENDBRANCH  12  13
ENDBRANCH   9  12
BRANCH  11  27
HETATM   27  C10 UNK     1      16.448  10.610   8.768  1.00  0.00    -0.033 A 
HETATM   28  C18 UNK     1      15.460  11.452   8.289  1.00  0.00     0.014 A 
HETATM   29  C20 UNK     1      15.813  12.509   7.449  1.00  0.00     0.037 A 
HETATM   30  C22 UNK     1      17.148  12.706   7.099  1.00  0.00     0.068 A 
HETATM   31  C21 UNK     1      18.132  11.848   7.590  1.00  0.00     0.037 A 
HETATM   32  C19 UNK     1      17.780  10.791   8.430  1.00  0.00     0.014 A 
BRANCH  30  33
HETATM   33  O7  UNK     1      17.493  13.737   6.281  1.00  0.00    -0.356 OA
HETATM   34  C26 UNK     1      18.686  13.586   5.513  1.00  0.00     0.210 C 
ENDBRANCH  30  33
ENDBRANCH  11  27
TORSDOF 8
ENDMDL
MODEL 7
REMARK VINA RESULT:      -8.9      5.868     10.859
REMARK  8 active torsions:
REMARK  status: ('A' for Active; 'I' for Inactive)
REMARK    1  A    between atoms: C17_25  and  O2_2 
REMARK    2  A    between atoms: C7_15  and  O2_2 
REMARK    3  A    between atoms: C16_24  and  O4_4 
REMARK    4  A    between atoms: C14_22  and  O5_5 
REMARK    5  A    between atoms: C15_23  and  O6_6 
REMARK    6  A    between atoms: C22_30  and  O7_7 
REMARK    7  A    between atoms: C10_18  and  C9_17 
REMARK    8  A    between atoms: C11_19  and  C17_25 
ROOT
HETATM    1  O1  UNK     1      23.048  -8.366  36.678  1.00  0.00    -0.306 OA
HETATM    2  O3  UNK     1      21.253 -11.079  35.278  1.00  0.00    -0.284 OA
HETATM    3  C1  UNK     1      23.450 -10.565  36.096  1.00  0.00     0.051 A 
HETATM    4  C2  UNK     1      23.970  -9.385  36.627  1.00  0.00     0.093 A 
HETATM    5  C3  UNK     1      21.871  -8.895  36.161  1.00  0.00     0.127 A 
HETATM    6  C4  UNK     1      22.054 -10.311  35.762  1.00  0.00     0.218 A 
HETATM    7  C5  UNK     1      25.281  -9.307  37.042  1.00  0.00     0.075 A 
HETATM    8  C6  UNK     1      24.205 -11.710  35.955  1.00  0.00     0.021 A 
HETATM    9  C7  UNK     1      26.069 -10.456  36.910  1.00  0.00     0.082 A 
HETATM   10  C8  UNK     1      25.536 -11.645  36.371  1.00  0.00     0.038 A 
HETATM   11  C9  UNK     1      20.728  -8.219  36.036  1.00  0.00     0.053 C 
ENDROOT
BRANCH   9  12
HETATM   12  O2  UNK     1      27.373 -10.426  37.307  1.00  0.00    -0.275 OA
BRANCH  12  13
HETATM   13  C17 UNK     1      27.569  -9.924  38.595  1.00  0.00     0.298 C 
HETATM   14  O8  UNK     1      27.072 -10.371  39.619  1.00  0.00    -0.259 OA
BRANCH  13  15
HETATM   15  C11 UNK     1      28.463  -8.739  38.576  1.00  0.00     0.045 A 
HETATM   16  C12 UNK     1      29.755  -8.886  38.113  1.00  0.00     0.057 A 
HETATM   17  C15 UNK     1      30.594  -7.772  38.094  1.00  0.00     0.105 A 
HETATM   18  C16 UNK     1      30.125  -6.536  38.540  1.00  0.00     0.135 A 
HETATM   19  C14 UNK     1      28.815  -6.415  39.004  1.00  0.00     0.105 A 
HETATM   20  C13 UNK     1      27.974  -7.528  39.022  1.00  0.00     0.057 A 
BRANCH  17  21
HETATM   21  O6  UNK     1      31.871  -7.904  37.637  1.00  0.00    -0.353 OA
HETATM   22  C25 UNK     1      32.111  -8.928  36.673  1.00  0.00     0.210 C 
ENDBRANCH  17  21
BRANCH  18  23
HETATM   23  O4  UNK     1      30.946  -5.449  38.521  1.00  0.00    -0.351 OA
HETATM   24  C23 UNK     1      30.916  -4.636  37.350  1.00  0.00     0.210 C 
ENDBRANCH  18  23
BRANCH  19  25
HETATM   25  O5  UNK     1      28.344  -5.213  39.442  1.00  0.00    -0.353 OA
HETATM   26  C24 UNK     1      27.273  -4.630  38.704  1.00  0.00     0.210 C 
ENDBRANCH  19  25
ENDBRANCH  13  15
ENDBRANCH  12  13
ENDBRANCH   9  12
BRANCH  11  27
HETATM   27  C10 UNK     1      20.508  -6.812  36.419  1.00  0.00    -0.033 A 
HETATM   28  C18 UNK     1      20.892  -6.387  37.679  1.00  0.00     0.014 A 
HETATM   29  C20 UNK     1      20.683  -5.056  38.043  1.00  0.00     0.037 A 
HETATM   30  C22 UNK     1      20.092  -4.171  37.142  1.00  0.00     0.068 A 
HETATM   31  C21 UNK     1      19.710  -4.616  35.876  1.00  0.00     0.037 A 
HETATM   32  C19 UNK     1      19.919  -5.947  35.512  1.00  0.00     0.014 A 
BRANCH  30  33
HETATM   33  O7  UNK     1      19.888  -2.873  37.496  1.00  0.00    -0.356 OA
HETATM   34  C26 UNK     1      18.923  -2.139  36.744  1.00  0.00     0.210 C 
ENDBRANCH  30  33
ENDBRANCH  11  27
TORSDOF 8
ENDMDL
MODEL 8
REMARK VINA RESULT:      -8.9      5.639      9.849
REMARK  8 active torsions:
REMARK  status: ('A' for Active; 'I' for Inactive)
REMARK    1  A    between atoms: C17_25  and  O2_2 
REMARK    2  A    between atoms: C7_15  and  O2_2 
REMARK    3  A    between atoms: C16_24  and  O4_4 
REMARK    4  A    between atoms: C14_22  and  O5_5 
REMARK    5  A    between atoms: C15_23  and  O6_6 
REMARK    6  A    between atoms: C22_30  and  O7_7 
REMARK    7  A    between atoms: C10_18  and  C9_17 
REMARK    8  A    between atoms: C11_19  and  C17_25 
ROOT
HETATM    1  O1  UNK     1      16.420   8.653  33.650  1.00  0.00    -0.306 OA
HETATM    2  O3  UNK     1      19.614  10.059  34.254  1.00  0.00    -0.284 OA
HETATM    3  C1  UNK     1      18.629   7.981  33.570  1.00  0.00     0.051 A 
HETATM    4  C2  UNK     1      17.294   7.623  33.388  1.00  0.00     0.093 A 
HETATM    5  C3  UNK     1      17.212   9.734  34.020  1.00  0.00     0.127 A 
HETATM    6  C4  UNK     1      18.651   9.375  33.992  1.00  0.00     0.218 A 
HETATM    7  C5  UNK     1      16.945   6.353  32.985  1.00  0.00     0.075 A 
HETATM    8  C6  UNK     1      19.668   7.098  33.361  1.00  0.00     0.021 A 
HETATM    9  C7  UNK     1      17.980   5.437  32.765  1.00  0.00     0.082 A 
HETATM   10  C8  UNK     1      19.328   5.807  32.953  1.00  0.00     0.038 A 
HETATM   11  C9  UNK     1      16.742  10.935  34.357  1.00  0.00     0.053 C 
ENDROOT
BRANCH   9  12
HETATM   12  O2  UNK     1      17.682   4.168  32.365  1.00  0.00    -0.275 OA
BRANCH  12  13
HETATM   13  C17 UNK     1      18.398   3.737  31.246  1.00  0.00     0.298 C 
HETATM   14  O8  UNK     1      18.723   4.434  30.296  1.00  0.00    -0.259 OA
BRANCH  13  15
HETATM   15  C11 UNK     1      18.712   2.289  31.339  1.00  0.00     0.045 A 
HETATM   16  C12 UNK     1      19.263   1.655  30.244  1.00  0.00     0.057 A 
HETATM   17  C15 UNK     1      19.559   0.295  30.332  1.00  0.00     0.105 A 
HETATM   18  C16 UNK     1      19.297  -0.402  31.512  1.00  0.00     0.135 A 
HETATM   19  C14 UNK     1      18.740   0.263  32.604  1.00  0.00     0.105 A 
HETATM   20  C13 UNK     1      18.444   1.623  32.517  1.00  0.00     0.057 A 
BRANCH  17  21
HETATM   21  O6  UNK     1      20.104  -0.342  29.258  1.00  0.00    -0.353 OA
HETATM   22  C25 UNK     1      19.270  -0.513  28.113  1.00  0.00     0.210 C 
ENDBRANCH  17  21
BRANCH  18  23
HETATM   23  O4  UNK     1      19.587  -1.731  31.597  1.00  0.00    -0.351 OA
HETATM   24  C23 UNK     1      20.869  -2.081  32.112  1.00  0.00     0.210 C 
ENDBRANCH  18  23
BRANCH  19  25
HETATM   25  O5  UNK     1      18.480  -0.406  33.762  1.00  0.00    -0.353 OA
HETATM   26  C24 UNK     1      17.480   0.143  34.617  1.00  0.00     0.210 C 
ENDBRANCH  19  25
ENDBRANCH  13  15
ENDBRANCH  12  13
ENDBRANCH   9  12
BRANCH  11  27
HETATM   27  C10 UNK     1      15.321  11.329  34.396  1.00  0.00    -0.033 A 
HETATM   28  C18 UNK     1      14.629  11.244  35.593  1.00  0.00     0.014 A 
HETATM   29  C20 UNK     1      13.285  11.615  35.630  1.00  0.00     0.037 A 
HETATM   30  C22 UNK     1      12.652  12.065  34.472  1.00  0.00     0.068 A 
HETATM   31  C21 UNK     1      13.364  12.146  33.275  1.00  0.00     0.037 A 
HETATM   32  C19 UNK     1      14.708  11.774  33.236  1.00  0.00     0.014 A 
BRANCH  30  33
HETATM   33  O7  UNK     1      11.342  12.428  34.509  1.00  0.00    -0.356 OA
HETATM   34  C26 UNK     1      10.808  13.056  33.343  1.00  0.00     0.210 C 
ENDBRANCH  30  33
ENDBRANCH  11  27
TORSDOF 8
ENDMDL
MODEL 9
REMARK VINA RESULT:      -8.8      7.633     12.222
REMARK  8 active torsions:
REMARK  status: ('A' for Active; 'I' for Inactive)
REMARK    1  A    between atoms: C17_25  and  O2_2 
REMARK    2  A    between atoms: C7_15  and  O2_2 
REMARK    3  A    between atoms: C16_24  and  O4_4 
REMARK    4  A    between atoms: C14_22  and  O5_5 
REMARK    5  A    between atoms: C15_23  and  O6_6 
REMARK    6  A    between atoms: C22_30  and  O7_7 
REMARK    7  A    between atoms: C10_18  and  C9_17 
REMARK    8  A    between atoms: C11_19  and  C17_25 
ROOT
HETATM    1  O1  UNK     1      23.920  -8.745  37.194  1.00  0.00    -0.306 OA
HETATM    2  O3  UNK     1      25.060 -11.797  35.806  1.00  0.00    -0.284 OA
HETATM    3  C1  UNK     1      25.868  -9.986  37.158  1.00  0.00     0.051 A 
HETATM    4  C2  UNK     1      25.229  -8.831  37.608  1.00  0.00     0.093 A 
HETATM    5  C3  UNK     1      23.686  -9.889  36.440  1.00  0.00     0.127 A 
HETATM    6  C4  UNK     1      24.899 -10.739  36.371  1.00  0.00     0.218 A 
HETATM    7  C5  UNK     1      25.891  -7.907  38.386  1.00  0.00     0.075 A 
HETATM    8  C6  UNK     1      27.183 -10.270  37.459  1.00  0.00     0.021 A 
HETATM    9  C7  UNK     1      27.227  -8.172  38.706  1.00  0.00     0.082 A 
HETATM   10  C8  UNK     1      27.866  -9.341  38.246  1.00  0.00     0.038 A 
HETATM   11  C9  UNK     1      22.525 -10.184  35.854  1.00  0.00     0.053 C 
ENDROOT
BRANCH   9  12
HETATM   12  O2  UNK     1      27.923  -7.286  39.474  1.00  0.00    -0.275 OA
BRANCH  12  13
HETATM   13  C17 UNK     1      28.099  -6.032  38.885  1.00  0.00     0.298 C 
HETATM   14  O8  UNK     1      27.446  -5.029  39.133  1.00  0.00    -0.259 OA
BRANCH  13  15
HETATM   15  C11 UNK     1      29.194  -6.062  37.883  1.00  0.00     0.045 A 
HETATM   16  C12 UNK     1      30.502  -6.026  38.322  1.00  0.00     0.057 A 
HETATM   17  C15 UNK     1      31.529  -6.055  37.379  1.00  0.00     0.105 A 
HETATM   18  C16 UNK     1      31.228  -6.118  36.019  1.00  0.00     0.135 A 
HETATM   19  C14 UNK     1      29.897  -6.154  35.601  1.00  0.00     0.105 A 
HETATM   20  C13 UNK     1      28.868  -6.125  36.543  1.00  0.00     0.057 A 
BRANCH  17  21
HETATM   21  O6  UNK     1      32.825  -6.022  37.801  1.00  0.00    -0.353 OA
HETATM   22  C25 UNK     1      33.518  -7.267  37.863  1.00  0.00     0.210 C 
ENDBRANCH  17  21
BRANCH  18  23
HETATM   23  O4  UNK     1      32.232  -6.147  35.098  1.00  0.00    -0.351 OA
HETATM   24  C23 UNK     1      32.729  -4.892  34.643  1.00  0.00     0.210 C 
ENDBRANCH  18  23
BRANCH  19  25
HETATM   25  O5  UNK     1      29.589  -6.216  34.275  1.00  0.00    -0.353 OA
HETATM   26  C24 UNK     1      28.241  -6.534  33.938  1.00  0.00     0.210 C 
ENDBRANCH  19  25
ENDBRANCH  13  15
ENDBRANCH  12  13
ENDBRANCH   9  12
BRANCH  11  27
HETATM   27  C10 UNK     1      21.299  -9.365  35.899  1.00  0.00    -0.033 A 
HETATM   28  C18 UNK     1      20.300  -9.693  36.799  1.00  0.00     0.014 A 
HETATM   29  C20 UNK     1      19.140  -8.920  36.841  1.00  0.00     0.037 A 
HETATM   30  C22 UNK     1      18.995  -7.831  35.981  1.00  0.00     0.068 A 
HETATM   31  C21 UNK     1      20.011  -7.515  35.080  1.00  0.00     0.037 A 
HETATM   32  C19 UNK     1      21.172  -8.288  35.037  1.00  0.00     0.014 A 
BRANCH  30  33
HETATM   33  O7  UNK     1      17.864  -7.077  36.022  1.00  0.00    -0.356 OA
HETATM   34  C26 UNK     1      16.804  -7.447  35.142  1.00  0.00     0.210 C 
ENDBRANCH  30  33
ENDBRANCH  11  27
TORSDOF 8
ENDMDL
MODEL 10
REMARK VINA RESULT:      -8.8      5.869     10.787
REMARK  8 active torsions:
REMARK  status: ('A' for Active; 'I' for Inactive)
REMARK    1  A    between atoms: C17_25  and  O2_2 
REMARK    2  A    between atoms: C7_15  and  O2_2 
REMARK    3  A    between atoms: C16_24  and  O4_4 
REMARK    4  A    between atoms: C14_22  and  O5_5 
REMARK    5  A    between atoms: C15_23  and  O6_6 
REMARK    6  A    between atoms: C22_30  and  O7_7 
REMARK    7  A    between atoms: C10_18  and  C9_17 
REMARK    8  A    between atoms: C11_19  and  C17_25 
ROOT
HETATM    1  O1  UNK     1      23.059  -8.380  36.652  1.00  0.00    -0.306 OA
HETATM    2  O3  UNK     1      21.279 -11.019  35.099  1.00  0.00    -0.284 OA
HETATM    3  C1  UNK     1      23.447 -10.569  36.025  1.00  0.00     0.051 A 
HETATM    4  C2  UNK     1      23.964  -9.415  36.611  1.00  0.00     0.093 A 
HETATM    5  C3  UNK     1      21.896  -8.872  36.070  1.00  0.00     0.127 A 
HETATM    6  C4  UNK     1      22.072 -10.280  35.639  1.00  0.00     0.218 A 
HETATM    7  C5  UNK     1      25.258  -9.373  37.083  1.00  0.00     0.075 A 
HETATM    8  C6  UNK     1      24.187 -11.724  35.883  1.00  0.00     0.021 A 
HETATM    9  C7  UNK     1      26.030 -10.532  36.952  1.00  0.00     0.082 A 
HETATM   10  C8  UNK     1      25.500 -11.695  36.358  1.00  0.00     0.038 A 
HETATM   11  C9  UNK     1      20.772  -8.172  35.916  1.00  0.00     0.053 C 
ENDROOT
BRANCH   9  12
HETATM   12  O2  UNK     1      27.316 -10.538  37.406  1.00  0.00    -0.275 OA
BRANCH  12  13
HETATM   13  C17 UNK     1      27.482  -9.961  38.666  1.00  0.00     0.298 C 
HETATM   14  O8  UNK     1      26.939 -10.329  39.697  1.00  0.00    -0.259 OA
BRANCH  13  15
HETATM   15  C11 UNK     1      28.411  -8.804  38.605  1.00  0.00     0.045 A 
HETATM   16  C12 UNK     1      27.980  -7.578  39.072  1.00  0.00     0.057 A 
HETATM   17  C15 UNK     1      28.854  -6.492  39.015  1.00  0.00     0.105 A 
HETATM   18  C16 UNK     1      30.137  -6.654  38.491  1.00  0.00     0.135 A 
HETATM   19  C14 UNK     1      30.547  -7.903  38.027  1.00  0.00     0.105 A 
HETATM   20  C13 UNK     1      29.674  -8.990  38.084  1.00  0.00     0.057 A 
BRANCH  17  21
HETATM   21  O6  UNK     1      28.441  -5.277  39.474  1.00  0.00    -0.353 OA
HETATM   22  C25 UNK     1      27.497  -4.569  38.673  1.00  0.00     0.210 C 
ENDBRANCH  17  21
BRANCH  18  23
HETATM   23  O4  UNK     1      30.989  -5.592  38.437  1.00  0.00    -0.351 OA
HETATM   24  C23 UNK     1      30.982  -4.817  37.240  1.00  0.00     0.210 C 
ENDBRANCH  18  23
BRANCH  19  25
HETATM   25  O5  UNK     1      31.798  -8.074  37.514  1.00  0.00    -0.353 OA
HETATM   26  C24 UNK     1      31.948  -9.051  36.486  1.00  0.00     0.210 C 
ENDBRANCH  19  25
ENDBRANCH  13  15
ENDBRANCH  12  13
ENDBRANCH   9  12
BRANCH  11  27
HETATM   27  C10 UNK     1      20.560  -6.772  36.329  1.00  0.00    -0.033 A 
HETATM   28  C18 UNK     1      20.954  -6.375  37.596  1.00  0.00     0.014 A 
HETATM   29  C20 UNK     1      20.752  -5.052  37.988  1.00  0.00     0.037 A 
HETATM   30  C22 UNK     1      20.160  -4.145  37.109  1.00  0.00     0.068 A 
HETATM   31  C21 UNK     1      19.769  -4.562  35.837  1.00  0.00     0.037 A 
HETATM   32  C19 UNK     1      19.970  -5.886  35.444  1.00  0.00     0.014 A 
BRANCH  30  33
HETATM   33  O7  UNK     1      19.964  -2.854  37.491  1.00  0.00    -0.356 OA
HETATM   34  C26 UNK     1      18.900  -2.144  36.859  1.00  0.00     0.210 C 
ENDBRANCH  30  33
ENDBRANCH  11  27
TORSDOF 8
ENDMDL
