MODEL 1
REMARK VINA RESULT:      -8.9      0.000      0.000
REMARK  1 active torsions:
REMARK  status: ('A' for Active; 'I' for Inactive)
REMARK    1  A    between atoms: C5_7  and  C8_10 
ROOT
HETATM    1  O1  UNK     1      17.820   2.464  27.989  1.00  0.00    -0.285 OA
HETATM    2  N1  UNK     1      19.608   2.054  30.964  1.00  0.00    -0.352 N 
HETATM    3  C1  UNK     1      19.138   0.792  29.103  1.00  0.00     0.043 A 
HETATM    4  C2  UNK     1      19.796   0.828  30.341  1.00  0.00     0.047 A 
HETATM    5  C3  UNK     1      18.833   2.872  30.182  1.00  0.00     0.085 A 
HETATM    6  C4  UNK     1      18.486   2.103  28.935  1.00  0.00     0.210 A 
HETATM    7  C5  UNK     1      18.407   4.120  30.379  1.00  0.00     0.045 C 
HETATM    8  C6  UNK     1      19.156  -0.305  28.269  1.00  0.00     0.018 A 
HETATM    9  C7  UNK     1      20.505  -0.272  30.778  1.00  0.00     0.030 A 
HETATM   10  C9  UNK     1      19.873  -1.418  28.710  1.00  0.00     0.001 A 
HETATM   11  C10 UNK     1      20.540  -1.402  29.952  1.00  0.00     0.002 A 
HETATM   12  H1  UNK     1      19.980   2.322  31.860  1.00  0.00     0.166 HD
ENDROOT
BRANCH   7  13
HETATM   13  C8  UNK     1      18.691   4.954  31.563  1.00  0.00    -0.034 A 
HETATM   14  C11 UNK     1      17.836   4.901  32.649  1.00  0.00     0.011 A 
HETATM   15  C13 UNK     1      18.105   5.690  33.768  1.00  0.00     0.001 A 
HETATM   16  C15 UNK     1      19.226   6.519  33.783  1.00  0.00     0.000 A 
HETATM   17  C14 UNK     1      20.078   6.561  32.679  1.00  0.00     0.001 A 
HETATM   18  C12 UNK     1      19.809   5.773  31.560  1.00  0.00     0.011 A 
ENDBRANCH   7  13
TORSDOF 1
ENDMDL
MODEL 2
REMARK VINA RESULT:      -8.4      3.505      4.204
REMARK  1 active torsions:
REMARK  status: ('A' for Active; 'I' for Inactive)
REMARK    1  A    between atoms: C5_7  and  C8_10 
ROOT
HETATM    1  O1  UNK     1      18.786   2.718  30.763  1.00  0.00    -0.285 OA
HETATM    2  N1  UNK     1      18.976  -0.227  32.636  1.00  0.00    -0.352 N 
HETATM    3  C1  UNK     1      19.528   0.446  30.510  1.00  0.00     0.043 A 
HETATM    4  C2  UNK     1      19.517  -0.621  31.419  1.00  0.00     0.047 A 
HETATM    5  C3  UNK     1      18.611   1.095  32.589  1.00  0.00     0.085 A 
HETATM    6  C4  UNK     1      18.947   1.605  31.213  1.00  0.00     0.210 A 
HETATM    7  C5  UNK     1      18.060   1.882  33.514  1.00  0.00     0.045 C 
HETATM    8  C6  UNK     1      20.011   0.339  29.223  1.00  0.00     0.018 A 
HETATM    9  C7  UNK     1      20.005  -1.854  31.043  1.00  0.00     0.030 A 
HETATM   10  C9  UNK     1      20.505  -0.909  28.841  1.00  0.00     0.001 A 
HETATM   11  C10 UNK     1      20.502  -1.995  29.741  1.00  0.00     0.002 A 
HETATM   12  H1  UNK     1      18.860  -0.812  33.446  1.00  0.00     0.166 HD
ENDROOT
BRANCH   7  13
HETATM   13  C8  UNK     1      17.694   1.478  34.885  1.00  0.00    -0.034 A 
HETATM   14  C11 UNK     1      18.434   1.957  35.952  1.00  0.00     0.011 A 
HETATM   15  C13 UNK     1      18.088   1.575  37.249  1.00  0.00     0.001 A 
HETATM   16  C15 UNK     1      17.007   0.719  37.458  1.00  0.00     0.000 A 
HETATM   17  C14 UNK     1      16.272   0.245  36.371  1.00  0.00     0.001 A 
HETATM   18  C12 UNK     1      16.618   0.626  35.075  1.00  0.00     0.011 A 
ENDBRANCH   7  13
TORSDOF 1
ENDMDL
MODEL 3
REMARK VINA RESULT:      -8.2      4.189      5.153
REMARK  1 active torsions:
REMARK  status: ('A' for Active; 'I' for Inactive)
REMARK    1  A    between atoms: C5_7  and  C8_10 
ROOT
HETATM    1  O1  UNK     1      20.308  -2.848  32.912  1.00  0.00    -0.285 OA
HETATM    2  N1  UNK     1      18.715   0.244  32.567  1.00  0.00    -0.352 N 
HETATM    3  C1  UNK     1      19.936  -1.170  31.232  1.00  0.00     0.043 A 
HETATM    4  C2  UNK     1      19.241   0.046  31.298  1.00  0.00     0.047 A 
HETATM    5  C3  UNK     1      19.030  -0.812  33.384  1.00  0.00     0.085 A 
HETATM    6  C4  UNK     1      19.837  -1.786  32.567  1.00  0.00     0.210 A 
HETATM    7  C5  UNK     1      18.736  -1.043  34.664  1.00  0.00     0.045 C 
HETATM    8  C6  UNK     1      20.561  -1.622  30.089  1.00  0.00     0.018 A 
HETATM    9  C7  UNK     1      19.159   0.857  30.185  1.00  0.00     0.030 A 
HETATM   10  C9  UNK     1      20.478  -0.803  28.962  1.00  0.00     0.001 A 
HETATM   11  C10 UNK     1      19.785   0.424  29.010  1.00  0.00     0.002 A 
HETATM   12  H1  UNK     1      18.177   1.042  32.864  1.00  0.00     0.166 HD
ENDROOT
BRANCH   7  13
HETATM   13  C8  UNK     1      17.956  -0.154  35.546  1.00  0.00    -0.034 A 
HETATM   14  C11 UNK     1      16.581  -0.296  35.606  1.00  0.00     0.011 A 
HETATM   15  C13 UNK     1      15.844   0.545  36.440  1.00  0.00     0.001 A 
HETATM   16  C15 UNK     1      16.494   1.516  37.202  1.00  0.00     0.000 A 
HETATM   17  C14 UNK     1      17.881   1.646  37.130  1.00  0.00     0.001 A 
HETATM   18  C12 UNK     1      18.618   0.805  36.296  1.00  0.00     0.011 A 
ENDBRANCH   7  13
TORSDOF 1
ENDMDL
MODEL 4
REMARK VINA RESULT:      -8.0     21.842     23.830
REMARK  1 active torsions:
REMARK  status: ('A' for Active; 'I' for Inactive)
REMARK    1  A    between atoms: C5_7  and  C8_10 
ROOT
HETATM    1  O1  UNK     1      15.134   4.471   9.466  1.00  0.00    -0.285 OA
HETATM    2  N1  UNK     1      13.570   7.495   8.674  1.00  0.00    -0.352 N 
HETATM    3  C1  UNK     1      15.560   6.832   9.612  1.00  0.00     0.043 A 
HETATM    4  C2  UNK     1      14.773   7.924   9.221  1.00  0.00     0.047 A 
HETATM    5  C3  UNK     1      13.508   6.125   8.677  1.00  0.00     0.085 A 
HETATM    6  C4  UNK     1      14.790   5.619   9.283  1.00  0.00     0.210 A 
HETATM    7  C5  UNK     1      12.555   5.294   8.254  1.00  0.00     0.045 C 
HETATM    8  C6  UNK     1      16.806   6.965  10.186  1.00  0.00     0.018 A 
HETATM    9  C7  UNK     1      15.235   9.211   9.405  1.00  0.00     0.030 A 
HETATM   10  C9  UNK     1      17.275   8.266  10.372  1.00  0.00     0.001 A 
HETATM   11  C10 UNK     1      16.498   9.377   9.987  1.00  0.00     0.002 A 
HETATM   12  H1  UNK     1      12.839   8.089   8.322  1.00  0.00     0.166 HD
ENDROOT
BRANCH   7  13
HETATM   13  C8  UNK     1      11.269   5.690   7.650  1.00  0.00    -0.034 A 
HETATM   14  C11 UNK     1      10.145   5.787   8.452  1.00  0.00     0.011 A 
HETATM   15  C13 UNK     1       8.929   6.161   7.880  1.00  0.00     0.001 A 
HETATM   16  C15 UNK     1       8.855   6.433   6.514  1.00  0.00     0.000 A 
HETATM   17  C14 UNK     1       9.997   6.330   5.720  1.00  0.00     0.001 A 
HETATM   18  C12 UNK     1      11.213   5.955   6.291  1.00  0.00     0.011 A 
ENDBRANCH   7  13
TORSDOF 1
ENDMDL
MODEL 5
REMARK VINA RESULT:      -8.0     21.843     23.854
REMARK  1 active torsions:
REMARK  status: ('A' for Active; 'I' for Inactive)
REMARK    1  A    between atoms: C5_7  and  C8_10 
ROOT
HETATM    1  O1  UNK     1      15.122   4.471   9.466  1.00  0.00    -0.285 OA
HETATM    2  N1  UNK     1      13.558   7.494   8.670  1.00  0.00    -0.352 N 
HETATM    3  C1  UNK     1      15.552   6.832   9.599  1.00  0.00     0.043 A 
HETATM    4  C2  UNK     1      14.764   7.924   9.208  1.00  0.00     0.047 A 
HETATM    5  C3  UNK     1      13.494   6.124   8.679  1.00  0.00     0.085 A 
HETATM    6  C4  UNK     1      14.779   5.618   9.280  1.00  0.00     0.210 A 
HETATM    7  C5  UNK     1      12.538   5.292   8.265  1.00  0.00     0.045 C 
HETATM    8  C6  UNK     1      16.802   6.966  10.165  1.00  0.00     0.018 A 
HETATM    9  C7  UNK     1      15.229   9.210   9.384  1.00  0.00     0.030 A 
HETATM   10  C9  UNK     1      17.274   8.267  10.343  1.00  0.00     0.001 A 
HETATM   11  C10 UNK     1      16.496   9.377   9.957  1.00  0.00     0.002 A 
HETATM   12  H1  UNK     1      12.825   8.087   8.319  1.00  0.00     0.166 HD
ENDROOT
BRANCH   7  13
HETATM   13  C8  UNK     1      11.248   5.687   7.667  1.00  0.00    -0.034 A 
HETATM   14  C11 UNK     1      11.182   5.946   6.309  1.00  0.00     0.011 A 
HETATM   15  C13 UNK     1       9.963   6.320   5.744  1.00  0.00     0.001 A 
HETATM   16  C15 UNK     1       8.827   6.429   6.546  1.00  0.00     0.000 A 
HETATM   17  C14 UNK     1       8.911   6.165   7.913  1.00  0.00     0.001 A 
HETATM   18  C12 UNK     1      10.130   5.791   8.478  1.00  0.00     0.011 A 
ENDBRANCH   7  13
TORSDOF 1
ENDMDL
MODEL 6
REMARK VINA RESULT:      -7.7      2.074      2.749
REMARK  1 active torsions:
REMARK  status: ('A' for Active; 'I' for Inactive)
REMARK    1  A    between atoms: C5_7  and  C8_10 
ROOT
HETATM    1  O1  UNK     1      18.270   0.269  33.459  1.00  0.00    -0.285 OA
HETATM    2  N1  UNK     1      19.376   1.794  30.515  1.00  0.00    -0.352 N 
HETATM    3  C1  UNK     1      19.390  -0.319  31.415  1.00  0.00     0.043 A 
HETATM    4  C2  UNK     1      19.754   0.473  30.317  1.00  0.00     0.047 A 
HETATM    5  C3  UNK     1      18.756   1.935  31.730  1.00  0.00     0.085 A 
HETATM    6  C4  UNK     1      18.729   0.578  32.381  1.00  0.00     0.210 A 
HETATM    7  C5  UNK     1      18.236   3.010  32.325  1.00  0.00     0.045 C 
HETATM    8  C6  UNK     1      19.643  -1.672  31.489  1.00  0.00     0.018 A 
HETATM    9  C7  UNK     1      20.399  -0.096  29.239  1.00  0.00     0.030 A 
HETATM   10  C9  UNK     1      20.296  -2.248  30.398  1.00  0.00     0.001 A 
HETATM   11  C10 UNK     1      20.670  -1.469  29.285  1.00  0.00     0.002 A 
HETATM   12  H1  UNK     1      19.527   2.553  29.871  1.00  0.00     0.166 HD
ENDROOT
BRANCH   7  13
HETATM   13  C8  UNK     1      18.214   4.378  31.773  1.00  0.00    -0.034 A 
HETATM   14  C11 UNK     1      18.968   4.667  30.650  1.00  0.00     0.011 A 
HETATM   15  C13 UNK     1      18.947   5.961  30.128  1.00  0.00     0.001 A 
HETATM   16  C15 UNK     1      18.170   6.946  30.738  1.00  0.00     0.000 A 
HETATM   17  C14 UNK     1      17.415   6.637  31.870  1.00  0.00     0.001 A 
HETATM   18  C12 UNK     1      17.437   5.344  32.392  1.00  0.00     0.011 A 
ENDBRANCH   7  13
TORSDOF 1
ENDMDL
MODEL 7
REMARK VINA RESULT:      -7.7      7.651     10.259
REMARK  1 active torsions:
REMARK  status: ('A' for Active; 'I' for Inactive)
REMARK    1  A    between atoms: C5_7  and  C8_10 
ROOT
HETATM    1  O1  UNK     1      20.133  -1.819  34.331  1.00  0.00    -0.285 OA
HETATM    2  N1  UNK     1      18.703  -2.418  37.464  1.00  0.00    -0.352 N 
HETATM    3  C1  UNK     1      18.875  -0.647  36.011  1.00  0.00     0.043 A 
HETATM    4  C2  UNK     1      18.377  -1.086  37.246  1.00  0.00     0.047 A 
HETATM    5  C3  UNK     1      19.418  -2.913  36.403  1.00  0.00     0.085 A 
HETATM    6  C4  UNK     1      19.570  -1.797  35.404  1.00  0.00     0.210 A 
HETATM    7  C5  UNK     1      19.930  -4.125  36.185  1.00  0.00     0.045 C 
HETATM    8  C6  UNK     1      18.699   0.635  35.537  1.00  0.00     0.018 A 
HETATM    9  C7  UNK     1      17.671  -0.219  38.053  1.00  0.00     0.030 A 
HETATM   10  C9  UNK     1      17.984   1.513  36.353  1.00  0.00     0.001 A 
HETATM   11  C10 UNK     1      17.476   1.091  37.599  1.00  0.00     0.002 A 
HETATM   12  H1  UNK     1      18.459  -2.958  38.277  1.00  0.00     0.166 HD
ENDROOT
BRANCH   7  13
HETATM   13  C8  UNK     1      19.836  -5.280  37.099  1.00  0.00    -0.034 A 
HETATM   14  C11 UNK     1      18.831  -6.212  36.912  1.00  0.00     0.011 A 
HETATM   15  C13 UNK     1      18.743  -7.304  37.776  1.00  0.00     0.001 A 
HETATM   16  C15 UNK     1      19.662  -7.446  38.815  1.00  0.00     0.000 A 
HETATM   17  C14 UNK     1      20.669  -6.496  38.991  1.00  0.00     0.001 A 
HETATM   18  C12 UNK     1      20.757  -5.405  38.127  1.00  0.00     0.011 A 
ENDBRANCH   7  13
TORSDOF 1
ENDMDL
MODEL 8
REMARK VINA RESULT:      -7.7      3.866      6.382
REMARK  1 active torsions:
REMARK  status: ('A' for Active; 'I' for Inactive)
REMARK    1  A    between atoms: C5_7  and  C8_10 
ROOT
HETATM    1  O1  UNK     1      18.235   3.547  34.053  1.00  0.00    -0.285 OA
HETATM    2  N1  UNK     1      18.432   0.110  33.449  1.00  0.00    -0.352 N 
HETATM    3  C1  UNK     1      17.917   1.473  35.225  1.00  0.00     0.043 A 
HETATM    4  C2  UNK     1      18.051   0.148  34.784  1.00  0.00     0.047 A 
HETATM    5  C3  UNK     1      18.564   1.382  32.954  1.00  0.00     0.085 A 
HETATM    6  C4  UNK     1      18.239   2.335  34.074  1.00  0.00     0.210 A 
HETATM    7  C5  UNK     1      18.906   1.815  31.740  1.00  0.00     0.045 C 
HETATM    8  C6  UNK     1      17.549   1.808  36.510  1.00  0.00     0.018 A 
HETATM    9  C7  UNK     1      17.811  -0.896  35.651  1.00  0.00     0.030 A 
HETATM   10  C9  UNK     1      17.305   0.751  37.389  1.00  0.00     0.001 A 
HETATM   11  C10 UNK     1      17.436  -0.587  36.964  1.00  0.00     0.002 A 
HETATM   12  H1  UNK     1      18.592  -0.722  32.906  1.00  0.00     0.166 HD
ENDROOT
BRANCH   7  13
HETATM   13  C8  UNK     1      19.242   0.965  30.582  1.00  0.00    -0.034 A 
HETATM   14  C11 UNK     1      20.279   0.054  30.688  1.00  0.00     0.011 A 
HETATM   15  C13 UNK     1      20.597  -0.749  29.593  1.00  0.00     0.001 A 
HETATM   16  C15 UNK     1      19.872  -0.629  28.408  1.00  0.00     0.000 A 
HETATM   17  C14 UNK     1      18.830   0.294  28.317  1.00  0.00     0.001 A 
HETATM   18  C12 UNK     1      18.513   1.097  29.412  1.00  0.00     0.011 A 
ENDBRANCH   7  13
TORSDOF 1
ENDMDL
MODEL 9
REMARK VINA RESULT:      -7.6      3.652      5.609
REMARK  1 active torsions:
REMARK  status: ('A' for Active; 'I' for Inactive)
REMARK    1  A    between atoms: C5_7  and  C8_10 
ROOT
HETATM    1  O1  UNK     1      18.819   1.530  30.689  1.00  0.00    -0.285 OA
HETATM    2  N1  UNK     1      18.020   3.741  33.275  1.00  0.00    -0.352 N 
HETATM    3  C1  UNK     1      18.638   3.896  31.068  1.00  0.00     0.043 A 
HETATM    4  C2  UNK     1      18.288   4.608  32.224  1.00  0.00     0.047 A 
HETATM    5  C3  UNK     1      18.177   2.440  32.871  1.00  0.00     0.085 A 
HETATM    6  C4  UNK     1      18.584   2.466  31.421  1.00  0.00     0.210 A 
HETATM    7  C5  UNK     1      18.025   1.295  33.537  1.00  0.00     0.045 C 
HETATM    8  C6  UNK     1      18.955   4.505  29.872  1.00  0.00     0.018 A 
HETATM    9  C7  UNK     1      18.250   5.987  32.202  1.00  0.00     0.030 A 
HETATM   10  C9  UNK     1      18.916   5.899  29.849  1.00  0.00     0.001 A 
HETATM   11  C10 UNK     1      18.568   6.633  31.001  1.00  0.00     0.002 A 
HETATM   12  H1  UNK     1      17.749   4.010  34.206  1.00  0.00     0.166 HD
ENDROOT
BRANCH   7  13
HETATM   13  C8  UNK     1      17.631   1.164  34.953  1.00  0.00    -0.034 A 
HETATM   14  C11 UNK     1      18.475   1.645  35.938  1.00  0.00     0.011 A 
HETATM   15  C13 UNK     1      18.103   1.521  37.276  1.00  0.00     0.001 A 
HETATM   16  C15 UNK     1      16.890   0.917  37.609  1.00  0.00     0.000 A 
HETATM   17  C14 UNK     1      16.051   0.437  36.604  1.00  0.00     0.001 A 
HETATM   18  C12 UNK     1      16.424   0.561  35.266  1.00  0.00     0.011 A 
ENDBRANCH   7  13
TORSDOF 1
ENDMDL
MODEL 10
REMARK VINA RESULT:      -7.6      4.844      7.317
REMARK  1 active torsions:
REMARK  status: ('A' for Active; 'I' for Inactive)
REMARK    1  A    between atoms: C5_7  and  C8_10 
ROOT
HETATM    1  O1  UNK     1      20.444  -3.568  34.954  1.00  0.00    -0.285 OA
HETATM    2  N1  UNK     1      18.858  -0.592  34.033  1.00  0.00    -0.352 N 
HETATM    3  C1  UNK     1      19.109  -1.834  35.949  1.00  0.00     0.043 A 
HETATM    4  C2  UNK     1      18.551  -0.678  35.385  1.00  0.00     0.047 A 
HETATM    5  C3  UNK     1      19.620  -1.666  33.649  1.00  0.00     0.085 A 
HETATM    6  C4  UNK     1      19.827  -2.529  34.865  1.00  0.00     0.210 A 
HETATM    7  C5  UNK     1      20.137  -1.989  32.463  1.00  0.00     0.045 C 
HETATM    8  C6  UNK     1      18.964  -2.172  37.278  1.00  0.00     0.018 A 
HETATM    9  C7  UNK     1      17.811   0.185  36.166  1.00  0.00     0.030 A 
HETATM   10  C9  UNK     1      18.216  -1.299  38.069  1.00  0.00     0.001 A 
HETATM   11  C10 UNK     1      17.646  -0.133  37.520  1.00  0.00     0.002 A 
HETATM   12  H1  UNK     1      18.571   0.144  33.410  1.00  0.00     0.166 HD
ENDROOT
BRANCH   7  13
HETATM   13  C8  UNK     1      19.991  -1.213  31.216  1.00  0.00    -0.034 A 
HETATM   14  C11 UNK     1      19.488   0.074  31.274  1.00  0.00     0.011 A 
HETATM   15  C13 UNK     1      19.351   0.808  30.096  1.00  0.00     0.001 A 
HETATM   16  C15 UNK     1      19.718   0.241  28.875  1.00  0.00     0.000 A 
HETATM   17  C14 UNK     1      20.223  -1.059  28.834  1.00  0.00     0.001 A 
HETATM   18  C12 UNK     1      20.361  -1.792  30.012  1.00  0.00     0.011 A 
ENDBRANCH   7  13
TORSDOF 1
ENDMDL
