MODEL 1
REMARK VINA RESULT:      -9.2      0.000      0.000
REMARK  3 active torsions:
REMARK  status: ('A' for Active; 'I' for Inactive)
REMARK    1  A    between atoms: C1_9  and  N1_6 
REMARK       I    between atoms: C11_19  and  N2_7 
REMARK    2  A    between atoms: C19_27  and  N3_8 
REMARK    3  A    between atoms: C11_19  and  C12_20 
ROOT
HETATM    1  O2  UNK     1      18.321  -0.907  35.255  1.00  0.00    -0.274 OA
HETATM    2  O3  UNK     1      18.212  -1.584  37.435  1.00  0.00    -0.259 OA
HETATM    3  C12 UNK     1      19.780  -2.700  36.052  1.00  0.00     0.108 A 
HETATM    4  C13 UNK     1      20.328  -2.829  34.839  1.00  0.00     0.037 A 
HETATM    5  C14 UNK     1      18.719  -1.704  36.324  1.00  0.00     0.304 A 
HETATM    6  C15 UNK     1      19.891  -1.981  33.741  1.00  0.00     0.001 A 
HETATM    7  C16 UNK     1      18.895  -1.038  33.975  1.00  0.00     0.089 A 
HETATM    8  C17 UNK     1      20.436  -2.079  32.459  1.00  0.00     0.050 A 
HETATM    9  C18 UNK     1      18.431  -0.194  32.969  1.00  0.00     0.041 A 
HETATM   10  C19 UNK     1      19.980  -1.241  31.438  1.00  0.00     0.103 A 
HETATM   11  C20 UNK     1      18.980  -0.301  31.692  1.00  0.00     0.039 A 
ENDROOT
BRANCH   3  12
HETATM   12  C11 UNK     1      20.291  -3.606  37.099  1.00  0.00     0.260 C 
HETATM   13  O1  UNK     1      21.082  -3.137  37.920  1.00  0.00    -0.267 OA
HETATM   14  N2  UNK     1      19.846  -4.925  37.095  1.00  0.00    -0.344 N 
HETATM   15  C10 UNK     1      20.211  -5.807  38.204  1.00  0.00     0.156 C 
HETATM   16  C9  UNK     1      18.907  -5.531  36.143  1.00  0.00     0.156 C 
HETATM   17  C8  UNK     1      20.704  -7.160  37.690  1.00  0.00     0.292 C 
HETATM   18  N1  UNK     1      19.713  -7.773  36.793  1.00  0.00     0.096 N 
HETATM   19  C7  UNK     1      19.424  -6.886  35.657  1.00  0.00     0.292 C 
BRANCH  18  20
HETATM   20  C1  UNK     1      20.180  -9.075  36.323  1.00  0.00     0.223 C 
HETATM   21  C2  UNK     1      21.248  -8.886  35.240  1.00  0.00     0.036 C 
HETATM   22  C4  UNK     1      21.817 -10.226  34.776  1.00  0.00     0.002 C 
HETATM   23  C6  UNK     1      22.350 -11.045  35.948  1.00  0.00     0.000 C 
HETATM   24  C5  UNK     1      21.296 -11.229  37.035  1.00  0.00     0.002 C 
HETATM   25  C3  UNK     1      20.727  -9.890  37.500  1.00  0.00     0.036 C 
ENDBRANCH  18  20
ENDBRANCH   3  12
BRANCH  10  26
HETATM   26  N3  UNK     1      20.537  -1.346  30.135  1.00  0.00    -0.116 N 
HETATM   27  O4  UNK     1      20.718  -0.300  29.466  1.00  0.00    -0.532 OA
HETATM   28  O5  UNK     1      20.833  -2.481  29.690  1.00  0.00    -0.532 OA
ENDBRANCH  10  26
TORSDOF 3
ENDMDL
MODEL 2
REMARK VINA RESULT:      -8.9      7.641     13.581
REMARK  3 active torsions:
REMARK  status: ('A' for Active; 'I' for Inactive)
REMARK    1  A    between atoms: C1_9  and  N1_6 
REMARK       I    between atoms: C11_19  and  N2_7 
REMARK    2  A    between atoms: C19_27  and  N3_8 
REMARK    3  A    between atoms: C11_19  and  C12_20 
ROOT
HETATM    1  O2  UNK     1      17.865   2.190  32.598  1.00  0.00    -0.274 OA
HETATM    2  O3  UNK     1      18.173   3.932  31.152  1.00  0.00    -0.259 OA
HETATM    3  C12 UNK     1      18.606   4.362  33.441  1.00  0.00     0.108 A 
HETATM    4  C13 UNK     1      18.637   3.895  34.694  1.00  0.00     0.037 A 
HETATM    5  C14 UNK     1      18.205   3.507  32.301  1.00  0.00     0.304 A 
HETATM    6  C15 UNK     1      18.276   2.514  34.972  1.00  0.00     0.001 A 
HETATM    7  C16 UNK     1      17.897   1.692  33.915  1.00  0.00     0.089 A 
HETATM    8  C17 UNK     1      18.296   1.982  36.264  1.00  0.00     0.050 A 
HETATM    9  C18 UNK     1      17.540   0.360  34.112  1.00  0.00     0.041 A 
HETATM   10  C19 UNK     1      17.939   0.648  36.478  1.00  0.00     0.103 A 
HETATM   11  C20 UNK     1      17.562  -0.161  35.404  1.00  0.00     0.039 A 
ENDROOT
BRANCH   3  12
HETATM   12  C11 UNK     1      18.989   5.776  33.262  1.00  0.00     0.260 C 
HETATM   13  O1  UNK     1      20.192   6.045  33.275  1.00  0.00    -0.267 OA
HETATM   14  N2  UNK     1      17.973   6.711  33.089  1.00  0.00    -0.344 N 
HETATM   15  C10 UNK     1      18.320   8.094  32.757  1.00  0.00     0.156 C 
HETATM   16  C9  UNK     1      16.529   6.444  33.065  1.00  0.00     0.156 C 
HETATM   17  C8  UNK     1      17.538   9.080  33.623  1.00  0.00     0.292 C 
HETATM   18  N1  UNK     1      16.092   8.830  33.526  1.00  0.00     0.096 N 
HETATM   19  C7  UNK     1      15.775   7.454  33.932  1.00  0.00     0.292 C 
BRANCH  18  20
HETATM   20  C1  UNK     1      15.348   9.790  34.339  1.00  0.00     0.223 C 
HETATM   21  C2  UNK     1      16.230  11.004  34.650  1.00  0.00     0.036 C 
HETATM   22  C4  UNK     1      15.462  12.066  35.435  1.00  0.00     0.002 C 
HETATM   23  C6  UNK     1      14.180  12.478  34.718  1.00  0.00     0.000 C 
HETATM   24  C5  UNK     1      13.301  11.273  34.397  1.00  0.00     0.002 C 
HETATM   25  C3  UNK     1      14.068  10.211  33.610  1.00  0.00     0.036 C 
ENDBRANCH  18  20
ENDBRANCH   3  12
BRANCH  10  26
HETATM   26  N3  UNK     1      17.959   0.113  37.793  1.00  0.00    -0.116 N 
HETATM   27  O4  UNK     1      17.917   0.900  38.769  1.00  0.00    -0.532 OA
HETATM   28  O5  UNK     1      18.018  -1.131  37.943  1.00  0.00    -0.532 OA
ENDBRANCH  10  26
TORSDOF 3
ENDMDL
MODEL 3
REMARK VINA RESULT:      -8.6     28.236     30.325
REMARK  3 active torsions:
REMARK  status: ('A' for Active; 'I' for Inactive)
REMARK    1  A    between atoms: C1_9  and  N1_6 
REMARK       I    between atoms: C11_19  and  N2_7 
REMARK    2  A    between atoms: C19_27  and  N3_8 
REMARK    3  A    between atoms: C11_19  and  C12_20 
ROOT
HETATM    1  O2  UNK     1       7.547   5.008  11.037  1.00  0.00    -0.274 OA
HETATM    2  O3  UNK     1       9.172   3.959   9.821  1.00  0.00    -0.259 OA
HETATM    3  C12 UNK     1       8.495   6.099   9.065  1.00  0.00     0.108 A 
HETATM    4  C13 UNK     1       7.705   7.164   9.241  1.00  0.00     0.037 A 
HETATM    5  C14 UNK     1       8.451   4.937   9.980  1.00  0.00     0.304 A 
HETATM    6  C15 UNK     1       6.770   7.208  10.354  1.00  0.00     0.001 A 
HETATM    7  C16 UNK     1       6.712   6.127  11.228  1.00  0.00     0.089 A 
HETATM    8  C17 UNK     1       5.927   8.299  10.578  1.00  0.00     0.050 A 
HETATM    9  C18 UNK     1       5.840   6.105  12.314  1.00  0.00     0.041 A 
HETATM   10  C19 UNK     1       5.046   8.293  11.663  1.00  0.00     0.103 A 
HETATM   11  C20 UNK     1       5.002   7.198  12.529  1.00  0.00     0.039 A 
ENDROOT
BRANCH   3  12
HETATM   12  C11 UNK     1       9.408   6.149   7.907  1.00  0.00     0.260 C 
HETATM   13  O1  UNK     1       9.100   5.489   6.911  1.00  0.00    -0.267 OA
HETATM   14  N2  UNK     1      10.552   6.936   8.010  1.00  0.00    -0.344 N 
HETATM   15  C10 UNK     1      11.397   7.129   6.831  1.00  0.00     0.156 C 
HETATM   16  C9  UNK     1      10.963   7.739   9.168  1.00  0.00     0.156 C 
HETATM   17  C8  UNK     1      12.873   6.931   7.175  1.00  0.00     0.292 C 
HETATM   18  N1  UNK     1      13.271   7.797   8.294  1.00  0.00     0.096 N 
HETATM   19  C7  UNK     1      12.445   7.526   9.479  1.00  0.00     0.292 C 
BRANCH  18  20
HETATM   20  C1  UNK     1      14.688   7.619   8.604  1.00  0.00     0.223 C 
HETATM   21  C2  UNK     1      15.205   8.827   9.393  1.00  0.00     0.036 C 
HETATM   22  C4  UNK     1      16.666   8.643   9.802  1.00  0.00     0.002 C 
HETATM   23  C6  UNK     1      16.874   7.343  10.573  1.00  0.00     0.000 C 
HETATM   24  C5  UNK     1      16.353   6.137   9.798  1.00  0.00     0.002 C 
HETATM   25  C3  UNK     1      14.891   6.319   9.389  1.00  0.00     0.036 C 
ENDBRANCH  18  20
ENDBRANCH   3  12
BRANCH  10  26
HETATM   26  N3  UNK     1       4.189   9.404  11.885  1.00  0.00    -0.116 N 
HETATM   27  O4  UNK     1       3.987  10.212  10.947  1.00  0.00    -0.532 OA
HETATM   28  O5  UNK     1       3.659   9.547  13.013  1.00  0.00    -0.532 OA
ENDBRANCH  10  26
TORSDOF 3
ENDMDL
MODEL 4
REMARK VINA RESULT:      -8.5      2.472      3.953
REMARK  3 active torsions:
REMARK  status: ('A' for Active; 'I' for Inactive)
REMARK    1  A    between atoms: C1_9  and  N1_6 
REMARK       I    between atoms: C11_19  and  N2_7 
REMARK    2  A    between atoms: C19_27  and  N3_8 
REMARK    3  A    between atoms: C11_19  and  C12_20 
ROOT
HETATM    1  O2  UNK     1      19.271  -1.589  34.407  1.00  0.00    -0.274 OA
HETATM    2  O3  UNK     1      20.931  -3.157  34.479  1.00  0.00    -0.259 OA
HETATM    3  C12 UNK     1      19.851  -2.659  36.528  1.00  0.00     0.108 A 
HETATM    4  C13 UNK     1      18.920  -1.947  37.172  1.00  0.00     0.037 A 
HETATM    5  C14 UNK     1      20.078  -2.508  35.073  1.00  0.00     0.304 A 
HETATM    6  C15 UNK     1      18.093  -0.994  36.448  1.00  0.00     0.001 A 
HETATM    7  C16 UNK     1      18.289  -0.837  35.080  1.00  0.00     0.089 A 
HETATM    8  C17 UNK     1      17.108  -0.230  37.080  1.00  0.00     0.050 A 
HETATM    9  C18 UNK     1      17.531   0.058  34.328  1.00  0.00     0.041 A 
HETATM   10  C19 UNK     1      16.340   0.672  36.339  1.00  0.00     0.103 A 
HETATM   11  C20 UNK     1      16.551   0.816  34.966  1.00  0.00     0.039 A 
ENDROOT
BRANCH   3  12
HETATM   12  C11 UNK     1      20.639  -3.598  37.349  1.00  0.00     0.260 C 
HETATM   13  O1  UNK     1      21.621  -3.148  37.943  1.00  0.00    -0.267 OA
HETATM   14  N2  UNK     1      20.223  -4.926  37.404  1.00  0.00    -0.344 N 
HETATM   15  C10 UNK     1      20.888  -5.847  38.326  1.00  0.00     0.156 C 
HETATM   16  C9  UNK     1      19.064  -5.511  36.718  1.00  0.00     0.156 C 
HETATM   17  C8  UNK     1      21.233  -7.164  37.632  1.00  0.00     0.292 C 
HETATM   18  N1  UNK     1      20.040  -7.760  37.013  1.00  0.00     0.096 N 
HETATM   19  C7  UNK     1      19.441  -6.831  36.044  1.00  0.00     0.292 C 
BRANCH  18  20
HETATM   20  C1  UNK     1      20.372  -9.030  36.370  1.00  0.00     0.223 C 
HETATM   21  C2  UNK     1      21.359  -8.790  35.223  1.00  0.00     0.036 C 
HETATM   22  C4  UNK     1      21.791 -10.104  34.574  1.00  0.00     0.002 C 
HETATM   23  C6  UNK     1      22.357 -11.079  35.602  1.00  0.00     0.000 C 
HETATM   24  C5  UNK     1      21.383 -11.315  36.752  1.00  0.00     0.002 C 
HETATM   25  C3  UNK     1      20.952 -10.001  37.403  1.00  0.00     0.036 C 
ENDBRANCH  18  20
ENDBRANCH   3  12
BRANCH  10  26
HETATM   26  N3  UNK     1      15.341   1.448  36.985  1.00  0.00    -0.116 N 
HETATM   27  O4  UNK     1      15.693   2.351  37.782  1.00  0.00    -0.532 OA
HETATM   28  O5  UNK     1      14.133   1.209  36.743  1.00  0.00    -0.532 OA
ENDBRANCH  10  26
TORSDOF 3
ENDMDL
MODEL 5
REMARK VINA RESULT:      -8.4     12.678     14.526
REMARK  3 active torsions:
REMARK  status: ('A' for Active; 'I' for Inactive)
REMARK    1  A    between atoms: C1_9  and  N1_6 
REMARK       I    between atoms: C11_19  and  N2_7 
REMARK    2  A    between atoms: C19_27  and  N3_8 
REMARK    3  A    between atoms: C11_19  and  C12_20 
ROOT
HETATM    1  O2  UNK     1      35.229  -6.746  30.467  1.00  0.00    -0.274 OA
HETATM    2  O3  UNK     1      36.654  -5.772  31.965  1.00  0.00    -0.259 OA
HETATM    3  C12 UNK     1      34.954  -7.158  32.862  1.00  0.00     0.108 A 
HETATM    4  C13 UNK     1      33.900  -7.949  32.632  1.00  0.00     0.037 A 
HETATM    5  C14 UNK     1      35.688  -6.499  31.758  1.00  0.00     0.304 A 
HETATM    6  C15 UNK     1      33.444  -8.187  31.272  1.00  0.00     0.001 A 
HETATM    7  C16 UNK     1      34.120  -7.579  30.219  1.00  0.00     0.089 A 
HETATM    8  C17 UNK     1      32.350  -9.006  30.985  1.00  0.00     0.050 A 
HETATM    9  C18 UNK     1      33.735  -7.765  28.893  1.00  0.00     0.041 A 
HETATM   10  C19 UNK     1      31.950  -9.203  29.660  1.00  0.00     0.103 A 
HETATM   11  C20 UNK     1      32.642  -8.584  28.616  1.00  0.00     0.039 A 
ENDROOT
BRANCH   3  12
HETATM   12  C11 UNK     1      35.339  -6.978  34.275  1.00  0.00     0.260 C 
HETATM   13  O1  UNK     1      36.327  -7.596  34.678  1.00  0.00    -0.267 OA
HETATM   14  N2  UNK     1      34.568  -6.124  35.059  1.00  0.00    -0.344 N 
HETATM   15  C10 UNK     1      35.009  -5.805  36.417  1.00  0.00     0.156 C 
HETATM   16  C9  UNK     1      33.386  -5.367  34.629  1.00  0.00     0.156 C 
HETATM   17  C8  UNK     1      33.855  -5.924  37.412  1.00  0.00     0.292 C 
HETATM   18  N1  UNK     1      32.712  -5.102  36.989  1.00  0.00     0.096 N 
HETATM   19  C7  UNK     1      32.255  -5.499  35.649  1.00  0.00     0.292 C 
BRANCH  18  20
HETATM   20  C1  UNK     1      31.620  -5.203  37.955  1.00  0.00     0.223 C 
HETATM   21  C2  UNK     1      30.638  -4.043  37.756  1.00  0.00     0.036 C 
HETATM   22  C4  UNK     1      29.441  -4.157  38.699  1.00  0.00     0.002 C 
HETATM   23  C6  UNK     1      28.744  -5.507  38.561  1.00  0.00     0.000 C 
HETATM   24  C5  UNK     1      29.717  -6.667  38.749  1.00  0.00     0.002 C 
HETATM   25  C3  UNK     1      30.914  -6.555  37.805  1.00  0.00     0.036 C 
ENDBRANCH  18  20
ENDBRANCH   3  12
BRANCH  10  26
HETATM   26  N3  UNK     1      30.836 -10.036  29.373  1.00  0.00    -0.116 N 
HETATM   27  O4  UNK     1      29.851 -10.021  30.150  1.00  0.00    -0.532 OA
HETATM   28  O5  UNK     1      30.867 -10.763  28.351  1.00  0.00    -0.532 OA
ENDBRANCH  10  26
TORSDOF 3
ENDMDL
MODEL 6
REMARK VINA RESULT:      -8.3     27.609     31.047
REMARK  3 active torsions:
REMARK  status: ('A' for Active; 'I' for Inactive)
REMARK    1  A    between atoms: C1_9  and  N1_6 
REMARK       I    between atoms: C11_19  and  N2_7 
REMARK    2  A    between atoms: C19_27  and  N3_8 
REMARK    3  A    between atoms: C11_19  and  C12_20 
ROOT
HETATM    1  O2  UNK     1      14.832   6.678  10.877  1.00  0.00    -0.274 OA
HETATM    2  O3  UNK     1      16.086   8.034  12.222  1.00  0.00    -0.259 OA
HETATM    3  C12 UNK     1      14.833   9.097  10.515  1.00  0.00     0.108 A 
HETATM    4  C13 UNK     1      13.987   8.970   9.487  1.00  0.00     0.037 A 
HETATM    5  C14 UNK     1      15.309   7.922  11.280  1.00  0.00     0.304 A 
HETATM    6  C15 UNK     1      13.506   7.656   9.089  1.00  0.00     0.001 A 
HETATM    7  C16 UNK     1      13.941   6.539   9.795  1.00  0.00     0.089 A 
HETATM    8  C17 UNK     1      12.621   7.477   8.023  1.00  0.00     0.050 A 
HETATM    9  C18 UNK     1      13.518   5.253   9.466  1.00  0.00     0.041 A 
HETATM   10  C19 UNK     1      12.189   6.193   7.680  1.00  0.00     0.103 A 
HETATM   11  C20 UNK     1      12.636   5.084   8.400  1.00  0.00     0.039 A 
ENDROOT
BRANCH   3  12
HETATM   12  C11 UNK     1      15.264  10.470  10.841  1.00  0.00     0.260 C 
HETATM   13  O1  UNK     1      14.500  11.159  11.521  1.00  0.00    -0.267 OA
HETATM   14  N2  UNK     1      16.499  10.897  10.364  1.00  0.00    -0.344 N 
HETATM   15  C10 UNK     1      17.024  12.194  10.794  1.00  0.00     0.156 C 
HETATM   16  C9  UNK     1      17.444  10.118   9.553  1.00  0.00     0.156 C 
HETATM   17  C8  UNK     1      17.558  12.992   9.605  1.00  0.00     0.292 C 
HETATM   18  N1  UNK     1      18.551  12.211   8.852  1.00  0.00     0.096 N 
HETATM   19  C7  UNK     1      17.966  10.948   8.379  1.00  0.00     0.292 C 
BRANCH  18  20
HETATM   20  C1  UNK     1      19.073  12.988   7.730  1.00  0.00     0.223 C 
HETATM   21  C2  UNK     1      18.692  12.313   6.408  1.00  0.00     0.036 C 
HETATM   22  C4  UNK     1      19.156  13.137   5.207  1.00  0.00     0.002 C 
HETATM   23  C6  UNK     1      18.632  14.569   5.273  1.00  0.00     0.000 C 
HETATM   24  C5  UNK     1      18.999  15.244   6.591  1.00  0.00     0.002 C 
HETATM   25  C3  UNK     1      18.535  14.422   7.793  1.00  0.00     0.036 C 
ENDBRANCH  18  20
ENDBRANCH   3  12
BRANCH  10  26
HETATM   26  N3  UNK     1      11.290   6.016   6.594  1.00  0.00    -0.116 N 
HETATM   27  O4  UNK     1      10.128   5.607   6.829  1.00  0.00    -0.532 OA
HETATM   28  O5  UNK     1      11.684   6.272   5.431  1.00  0.00    -0.532 OA
ENDBRANCH  10  26
TORSDOF 3
ENDMDL
MODEL 7
REMARK VINA RESULT:      -8.3     11.615     13.134
REMARK  3 active torsions:
REMARK  status: ('A' for Active; 'I' for Inactive)
REMARK    1  A    between atoms: C1_9  and  N1_6 
REMARK       I    between atoms: C11_19  and  N2_7 
REMARK    2  A    between atoms: C19_27  and  N3_8 
REMARK    3  A    between atoms: C11_19  and  C12_20 
ROOT
HETATM    1  O2  UNK     1      34.092  -4.215  34.705  1.00  0.00    -0.274 OA
HETATM    2  O3  UNK     1      32.838  -2.886  36.078  1.00  0.00    -0.259 OA
HETATM    3  C12 UNK     1      32.997  -5.175  36.669  1.00  0.00     0.108 A 
HETATM    4  C13 UNK     1      33.485  -6.387  36.381  1.00  0.00     0.037 A 
HETATM    5  C14 UNK     1      33.285  -3.998  35.818  1.00  0.00     0.304 A 
HETATM    6  C15 UNK     1      34.325  -6.581  35.210  1.00  0.00     0.001 A 
HETATM    7  C16 UNK     1      34.609  -5.488  34.397  1.00  0.00     0.089 A 
HETATM    8  C17 UNK     1      34.858  -7.827  34.872  1.00  0.00     0.050 A 
HETATM    9  C18 UNK     1      35.407  -5.605  33.261  1.00  0.00     0.041 A 
HETATM   10  C19 UNK     1      35.660  -7.961  33.735  1.00  0.00     0.103 A 
HETATM   11  C20 UNK     1      35.934  -6.853  32.931  1.00  0.00     0.039 A 
ENDROOT
BRANCH   3  12
HETATM   12  C11 UNK     1      32.155  -5.081  37.877  1.00  0.00     0.260 C 
HETATM   13  O1  UNK     1      32.716  -4.807  38.941  1.00  0.00    -0.267 OA
HETATM   14  N2  UNK     1      30.788  -5.302  37.740  1.00  0.00    -0.344 N 
HETATM   15  C10 UNK     1      29.906  -5.066  38.884  1.00  0.00     0.156 C 
HETATM   16  C9  UNK     1      30.073  -5.629  36.500  1.00  0.00     0.156 C 
HETATM   17  C8  UNK     1      28.928  -6.226  39.071  1.00  0.00     0.292 C 
HETATM   18  N1  UNK     1      28.178  -6.486  37.833  1.00  0.00     0.096 N 
HETATM   19  C7  UNK     1      29.096  -6.785  36.724  1.00  0.00     0.292 C 
BRANCH  18  20
HETATM   20  C1  UNK     1      27.231  -7.581  38.025  1.00  0.00     0.223 C 
HETATM   21  C2  UNK     1      27.264  -8.518  36.813  1.00  0.00     0.036 C 
HETATM   22  C4  UNK     1      26.341  -9.719  37.010  1.00  0.00     0.002 C 
HETATM   23  C6  UNK     1      26.659 -10.467  38.301  1.00  0.00     0.000 C 
HETATM   24  C5  UNK     1      26.637  -9.538  39.511  1.00  0.00     0.002 C 
HETATM   25  C3  UNK     1      27.561  -8.337  39.316  1.00  0.00     0.036 C 
ENDBRANCH  18  20
ENDBRANCH   3  12
BRANCH  10  26
HETATM   26  N3  UNK     1      36.198  -9.231  33.395  1.00  0.00    -0.116 N 
HETATM   27  O4  UNK     1      37.417  -9.317  33.111  1.00  0.00    -0.532 OA
HETATM   28  O5  UNK     1      35.440 -10.231  33.387  1.00  0.00    -0.532 OA
ENDBRANCH  10  26
TORSDOF 3
ENDMDL
MODEL 8
REMARK VINA RESULT:      -8.3      7.540     10.123
REMARK  3 active torsions:
REMARK  status: ('A' for Active; 'I' for Inactive)
REMARK    1  A    between atoms: C1_9  and  N1_6 
REMARK       I    between atoms: C11_19  and  N2_7 
REMARK    2  A    between atoms: C19_27  and  N3_8 
REMARK    3  A    between atoms: C11_19  and  C12_20 
ROOT
HETATM    1  O2  UNK     1      24.432  -5.426  38.872  1.00  0.00    -0.274 OA
HETATM    2  O3  UNK     1      26.684  -5.067  39.013  1.00  0.00    -0.259 OA
HETATM    3  C12 UNK     1      25.973  -7.324  38.903  1.00  0.00     0.108 A 
HETATM    4  C13 UNK     1      24.954  -8.187  38.820  1.00  0.00     0.037 A 
HETATM    5  C14 UNK     1      25.753  -5.861  38.935  1.00  0.00     0.304 A 
HETATM    6  C15 UNK     1      23.584  -7.701  38.756  1.00  0.00     0.001 A 
HETATM    7  C16 UNK     1      23.355  -6.329  38.784  1.00  0.00     0.089 A 
HETATM    8  C17 UNK     1      22.490  -8.565  38.667  1.00  0.00     0.050 A 
HETATM    9  C18 UNK     1      22.068  -5.798  38.725  1.00  0.00     0.041 A 
HETATM   10  C19 UNK     1      21.193  -8.048  38.608  1.00  0.00     0.103 A 
HETATM   11  C20 UNK     1      20.983  -6.668  38.638  1.00  0.00     0.039 A 
ENDROOT
BRANCH   3  12
HETATM   12  C11 UNK     1      27.324  -7.914  38.963  1.00  0.00     0.260 C 
HETATM   13  O1  UNK     1      27.686  -8.397  40.039  1.00  0.00    -0.267 OA
HETATM   14  N2  UNK     1      28.100  -7.891  37.808  1.00  0.00    -0.344 N 
HETATM   15  C10 UNK     1      29.380  -8.601  37.790  1.00  0.00     0.156 C 
HETATM   16  C9  UNK     1      27.717  -7.331  36.506  1.00  0.00     0.156 C 
HETATM   17  C8  UNK     1      30.482  -7.728  37.191  1.00  0.00     0.292 C 
HETATM   18  N1  UNK     1      30.098  -7.238  35.859  1.00  0.00     0.096 N 
HETATM   19  C7  UNK     1      28.845  -6.473  35.930  1.00  0.00     0.292 C 
BRANCH  18  20
HETATM   20  C1  UNK     1      31.166  -6.423  35.283  1.00  0.00     0.223 C 
HETATM   21  C2  UNK     1      31.305  -5.116  36.070  1.00  0.00     0.036 C 
HETATM   22  C4  UNK     1      32.463  -4.269  35.544  1.00  0.00     0.002 C 
HETATM   23  C6  UNK     1      33.772  -5.054  35.530  1.00  0.00     0.000 C 
HETATM   24  C5  UNK     1      33.638  -6.361  34.756  1.00  0.00     0.002 C 
HETATM   25  C3  UNK     1      32.480  -7.210  35.282  1.00  0.00     0.036 C 
ENDBRANCH  18  20
ENDBRANCH   3  12
BRANCH  10  26
HETATM   26  N3  UNK     1      20.083  -8.930  38.519  1.00  0.00    -0.116 N 
HETATM   27  O4  UNK     1      20.292 -10.167  38.483  1.00  0.00    -0.532 OA
HETATM   28  O5  UNK     1      18.925  -8.450  38.481  1.00  0.00    -0.532 OA
ENDBRANCH  10  26
TORSDOF 3
ENDMDL
MODEL 9
REMARK VINA RESULT:      -8.2     27.870     29.706
REMARK  3 active torsions:
REMARK  status: ('A' for Active; 'I' for Inactive)
REMARK    1  A    between atoms: C1_9  and  N1_6 
REMARK       I    between atoms: C11_19  and  N2_7 
REMARK    2  A    between atoms: C19_27  and  N3_8 
REMARK    3  A    between atoms: C11_19  and  C12_20 
ROOT
HETATM    1  O2  UNK     1      15.709  11.540  10.832  1.00  0.00    -0.274 OA
HETATM    2  O3  UNK     1      16.710  13.578  10.571  1.00  0.00    -0.259 OA
HETATM    3  C12 UNK     1      17.852  11.709   9.666  1.00  0.00     0.108 A 
HETATM    4  C13 UNK     1      17.877  10.388   9.464  1.00  0.00     0.037 A 
HETATM    5  C14 UNK     1      16.735  12.367  10.382  1.00  0.00     0.304 A 
HETATM    6  C15 UNK     1      16.790   9.550   9.947  1.00  0.00     0.001 A 
HETATM    7  C16 UNK     1      15.730  10.147  10.622  1.00  0.00     0.089 A 
HETATM    8  C17 UNK     1      16.773   8.167   9.758  1.00  0.00     0.050 A 
HETATM    9  C18 UNK     1      14.657   9.404  11.110  1.00  0.00     0.041 A 
HETATM   10  C19 UNK     1      15.705   7.406  10.242  1.00  0.00     0.103 A 
HETATM   11  C20 UNK     1      14.650   8.023  10.916  1.00  0.00     0.039 A 
ENDROOT
BRANCH   3  12
HETATM   12  C11 UNK     1      19.000  12.472   9.139  1.00  0.00     0.260 C 
HETATM   13  O1  UNK     1      19.012  12.720   7.932  1.00  0.00    -0.267 OA
HETATM   14  N2  UNK     1      19.991  12.864  10.035  1.00  0.00    -0.344 N 
HETATM   15  C10 UNK     1      21.063  13.749   9.576  1.00  0.00     0.156 C 
HETATM   16  C9  UNK     1      20.025  12.595  11.478  1.00  0.00     0.156 C 
HETATM   17  C8  UNK     1      22.429  13.241  10.037  1.00  0.00     0.292 C 
HETATM   18  N1  UNK     1      22.452  13.047  11.494  1.00  0.00     0.096 N 
HETATM   19  C7  UNK     1      21.407  12.100  11.907  1.00  0.00     0.292 C 
BRANCH  18  20
HETATM   20  C1  UNK     1      23.768  12.583  11.930  1.00  0.00     0.223 C 
HETATM   21  C2  UNK     1      24.501  11.920  10.759  1.00  0.00     0.036 C 
HETATM   22  C4  UNK     1      25.912  11.489  11.156  1.00  0.00     0.002 C 
HETATM   23  C6  UNK     1      26.715  12.653  11.730  1.00  0.00     0.000 C 
HETATM   24  C5  UNK     1      25.986  13.324  12.890  1.00  0.00     0.002 C 
HETATM   25  C3  UNK     1      24.575  13.757  12.494  1.00  0.00     0.036 C 
ENDBRANCH  18  20
ENDBRANCH   3  12
BRANCH  10  26
HETATM   26  N3  UNK     1      15.693   5.999  10.048  1.00  0.00    -0.116 N 
HETATM   27  O4  UNK     1      14.801   5.317  10.606  1.00  0.00    -0.532 OA
HETATM   28  O5  UNK     1      16.574   5.477   9.323  1.00  0.00    -0.532 OA
ENDBRANCH  10  26
TORSDOF 3
ENDMDL
MODEL 10
REMARK VINA RESULT:      -8.1     10.016     12.953
REMARK  3 active torsions:
REMARK  status: ('A' for Active; 'I' for Inactive)
REMARK    1  A    between atoms: C1_9  and  N1_6 
REMARK       I    between atoms: C11_19  and  N2_7 
REMARK    2  A    between atoms: C19_27  and  N3_8 
REMARK    3  A    between atoms: C11_19  and  C12_20 
ROOT
HETATM    1  O2  UNK     1      29.644  -9.851  38.496  1.00  0.00    -0.274 OA
HETATM    2  O3  UNK     1      31.525 -10.917  37.757  1.00  0.00    -0.259 OA
HETATM    3  C12 UNK     1      31.262  -8.654  37.108  1.00  0.00     0.108 A 
HETATM    4  C13 UNK     1      30.518  -7.543  37.153  1.00  0.00     0.037 A 
HETATM    5  C14 UNK     1      30.847  -9.897  37.797  1.00  0.00     0.304 A 
HETATM    6  C15 UNK     1      29.265  -7.527  37.892  1.00  0.00     0.001 A 
HETATM    7  C16 UNK     1      28.856  -8.685  38.547  1.00  0.00     0.089 A 
HETATM    8  C17 UNK     1      28.458  -6.390  37.967  1.00  0.00     0.050 A 
HETATM    9  C18 UNK     1      27.669  -8.737  39.273  1.00  0.00     0.041 A 
HETATM   10  C19 UNK     1      27.262  -6.427  38.690  1.00  0.00     0.103 A 
HETATM   11  C20 UNK     1      26.869  -7.597  39.342  1.00  0.00     0.039 A 
ENDROOT
BRANCH   3  12
HETATM   12  C11 UNK     1      32.514  -8.570  36.332  1.00  0.00     0.260 C 
HETATM   13  O1  UNK     1      33.501  -8.092  36.897  1.00  0.00    -0.267 OA
HETATM   14  N2  UNK     1      32.503  -9.035  35.021  1.00  0.00    -0.344 N 
HETATM   15  C10 UNK     1      33.761  -9.108  34.275  1.00  0.00     0.156 C 
HETATM   16  C9  UNK     1      31.358  -9.611  34.304  1.00  0.00     0.156 C 
HETATM   17  C8  UNK     1      33.603  -8.520  32.874  1.00  0.00     0.292 C 
HETATM   18  N1  UNK     1      32.492  -9.164  32.157  1.00  0.00     0.096 N 
HETATM   19  C7  UNK     1      31.235  -9.010  32.903  1.00  0.00     0.292 C 
BRANCH  18  20
HETATM   20  C1  UNK     1      32.361  -8.613  30.809  1.00  0.00     0.223 C 
HETATM   21  C2  UNK     1      31.447  -9.510  29.967  1.00  0.00     0.036 C 
HETATM   22  C4  UNK     1      31.223  -8.925  28.573  1.00  0.00     0.002 C 
HETATM   23  C6  UNK     1      30.693  -7.496  28.641  1.00  0.00     0.000 C 
HETATM   24  C5  UNK     1      31.593  -6.600  29.487  1.00  0.00     0.002 C 
HETATM   25  C3  UNK     1      31.817  -7.183  30.882  1.00  0.00     0.036 C 
ENDBRANCH  18  20
ENDBRANCH   3  12
BRANCH  10  26
HETATM   26  N3  UNK     1      26.443  -5.269  38.763  1.00  0.00    -0.116 N 
HETATM   27  O4  UNK     1      25.197  -5.404  38.738  1.00  0.00    -0.532 OA
HETATM   28  O5  UNK     1      26.989  -4.142  38.849  1.00  0.00    -0.532 OA
ENDBRANCH  10  26
TORSDOF 3
ENDMDL
