MODEL 1
REMARK VINA RESULT:      -8.7      0.000      0.000
REMARK  5 active torsions:
REMARK  status: ('A' for Active; 'I' for Inactive)
REMARK    1  A    between atoms: C12_19  and  O3_4 
REMARK    2  A    between atoms: C19_26  and  O3_4 
REMARK    3  A    between atoms: C1_8  and  C10_17 
REMARK    4  A    between atoms: C12_19  and  C6_13 
REMARK    5  A    between atoms: C19_26  and  C22_29 
ROOT
HETATM    1  O1  UNK     1      27.160 -10.169  36.437  1.00  0.00    -0.293 OA
HETATM    2  N1  UNK     1      29.977  -6.909  38.403  1.00  0.00    -0.362 N 
HETATM    3  C1  UNK     1      29.567  -8.602  36.165  1.00  0.00     0.104 C 
HETATM    4  C2  UNK     1      28.573  -8.476  37.314  1.00  0.00     0.024 C 
HETATM    5  C3  UNK     1      28.803  -7.636  38.346  1.00  0.00     0.020 C 
HETATM    6  C4  UNK     1      27.833  -7.433  39.480  1.00  0.00     0.058 C 
HETATM    7  C5  UNK     1      26.417  -7.849  39.106  1.00  0.00     0.014 C 
HETATM    8  C6  UNK     1      30.875  -7.850  36.426  1.00  0.00     0.052 C 
HETATM    9  C7  UNK     1      26.403  -9.241  38.502  1.00  0.00     0.084 C 
HETATM   10  C8  UNK     1      27.354  -9.344  37.328  1.00  0.00     0.158 C 
HETATM   11  C9  UNK     1      31.021  -7.040  37.501  1.00  0.00     0.018 C 
HETATM   12  C13 UNK     1      32.252  -6.251  37.858  1.00  0.00     0.069 C 
HETATM   13  H8  UNK     1      30.116  -6.298  39.200  1.00  0.00     0.165 HD
ENDROOT
BRANCH   3  14
HETATM   14  C10 UNK     1      28.940  -8.127  34.882  1.00  0.00     0.029 A 
HETATM   15  C11 UNK     1      29.038  -8.994  33.681  1.00  0.00     0.194 A 
HETATM   16  O4  UNK     1      29.609 -10.076  33.706  1.00  0.00    -0.287 OA
HETATM   17  C15 UNK     1      28.408  -8.482  32.451  1.00  0.00     0.050 A 
HETATM   18  C16 UNK     1      27.769  -7.241  32.482  1.00  0.00     0.089 A 
HETATM   19  C17 UNK     1      28.446  -9.224  31.268  1.00  0.00     0.042 A 
HETATM   20  O2  UNK     1      27.702  -6.470  33.615  1.00  0.00    -0.321 OA
HETATM   21  C18 UNK     1      27.166  -6.736  31.330  1.00  0.00     0.040 A 
HETATM   22  C14 UNK     1      28.294  -6.961  34.754  1.00  0.00     0.154 A 
HETATM   23  C21 UNK     1      27.203  -7.476  30.147  1.00  0.00     0.026 A 
HETATM   24  C20 UNK     1      27.841  -8.717  30.116  1.00  0.00     0.035 A 
HETATM   25 Cl1  UNK     1      27.883  -9.624  28.654  1.00  0.00    -0.084 Cl
ENDBRANCH   3  14
BRANCH   8  26
HETATM   26  C12 UNK     1      31.955  -8.074  35.449  1.00  0.00     0.292 C 
HETATM   27  O5  UNK     1      32.684  -9.047  35.469  1.00  0.00    -0.259 OA
BRANCH  26  28
HETATM   28  O3  UNK     1      31.965  -7.035  34.580  1.00  0.00    -0.313 OA
BRANCH  28  29
HETATM   29  C19 UNK     1      32.279  -7.381  33.227  1.00  0.00     0.217 C 
BRANCH  29  30
HETATM   30  C22 UNK     1      31.482  -6.510  32.301  1.00  0.00    -0.034 A 
HETATM   31  C23 UNK     1      30.878  -5.357  32.790  1.00  0.00     0.009 A 
HETATM   32  C25 UNK     1      30.136  -4.547  31.929  1.00  0.00     0.001 A 
HETATM   33  C27 UNK     1      30.005  -4.895  30.585  1.00  0.00     0.000 A 
HETATM   34  C26 UNK     1      30.614  -6.053  30.101  1.00  0.00     0.001 A 
HETATM   35  C24 UNK     1      31.355  -6.863  30.962  1.00  0.00     0.009 A 
ENDBRANCH  29  30
ENDBRANCH  28  29
ENDBRANCH  26  28
ENDBRANCH   8  26
TORSDOF 5
ENDMDL
MODEL 2
REMARK VINA RESULT:      -8.5      2.993      6.492
REMARK  5 active torsions:
REMARK  status: ('A' for Active; 'I' for Inactive)
REMARK    1  A    between atoms: C12_19  and  O3_4 
REMARK    2  A    between atoms: C19_26  and  O3_4 
REMARK    3  A    between atoms: C1_8  and  C10_17 
REMARK    4  A    between atoms: C12_19  and  C6_13 
REMARK    5  A    between atoms: C19_26  and  C22_29 
ROOT
HETATM    1  O1  UNK     1      29.708  -5.219  30.823  1.00  0.00    -0.293 OA
HETATM    2  N1  UNK     1      28.998  -9.875  31.322  1.00  0.00    -0.362 N 
HETATM    3  C1  UNK     1      30.737  -7.702  31.871  1.00  0.00     0.104 C 
HETATM    4  C2  UNK     1      29.381  -7.541  31.193  1.00  0.00     0.024 C 
HETATM    5  C3  UNK     1      28.579  -8.605  30.977  1.00  0.00     0.020 C 
HETATM    6  C4  UNK     1      27.210  -8.497  30.359  1.00  0.00     0.058 C 
HETATM    7  C5  UNK     1      26.637  -7.090  30.476  1.00  0.00     0.014 C 
HETATM    8  C6  UNK     1      31.129  -9.169  32.072  1.00  0.00     0.052 C 
HETATM    9  C7  UNK     1      27.636  -6.057  29.988  1.00  0.00     0.084 C 
HETATM   10  C8  UNK     1      28.962  -6.190  30.704  1.00  0.00     0.158 C 
HETATM   11  C9  UNK     1      30.261 -10.174  31.812  1.00  0.00     0.018 C 
HETATM   12  C13 UNK     1      30.531 -11.646  31.974  1.00  0.00     0.069 C 
HETATM   13  H8  UNK     1      28.370 -10.648  31.133  1.00  0.00     0.165 HD
ENDROOT
BRANCH   3  14
HETATM   14  C10 UNK     1      30.749  -6.975  33.188  1.00  0.00     0.029 A 
HETATM   15  C11 UNK     1      29.737  -7.343  34.210  1.00  0.00     0.194 A 
HETATM   16  O4  UNK     1      28.901  -8.215  34.013  1.00  0.00    -0.287 OA
HETATM   17  C15 UNK     1      29.792  -6.600  35.482  1.00  0.00     0.050 A 
HETATM   18  C16 UNK     1      30.767  -5.616  35.652  1.00  0.00     0.089 A 
HETATM   19  C17 UNK     1      28.882  -6.873  36.507  1.00  0.00     0.042 A 
HETATM   20  O2  UNK     1      31.685  -5.307  34.680  1.00  0.00    -0.321 OA
HETATM   21  C18 UNK     1      30.837  -4.901  36.847  1.00  0.00     0.040 A 
HETATM   22  C14 UNK     1      31.621  -6.008  33.500  1.00  0.00     0.154 A 
HETATM   23  C21 UNK     1      29.931  -5.172  37.872  1.00  0.00     0.026 A 
HETATM   24  C20 UNK     1      28.955  -6.156  37.703  1.00  0.00     0.035 A 
HETATM   25 Cl1  UNK     1      27.839  -6.485  38.971  1.00  0.00    -0.084 Cl
ENDBRANCH   3  14
BRANCH   8  26
HETATM   26  C12 UNK     1      32.502  -9.411  32.551  1.00  0.00     0.292 C 
HETATM   27  O5  UNK     1      33.487  -9.279  31.851  1.00  0.00    -0.259 OA
BRANCH  26  28
HETATM   28  O3  UNK     1      32.439  -9.788  33.850  1.00  0.00    -0.313 OA
BRANCH  28  29
HETATM   29  C19 UNK     1      33.272  -9.037  34.739  1.00  0.00     0.217 C 
BRANCH  29  30
HETATM   30  C22 UNK     1      32.603  -8.947  36.079  1.00  0.00    -0.034 A 
HETATM   31  C23 UNK     1      31.550  -9.802  36.382  1.00  0.00     0.009 A 
HETATM   32  C25 UNK     1      30.927  -9.718  37.627  1.00  0.00     0.001 A 
HETATM   33  C27 UNK     1      31.362  -8.779  38.562  1.00  0.00     0.000 A 
HETATM   34  C26 UNK     1      32.420  -7.924  38.252  1.00  0.00     0.001 A 
HETATM   35  C24 UNK     1      33.042  -8.008  37.007  1.00  0.00     0.009 A 
ENDBRANCH  29  30
ENDBRANCH  28  29
ENDBRANCH  26  28
ENDBRANCH   8  26
TORSDOF 5
ENDMDL
MODEL 3
REMARK VINA RESULT:      -8.4      3.108      6.354
REMARK  5 active torsions:
REMARK  status: ('A' for Active; 'I' for Inactive)
REMARK    1  A    between atoms: C12_19  and  O3_4 
REMARK    2  A    between atoms: C19_26  and  O3_4 
REMARK    3  A    between atoms: C1_8  and  C10_17 
REMARK    4  A    between atoms: C12_19  and  C6_13 
REMARK    5  A    between atoms: C19_26  and  C22_29 
ROOT
HETATM    1  O1  UNK     1      28.952  -5.437  32.277  1.00  0.00    -0.293 OA
HETATM    2  N1  UNK     1      29.007 -10.084  31.362  1.00  0.00    -0.362 N 
HETATM    3  C1  UNK     1      29.951  -8.025  33.069  1.00  0.00     0.104 C 
HETATM    4  C2  UNK     1      28.957  -7.786  31.938  1.00  0.00     0.024 C 
HETATM    5  C3  UNK     1      28.519  -8.805  31.169  1.00  0.00     0.020 C 
HETATM    6  C4  UNK     1      27.500  -8.636  30.073  1.00  0.00     0.058 C 
HETATM    7  C5  UNK     1      26.670  -7.372  30.251  1.00  0.00     0.014 C 
HETATM    8  C6  UNK     1      30.508  -9.452  33.080  1.00  0.00     0.052 C 
HETATM    9  C7  UNK     1      27.563  -6.165  30.479  1.00  0.00     0.084 C 
HETATM   10  C8  UNK     1      28.510  -6.390  31.638  1.00  0.00     0.158 C 
HETATM   11  C9  UNK     1      30.015 -10.408  32.257  1.00  0.00     0.018 C 
HETATM   12  C13 UNK     1      30.477 -11.838  32.180  1.00  0.00     0.069 C 
HETATM   13  H8  UNK     1      28.661 -10.819  30.756  1.00  0.00     0.165 HD
ENDROOT
BRANCH   3  14
HETATM   14  C10 UNK     1      29.315  -7.704  34.395  1.00  0.00     0.029 A 
HETATM   15  C11 UNK     1      29.882  -6.596  35.204  1.00  0.00     0.194 A 
HETATM   16  O4  UNK     1      30.844  -5.941  34.825  1.00  0.00    -0.287 OA
HETATM   17  C15 UNK     1      29.223  -6.323  36.494  1.00  0.00     0.050 A 
HETATM   18  C16 UNK     1      28.129  -7.102  36.874  1.00  0.00     0.089 A 
HETATM   19  C17 UNK     1      29.682  -5.300  37.327  1.00  0.00     0.042 A 
HETATM   20  O2  UNK     1      27.636  -8.119  36.095  1.00  0.00    -0.321 OA
HETATM   21  C18 UNK     1      27.489  -6.862  38.090  1.00  0.00     0.040 A 
HETATM   22  C14 UNK     1      28.261  -8.361  34.896  1.00  0.00     0.154 A 
HETATM   23  C21 UNK     1      27.946  -5.841  38.924  1.00  0.00     0.026 A 
HETATM   24  C20 UNK     1      29.039  -5.062  38.543  1.00  0.00     0.035 A 
HETATM   25 Cl1  UNK     1      29.598  -3.804  39.577  1.00  0.00    -0.084 Cl
ENDBRANCH   3  14
BRANCH   8  26
HETATM   26  C12 UNK     1      31.608  -9.710  34.025  1.00  0.00     0.292 C 
HETATM   27  O5  UNK     1      31.601 -10.626  34.826  1.00  0.00    -0.259 OA
BRANCH  26  28
HETATM   28  O3  UNK     1      32.567  -8.774  33.828  1.00  0.00    -0.313 OA
BRANCH  28  29
HETATM   29  C19 UNK     1      33.689  -8.861  34.712  1.00  0.00     0.217 C 
BRANCH  29  30
HETATM   30  C22 UNK     1      33.537  -7.839  35.800  1.00  0.00    -0.034 A 
HETATM   31  C23 UNK     1      34.080  -6.570  35.633  1.00  0.00     0.009 A 
HETATM   32  C25 UNK     1      33.940  -5.620  36.645  1.00  0.00     0.001 A 
HETATM   33  C27 UNK     1      33.257  -5.945  37.817  1.00  0.00     0.000 A 
HETATM   34  C26 UNK     1      32.713  -7.220  37.977  1.00  0.00     0.001 A 
HETATM   35  C24 UNK     1      32.855  -8.170  36.966  1.00  0.00     0.009 A 
ENDBRANCH  29  30
ENDBRANCH  28  29
ENDBRANCH  26  28
ENDBRANCH   8  26
TORSDOF 5
ENDMDL
MODEL 4
REMARK VINA RESULT:      -8.3      3.114      6.631
REMARK  5 active torsions:
REMARK  status: ('A' for Active; 'I' for Inactive)
REMARK    1  A    between atoms: C12_19  and  O3_4 
REMARK    2  A    between atoms: C19_26  and  O3_4 
REMARK    3  A    between atoms: C1_8  and  C10_17 
REMARK    4  A    between atoms: C12_19  and  C6_13 
REMARK    5  A    between atoms: C19_26  and  C22_29 
ROOT
HETATM    1  O1  UNK     1      28.421  -5.490  31.690  1.00  0.00    -0.293 OA
HETATM    2  N1  UNK     1      30.735  -9.455  30.528  1.00  0.00    -0.362 N 
HETATM    3  C1  UNK     1      30.689  -7.188  32.232  1.00  0.00     0.104 C 
HETATM    4  C2  UNK     1      29.587  -7.505  31.228  1.00  0.00     0.024 C 
HETATM    5  C3  UNK     1      29.643  -8.611  30.456  1.00  0.00     0.020 C 
HETATM    6  C4  UNK     1      28.559  -9.001  29.486  1.00  0.00     0.058 C 
HETATM    7  C5  UNK     1      27.227  -8.342  29.819  1.00  0.00     0.014 C 
HETATM    8  C6  UNK     1      31.894  -8.126  32.107  1.00  0.00     0.052 C 
HETATM    9  C7  UNK     1      27.397  -6.846  30.014  1.00  0.00     0.084 C 
HETATM   10  C8  UNK     1      28.456  -6.541  31.051  1.00  0.00     0.158 C 
HETATM   11  C9  UNK     1      31.866  -9.206  31.292  1.00  0.00     0.018 C 
HETATM   12  C13 UNK     1      32.981 -10.196  31.090  1.00  0.00     0.069 C 
HETATM   13  H8  UNK     1      30.744 -10.269  29.924  1.00  0.00     0.165 HD
ENDROOT
BRANCH   3  14
HETATM   14  C10 UNK     1      30.141  -7.228  33.633  1.00  0.00     0.029 A 
HETATM   15  C11 UNK     1      30.460  -6.106  34.551  1.00  0.00     0.194 A 
HETATM   16  O4  UNK     1      31.150  -5.156  34.202  1.00  0.00    -0.287 OA
HETATM   17  C15 UNK     1      29.900  -6.193  35.912  1.00  0.00     0.050 A 
HETATM   18  C16 UNK     1      29.120  -7.299  36.254  1.00  0.00     0.089 A 
HETATM   19  C17 UNK     1      30.143  -5.186  36.849  1.00  0.00     0.042 A 
HETATM   20  O2  UNK     1      28.849  -8.316  35.373  1.00  0.00    -0.321 OA
HETATM   21  C18 UNK     1      28.579  -7.403  37.535  1.00  0.00     0.040 A 
HETATM   22  C14 UNK     1      29.378  -8.220  34.109  1.00  0.00     0.154 A 
HETATM   23  C21 UNK     1      28.820  -6.399  38.473  1.00  0.00     0.026 A 
HETATM   24  C20 UNK     1      29.600  -5.293  38.131  1.00  0.00     0.035 A 
HETATM   25 Cl1  UNK     1      29.894  -4.058  39.293  1.00  0.00    -0.084 Cl
ENDBRANCH   3  14
BRANCH   8  26
HETATM   26  C12 UNK     1      33.074  -7.772  32.914  1.00  0.00     0.292 C 
HETATM   27  O5  UNK     1      33.830  -6.862  32.631  1.00  0.00    -0.259 OA
BRANCH  26  28
HETATM   28  O3  UNK     1      33.138  -8.619  33.969  1.00  0.00    -0.313 OA
BRANCH  28  29
HETATM   29  C19 UNK     1      33.601  -8.032  35.190  1.00  0.00     0.217 C 
BRANCH  29  30
HETATM   30  C22 UNK     1      32.762  -8.537  36.326  1.00  0.00    -0.034 A 
HETATM   31  C23 UNK     1      32.759  -7.853  37.537  1.00  0.00     0.009 A 
HETATM   32  C25 UNK     1      31.978  -8.324  38.593  1.00  0.00     0.001 A 
HETATM   33  C27 UNK     1      31.206  -9.473  38.432  1.00  0.00     0.000 A 
HETATM   34  C26 UNK     1      31.213 -10.154  37.214  1.00  0.00     0.001 A 
HETATM   35  C24 UNK     1      31.994  -9.684  36.158  1.00  0.00     0.009 A 
ENDBRANCH  29  30
ENDBRANCH  28  29
ENDBRANCH  26  28
ENDBRANCH   8  26
TORSDOF 5
ENDMDL
MODEL 5
REMARK VINA RESULT:      -8.1      2.947      4.296
REMARK  5 active torsions:
REMARK  status: ('A' for Active; 'I' for Inactive)
REMARK    1  A    between atoms: C12_19  and  O3_4 
REMARK    2  A    between atoms: C19_26  and  O3_4 
REMARK    3  A    between atoms: C1_8  and  C10_17 
REMARK    4  A    between atoms: C12_19  and  C6_13 
REMARK    5  A    between atoms: C19_26  and  C22_29 
ROOT
HETATM    1  O1  UNK     1      30.147 -10.234  38.444  1.00  0.00    -0.293 OA
HETATM    2  N1  UNK     1      28.293  -5.925  39.099  1.00  0.00    -0.362 N 
HETATM    3  C1  UNK     1      30.532  -7.390  38.157  1.00  0.00     0.104 C 
HETATM    4  C2  UNK     1      29.250  -8.047  38.656  1.00  0.00     0.024 C 
HETATM    5  C3  UNK     1      28.202  -7.304  39.071  1.00  0.00     0.020 C 
HETATM    6  C4  UNK     1      26.895  -7.898  39.525  1.00  0.00     0.058 C 
HETATM    7  C5  UNK     1      26.697  -9.316  39.005  1.00  0.00     0.014 C 
HETATM    8  C6  UNK     1      30.545  -5.873  38.371  1.00  0.00     0.052 C 
HETATM    9  C7  UNK     1      27.917 -10.173  39.292  1.00  0.00     0.084 C 
HETATM   10  C8  UNK     1      29.178  -9.539  38.746  1.00  0.00     0.158 C 
HETATM   11  C9  UNK     1      29.446  -5.213  38.808  1.00  0.00     0.018 C 
HETATM   12  C13 UNK     1      29.339  -3.731  39.052  1.00  0.00     0.069 C 
HETATM   13  H8  UNK     1      27.487  -5.405  39.427  1.00  0.00     0.165 HD
ENDROOT
BRANCH   3  14
HETATM   14  C10 UNK     1      30.748  -7.711  36.703  1.00  0.00     0.029 A 
HETATM   15  C11 UNK     1      32.014  -8.375  36.304  1.00  0.00     0.194 A 
HETATM   16  O4  UNK     1      32.881  -8.665  37.118  1.00  0.00    -0.287 OA
HETATM   17  C15 UNK     1      32.175  -8.667  34.868  1.00  0.00     0.050 A 
HETATM   18  C16 UNK     1      31.154  -8.314  33.985  1.00  0.00     0.089 A 
HETATM   19  C17 UNK     1      33.332  -9.290  34.392  1.00  0.00     0.042 A 
HETATM   20  O2  UNK     1      29.997  -7.702  34.397  1.00  0.00    -0.321 OA
HETATM   21  C18 UNK     1      31.285  -8.582  32.622  1.00  0.00     0.040 A 
HETATM   22  C14 UNK     1      29.861  -7.435  35.737  1.00  0.00     0.154 A 
HETATM   23  C21 UNK     1      32.439  -9.204  32.145  1.00  0.00     0.026 A 
HETATM   24  C20 UNK     1      33.460  -9.557  33.028  1.00  0.00     0.035 A 
HETATM   25 Cl1  UNK     1      34.882 -10.324  32.433  1.00  0.00    -0.084 Cl
ENDBRANCH   3  14
BRANCH   8  26
HETATM   26  C12 UNK     1      31.819  -5.190  38.086  1.00  0.00     0.292 C 
HETATM   27  O5  UNK     1      32.694  -5.034  38.915  1.00  0.00    -0.259 OA
BRANCH  26  28
HETATM   28  O3  UNK     1      31.811  -4.799  36.789  1.00  0.00    -0.313 OA
BRANCH  28  29
HETATM   29  C19 UNK     1      32.960  -4.054  36.374  1.00  0.00     0.217 C 
BRANCH  29  30
HETATM   30  C22 UNK     1      33.899  -4.968  35.643  1.00  0.00    -0.034 A 
HETATM   31  C23 UNK     1      34.972  -5.538  36.320  1.00  0.00     0.009 A 
HETATM   32  C25 UNK     1      35.845  -6.387  35.639  1.00  0.00     0.001 A 
HETATM   33  C27 UNK     1      35.639  -6.661  34.288  1.00  0.00     0.000 A 
HETATM   34  C26 UNK     1      34.560  -6.087  33.615  1.00  0.00     0.001 A 
HETATM   35  C24 UNK     1      33.688  -5.237  34.295  1.00  0.00     0.009 A 
ENDBRANCH  29  30
ENDBRANCH  28  29
ENDBRANCH  26  28
ENDBRANCH   8  26
TORSDOF 5
ENDMDL
MODEL 6
REMARK VINA RESULT:      -8.0      1.985      2.623
REMARK  5 active torsions:
REMARK  status: ('A' for Active; 'I' for Inactive)
REMARK    1  A    between atoms: C12_19  and  O3_4 
REMARK    2  A    between atoms: C19_26  and  O3_4 
REMARK    3  A    between atoms: C1_8  and  C10_17 
REMARK    4  A    between atoms: C12_19  and  C6_13 
REMARK    5  A    between atoms: C19_26  and  C22_29 
ROOT
HETATM    1  O1  UNK     1      30.093 -10.415  38.176  1.00  0.00    -0.293 OA
HETATM    2  N1  UNK     1      29.013  -5.815  38.499  1.00  0.00    -0.362 N 
HETATM    3  C1  UNK     1      30.620  -7.754  37.194  1.00  0.00     0.104 C 
HETATM    4  C2  UNK     1      29.543  -8.106  38.215  1.00  0.00     0.024 C 
HETATM    5  C3  UNK     1      28.787  -7.147  38.789  1.00  0.00     0.020 C 
HETATM    6  C4  UNK     1      27.677  -7.440  39.763  1.00  0.00     0.058 C 
HETATM    7  C5  UNK     1      27.173  -8.873  39.644  1.00  0.00     0.014 C 
HETATM    8  C6  UNK     1      30.852  -6.245  37.073  1.00  0.00     0.052 C 
HETATM    9  C7  UNK     1      28.327  -9.858  39.682  1.00  0.00     0.084 C 
HETATM   10  C8  UNK     1      29.366  -9.532  38.631  1.00  0.00     0.158 C 
HETATM   11  C9  UNK     1      30.049  -5.354  37.702  1.00  0.00     0.018 C 
HETATM   12  C13 UNK     1      30.177  -3.855  37.655  1.00  0.00     0.069 C 
HETATM   13  H8  UNK     1      28.430  -5.125  38.960  1.00  0.00     0.165 HD
ENDROOT
BRANCH   3  14
HETATM   14  C10 UNK     1      30.272  -8.336  35.851  1.00  0.00     0.029 A 
HETATM   15  C11 UNK     1      31.299  -9.137  35.138  1.00  0.00     0.194 A 
HETATM   16  O4  UNK     1      32.411  -9.335  35.610  1.00  0.00    -0.287 OA
HETATM   17  C15 UNK     1      30.908  -9.685  33.827  1.00  0.00     0.050 A 
HETATM   18  C16 UNK     1      29.625  -9.427  33.339  1.00  0.00     0.089 A 
HETATM   19  C17 UNK     1      31.804 -10.452  33.078  1.00  0.00     0.042 A 
HETATM   20  O2  UNK     1      28.706  -8.681  34.032  1.00  0.00    -0.321 OA
HETATM   21  C18 UNK     1      29.234  -9.935  32.101  1.00  0.00     0.040 A 
HETATM   22  C14 UNK     1      29.085  -8.177  35.252  1.00  0.00     0.154 A 
HETATM   23  C21 UNK     1      30.126 -10.702  31.352  1.00  0.00     0.026 A 
HETATM   24  C20 UNK     1      31.409 -10.959  31.839  1.00  0.00     0.035 A 
HETATM   25 Cl1  UNK     1      32.506 -11.906  30.910  1.00  0.00    -0.084 Cl
ENDBRANCH   3  14
BRANCH   8  26
HETATM   26  C12 UNK     1      32.000  -5.832  36.247  1.00  0.00     0.292 C 
HETATM   27  O5  UNK     1      33.153  -5.877  36.633  1.00  0.00    -0.259 OA
BRANCH  26  28
HETATM   28  O3  UNK     1      31.533  -5.419  35.044  1.00  0.00    -0.313 OA
BRANCH  28  29
HETATM   29  C19 UNK     1      32.258  -5.909  33.912  1.00  0.00     0.217 C 
BRANCH  29  30
HETATM   30  C22 UNK     1      31.302  -6.129  32.777  1.00  0.00    -0.034 A 
HETATM   31  C23 UNK     1      30.017  -5.602  32.846  1.00  0.00     0.009 A 
HETATM   32  C25 UNK     1      29.129  -5.808  31.790  1.00  0.00     0.001 A 
HETATM   33  C27 UNK     1      29.530  -6.539  30.673  1.00  0.00     0.000 A 
HETATM   34  C26 UNK     1      30.821  -7.065  30.610  1.00  0.00     0.001 A 
HETATM   35  C24 UNK     1      31.709  -6.860  31.665  1.00  0.00     0.009 A 
ENDBRANCH  29  30
ENDBRANCH  28  29
ENDBRANCH  26  28
ENDBRANCH   8  26
TORSDOF 5
ENDMDL
MODEL 7
REMARK VINA RESULT:      -8.0      1.641      2.640
REMARK  5 active torsions:
REMARK  status: ('A' for Active; 'I' for Inactive)
REMARK    1  A    between atoms: C12_19  and  O3_4 
REMARK    2  A    between atoms: C19_26  and  O3_4 
REMARK    3  A    between atoms: C1_8  and  C10_17 
REMARK    4  A    between atoms: C12_19  and  C6_13 
REMARK    5  A    between atoms: C19_26  and  C22_29 
ROOT
HETATM    1  O1  UNK     1      28.999 -10.091  38.772  1.00  0.00    -0.293 OA
HETATM    2  N1  UNK     1      28.601  -5.411  38.164  1.00  0.00    -0.362 N 
HETATM    3  C1  UNK     1      30.251  -7.687  37.784  1.00  0.00     0.104 C 
HETATM    4  C2  UNK     1      28.837  -7.761  38.351  1.00  0.00     0.024 C 
HETATM    5  C3  UNK     1      28.083  -6.650  38.489  1.00  0.00     0.020 C 
HETATM    6  C4  UNK     1      26.664  -6.670  38.994  1.00  0.00     0.058 C 
HETATM    7  C5  UNK     1      26.023  -8.044  38.848  1.00  0.00     0.014 C 
HETATM    8  C6  UNK     1      30.742  -6.248  37.598  1.00  0.00     0.052 C 
HETATM    9  C7  UNK     1      26.918  -9.124  39.427  1.00  0.00     0.084 C 
HETATM   10  C8  UNK     1      28.303  -9.078  38.820  1.00  0.00     0.158 C 
HETATM   11  C9  UNK     1      29.914  -5.191  37.776  1.00  0.00     0.018 C 
HETATM   12  C13 UNK     1      30.281  -3.740  37.620  1.00  0.00     0.069 C 
HETATM   13  H8  UNK     1      28.006  -4.601  38.293  1.00  0.00     0.165 HD
ENDROOT
BRANCH   3  14
HETATM   14  C10 UNK     1      30.326  -8.435  36.480  1.00  0.00     0.029 A 
HETATM   15  C11 UNK     1      29.391  -8.058  35.391  1.00  0.00     0.194 A 
HETATM   16  O4  UNK     1      28.567  -7.162  35.523  1.00  0.00    -0.287 OA
HETATM   17  C15 UNK     1      29.506  -8.822  34.136  1.00  0.00     0.050 A 
HETATM   18  C16 UNK     1      30.465  -9.832  34.042  1.00  0.00     0.089 A 
HETATM   19  C17 UNK     1      28.671  -8.542  33.051  1.00  0.00     0.042 A 
HETATM   20  O2  UNK     1      31.311 -10.149  35.075  1.00  0.00    -0.321 OA
HETATM   21  C18 UNK     1      30.592 -10.567  32.863  1.00  0.00     0.040 A 
HETATM   22  C14 UNK     1      31.191  -9.428  36.238  1.00  0.00     0.154 A 
HETATM   23  C21 UNK     1      29.759 -10.290  31.779  1.00  0.00     0.026 A 
HETATM   24  C20 UNK     1      28.801  -9.279  31.873  1.00  0.00     0.035 A 
HETATM   25 Cl1  UNK     1      27.776  -8.942  30.532  1.00  0.00    -0.084 Cl
ENDBRANCH   3  14
BRANCH   8  26
HETATM   26  C12 UNK     1      32.160  -6.091  37.230  1.00  0.00     0.292 C 
HETATM   27  O5  UNK     1      33.079  -6.398  37.965  1.00  0.00    -0.259 OA
BRANCH  26  28
HETATM   28  O3  UNK     1      32.221  -5.569  35.982  1.00  0.00    -0.313 OA
BRANCH  28  29
HETATM   29  C19 UNK     1      32.921  -6.368  35.024  1.00  0.00     0.217 C 
BRANCH  29  30
HETATM   30  C22 UNK     1      32.178  -6.335  33.721  1.00  0.00    -0.034 A 
HETATM   31  C23 UNK     1      31.107  -5.463  33.561  1.00  0.00     0.009 A 
HETATM   32  C25 UNK     1      30.415  -5.432  32.350  1.00  0.00     0.001 A 
HETATM   33  C27 UNK     1      30.800  -6.273  31.306  1.00  0.00     0.000 A 
HETATM   34  C26 UNK     1      31.877  -7.145  31.473  1.00  0.00     0.001 A 
HETATM   35  C24 UNK     1      32.567  -7.176  32.684  1.00  0.00     0.009 A 
ENDBRANCH  29  30
ENDBRANCH  28  29
ENDBRANCH  26  28
ENDBRANCH   8  26
TORSDOF 5
ENDMDL
MODEL 8
REMARK VINA RESULT:      -7.9      1.774      2.432
REMARK  5 active torsions:
REMARK  status: ('A' for Active; 'I' for Inactive)
REMARK    1  A    between atoms: C12_19  and  O3_4 
REMARK    2  A    between atoms: C19_26  and  O3_4 
REMARK    3  A    between atoms: C1_8  and  C10_17 
REMARK    4  A    between atoms: C12_19  and  C6_13 
REMARK    5  A    between atoms: C19_26  and  C22_29 
ROOT
HETATM    1  O1  UNK     1      27.250  -7.303  36.770  1.00  0.00    -0.293 OA
HETATM    2  N1  UNK     1      31.690  -6.347  38.115  1.00  0.00    -0.362 N 
HETATM    3  C1  UNK     1      30.052  -7.845  36.349  1.00  0.00     0.104 C 
HETATM    4  C2  UNK     1      29.505  -6.810  37.325  1.00  0.00     0.024 C 
HETATM    5  C3  UNK     1      30.329  -6.104  38.128  1.00  0.00     0.020 C 
HETATM    6  C4  UNK     1      29.849  -5.034  39.073  1.00  0.00     0.058 C 
HETATM    7  C5  UNK     1      28.481  -4.492  38.679  1.00  0.00     0.014 C 
HETATM    8  C6  UNK     1      31.549  -8.106  36.538  1.00  0.00     0.052 C 
HETATM    9  C7  UNK     1      27.496  -5.624  38.449  1.00  0.00     0.084 C 
HETATM   10  C8  UNK     1      28.025  -6.619  37.438  1.00  0.00     0.158 C 
HETATM   11  C9  UNK     1      32.296  -7.355  37.382  1.00  0.00     0.018 C 
HETATM   12  C13 UNK     1      33.769  -7.515  37.647  1.00  0.00     0.069 C 
HETATM   13  H8  UNK     1      32.273  -5.803  38.741  1.00  0.00     0.165 HD
ENDROOT
BRANCH   3  14
HETATM   14  C10 UNK     1      29.773  -7.420  34.932  1.00  0.00     0.029 A 
HETATM   15  C11 UNK     1      29.237  -8.428  33.983  1.00  0.00     0.194 A 
HETATM   16  O4  UNK     1      29.017  -9.585  34.318  1.00  0.00    -0.287 OA
HETATM   17  C15 UNK     1      28.981  -7.961  32.608  1.00  0.00     0.050 A 
HETATM   18  C16 UNK     1      29.250  -6.630  32.283  1.00  0.00     0.089 A 
HETATM   19  C17 UNK     1      28.476  -8.834  31.641  1.00  0.00     0.042 A 
HETATM   20  O2  UNK     1      29.746  -5.731  33.193  1.00  0.00    -0.321 OA
HETATM   21  C18 UNK     1      29.016  -6.167  30.988  1.00  0.00     0.040 A 
HETATM   22  C14 UNK     1      29.979  -6.181  34.469  1.00  0.00     0.154 A 
HETATM   23  C21 UNK     1      28.512  -7.036  30.021  1.00  0.00     0.026 A 
HETATM   24  C20 UNK     1      28.243  -8.366  30.346  1.00  0.00     0.035 A 
HETATM   25 Cl1  UNK     1      27.621  -9.434  29.148  1.00  0.00    -0.084 Cl
ENDBRANCH   3  14
BRANCH   8  26
HETATM   26  C12 UNK     1      32.114  -9.223  35.760  1.00  0.00     0.292 C 
HETATM   27  O5  UNK     1      31.925 -10.393  36.036  1.00  0.00    -0.259 OA
BRANCH  26  28
HETATM   28  O3  UNK     1      32.840  -8.708  34.740  1.00  0.00    -0.313 OA
BRANCH  28  29
HETATM   29  C19 UNK     1      33.232  -9.651  33.738  1.00  0.00     0.217 C 
BRANCH  29  30
HETATM   30  C22 UNK     1      32.780  -9.156  32.396  1.00  0.00    -0.034 A 
HETATM   31  C23 UNK     1      32.213 -10.045  31.489  1.00  0.00     0.009 A 
HETATM   32  C25 UNK     1      31.794  -9.585  30.240  1.00  0.00     0.001 A 
HETATM   33  C27 UNK     1      31.943  -8.239  29.907  1.00  0.00     0.000 A 
HETATM   34  C26 UNK     1      32.512  -7.353  30.822  1.00  0.00     0.001 A 
HETATM   35  C24 UNK     1      32.932  -7.813  32.069  1.00  0.00     0.009 A 
ENDBRANCH  29  30
ENDBRANCH  28  29
ENDBRANCH  26  28
ENDBRANCH   8  26
TORSDOF 5
ENDMDL
MODEL 9
REMARK VINA RESULT:      -7.9      2.467      3.348
REMARK  5 active torsions:
REMARK  status: ('A' for Active; 'I' for Inactive)
REMARK    1  A    between atoms: C12_19  and  O3_4 
REMARK    2  A    between atoms: C19_26  and  O3_4 
REMARK    3  A    between atoms: C1_8  and  C10_17 
REMARK    4  A    between atoms: C12_19  and  C6_13 
REMARK    5  A    between atoms: C19_26  and  C22_29 
ROOT
HETATM    1  O1  UNK     1      29.347  -8.720  38.545  1.00  0.00    -0.293 OA
HETATM    2  N1  UNK     1      30.396  -4.293  37.229  1.00  0.00    -0.362 N 
HETATM    3  C1  UNK     1      31.098  -7.031  36.995  1.00  0.00     0.104 C 
HETATM    4  C2  UNK     1      29.879  -6.541  37.769  1.00  0.00     0.024 C 
HETATM    5  C3  UNK     1      29.574  -5.228  37.830  1.00  0.00     0.020 C 
HETATM    6  C4  UNK     1      28.356  -4.693  38.535  1.00  0.00     0.058 C 
HETATM    7  C5  UNK     1      27.283  -5.759  38.717  1.00  0.00     0.014 C 
HETATM    8  C6  UNK     1      31.987  -5.886  36.501  1.00  0.00     0.052 C 
HETATM    9  C7  UNK     1      27.870  -7.018  39.330  1.00  0.00     0.084 C 
HETATM   10  C8  UNK     1      29.046  -7.528  38.525  1.00  0.00     0.158 C 
HETATM   11  C9  UNK     1      31.604  -4.593  36.619  1.00  0.00     0.018 C 
HETATM   12  C13 UNK     1      32.389  -3.389  36.170  1.00  0.00     0.069 C 
HETATM   13  H8  UNK     1      30.137  -3.316  37.307  1.00  0.00     0.165 HD
ENDROOT
BRANCH   3  14
HETATM   14  C10 UNK     1      30.666  -7.892  35.838  1.00  0.00     0.029 A 
HETATM   15  C11 UNK     1      31.301  -9.223  35.670  1.00  0.00     0.194 A 
HETATM   16  O4  UNK     1      32.157  -9.637  36.440  1.00  0.00    -0.287 OA
HETATM   17  C15 UNK     1      30.843 -10.025  34.521  1.00  0.00     0.050 A 
HETATM   18  C16 UNK     1      29.862  -9.503  33.676  1.00  0.00     0.089 A 
HETATM   19  C17 UNK     1      31.379 -11.293  34.277  1.00  0.00     0.042 A 
HETATM   20  O2  UNK     1      29.301  -8.265  33.869  1.00  0.00    -0.321 OA
HETATM   21  C18 UNK     1      29.413 -10.244  32.583  1.00  0.00     0.040 A 
HETATM   22  C14 UNK     1      29.738  -7.529  34.943  1.00  0.00     0.154 A 
HETATM   23  C21 UNK     1      29.947 -11.510  32.338  1.00  0.00     0.026 A 
HETATM   24  C20 UNK     1      30.927 -12.032  33.182  1.00  0.00     0.035 A 
HETATM   25 Cl1  UNK     1      31.582 -13.594  32.874  1.00  0.00    -0.084 Cl
ENDBRANCH   3  14
BRANCH   8  26
HETATM   26  C12 UNK     1      33.277  -6.280  35.906  1.00  0.00     0.292 C 
HETATM   27  O5  UNK     1      34.269  -6.526  36.564  1.00  0.00    -0.259 OA
BRANCH  26  28
HETATM   28  O3  UNK     1      33.134  -6.308  34.559  1.00  0.00    -0.313 OA
BRANCH  28  29
HETATM   29  C19 UNK     1      33.910  -7.305  33.888  1.00  0.00     0.217 C 
BRANCH  29  30
HETATM   30  C22 UNK     1      33.157  -7.783  32.682  1.00  0.00    -0.034 A 
HETATM   31  C23 UNK     1      32.143  -6.995  32.147  1.00  0.00     0.009 A 
HETATM   32  C25 UNK     1      31.443  -7.440  31.025  1.00  0.00     0.001 A 
HETATM   33  C27 UNK     1      31.760  -8.668  30.446  1.00  0.00     0.000 A 
HETATM   34  C26 UNK     1      32.779  -9.453  30.988  1.00  0.00     0.001 A 
HETATM   35  C24 UNK     1      33.479  -9.009  32.110  1.00  0.00     0.009 A 
ENDBRANCH  29  30
ENDBRANCH  28  29
ENDBRANCH  26  28
ENDBRANCH   8  26
TORSDOF 5
ENDMDL
MODEL 10
REMARK VINA RESULT:      -7.8      2.275      3.266
REMARK  5 active torsions:
REMARK  status: ('A' for Active; 'I' for Inactive)
REMARK    1  A    between atoms: C12_19  and  O3_4 
REMARK    2  A    between atoms: C19_26  and  O3_4 
REMARK    3  A    between atoms: C1_8  and  C10_17 
REMARK    4  A    between atoms: C12_19  and  C6_13 
REMARK    5  A    between atoms: C19_26  and  C22_29 
ROOT
HETATM    1  O1  UNK     1      29.627  -7.913  36.600  1.00  0.00    -0.293 OA
HETATM    2  N1  UNK     1      33.849  -5.766  36.545  1.00  0.00    -0.362 N 
HETATM    3  C1  UNK     1      32.110  -7.542  35.178  1.00  0.00     0.104 C 
HETATM    4  C2  UNK     1      31.721  -6.805  36.455  1.00  0.00     0.024 C 
HETATM    5  C3  UNK     1      32.577  -5.950  37.055  1.00  0.00     0.020 C 
HETATM    6  C4  UNK     1      32.228  -5.158  38.286  1.00  0.00     0.058 C 
HETATM    7  C5  UNK     1      30.723  -5.026  38.477  1.00  0.00     0.014 C 
HETATM    8  C6  UNK     1      33.584  -7.351  34.807  1.00  0.00     0.052 C 
HETATM    9  C7  UNK     1      30.045  -6.381  38.381  1.00  0.00     0.084 C 
HETATM   10  C8  UNK     1      30.394  -7.083  37.087  1.00  0.00     0.158 C 
HETATM   11  C9  UNK     1      34.373  -6.480  35.479  1.00  0.00     0.018 C 
HETATM   12  C13 UNK     1      35.828  -6.206  35.205  1.00  0.00     0.069 C 
HETATM   13  H8  UNK     1      34.464  -5.124  37.031  1.00  0.00     0.165 HD
ENDROOT
BRANCH   3  14
HETATM   14  C10 UNK     1      31.226  -7.109  34.040  1.00  0.00     0.029 A 
HETATM   15  C11 UNK     1      30.520  -8.152  33.254  1.00  0.00     0.194 A 
HETATM   16  O4  UNK     1      30.635  -9.344  33.505  1.00  0.00    -0.287 OA
HETATM   17  C15 UNK     1      29.668  -7.674  32.150  1.00  0.00     0.050 A 
HETATM   18  C16 UNK     1      29.574  -6.302  31.910  1.00  0.00     0.089 A 
HETATM   19  C17 UNK     1      28.962  -8.578  31.352  1.00  0.00     0.042 A 
HETATM   20  O2  UNK     1      30.244  -5.371  32.662  1.00  0.00    -0.321 OA
HETATM   21  C18 UNK     1      28.773  -5.828  30.871  1.00  0.00     0.040 A 
HETATM   22  C14 UNK     1      31.035  -5.831  33.687  1.00  0.00     0.154 A 
HETATM   23  C21 UNK     1      28.067  -6.728  30.073  1.00  0.00     0.026 A 
HETATM   24  C20 UNK     1      28.161  -8.100  30.313  1.00  0.00     0.035 A 
HETATM   25 Cl1  UNK     1      27.288  -9.206  29.324  1.00  0.00    -0.084 Cl
ENDBRANCH   3  14
BRANCH   8  26
HETATM   26  C12 UNK     1      34.082  -8.176  33.693  1.00  0.00     0.292 C 
HETATM   27  O5  UNK     1      34.430  -9.335  33.823  1.00  0.00    -0.259 OA
BRANCH  26  28
HETATM   28  O3  UNK     1      34.072  -7.424  32.568  1.00  0.00    -0.313 OA
BRANCH  28  29
HETATM   29  C19 UNK     1      34.499  -8.102  31.382  1.00  0.00     0.217 C 
BRANCH  29  30
HETATM   30  C22 UNK     1      33.361  -8.144  30.405  1.00  0.00    -0.034 A 
HETATM   31  C23 UNK     1      32.852  -6.957  29.889  1.00  0.00     0.009 A 
HETATM   32  C25 UNK     1      31.793  -6.996  28.982  1.00  0.00     0.001 A 
HETATM   33  C27 UNK     1      31.251  -8.221  28.596  1.00  0.00     0.000 A 
HETATM   34  C26 UNK     1      31.766  -9.408  29.117  1.00  0.00     0.001 A 
HETATM   35  C24 UNK     1      32.824  -9.369  30.025  1.00  0.00     0.009 A 
ENDBRANCH  29  30
ENDBRANCH  28  29
ENDBRANCH  26  28
ENDBRANCH   8  26
TORSDOF 5
ENDMDL
