MODEL 1
REMARK VINA RESULT:      -8.6      0.000      0.000
REMARK  3 active torsions:
REMARK  status: ('A' for Active; 'I' for Inactive)
REMARK    1  A    between atoms: C17_22  and  O3_4 
REMARK    2  A    between atoms: C9_14  and  O3_4 
REMARK    3  A    between atoms: C1_6  and  C6_11 
ROOT
HETATM    1  O1  UNK     1      17.888   3.845  33.574  1.00  0.00    -0.313 OA
HETATM    2  O2  UNK     1      18.872   4.798  29.744  1.00  0.00    -0.286 OA
HETATM    3  C1  UNK     1      18.511   3.092  31.361  1.00  0.00     0.054 A 
HETATM    4  C2  UNK     1      18.263   5.542  31.888  1.00  0.00     0.049 A 
HETATM    5  C3  UNK     1      17.933   5.155  33.181  1.00  0.00     0.092 A 
HETATM    6  C4  UNK     1      18.576   4.506  30.896  1.00  0.00     0.198 A 
HETATM    7  C5  UNK     1      18.179   2.851  32.649  1.00  0.00     0.065 A 
HETATM    8  C7  UNK     1      18.294   6.898  31.544  1.00  0.00     0.021 A 
HETATM    9  C8  UNK     1      17.632   6.119  34.144  1.00  0.00     0.075 A 
HETATM   10  C9  UNK     1      17.661   7.472  33.806  1.00  0.00     0.081 A 
HETATM   11  C10 UNK     1      18.074   1.483  33.264  1.00  0.00     0.077 C 
HETATM   12  C11 UNK     1      17.991   7.860  32.508  1.00  0.00     0.038 A 
ENDROOT
BRANCH   3  13
HETATM   13  C6  UNK     1      18.809   2.017  30.423  1.00  0.00    -0.019 A 
HETATM   14  C12 UNK     1      18.042   1.871  29.268  1.00  0.00     0.015 A 
HETATM   15  C14 UNK     1      18.327   0.842  28.370  1.00  0.00     0.043 A 
HETATM   16  C16 UNK     1      19.378  -0.037  28.628  1.00  0.00     0.116 A 
HETATM   17  C15 UNK     1      20.144   0.111  29.784  1.00  0.00     0.043 A 
HETATM   18  F1  UNK     1      19.651  -1.025  27.765  1.00  0.00    -0.206 F 
HETATM   19  C13 UNK     1      19.860   1.140  30.682  1.00  0.00     0.015 A 
ENDBRANCH   3  13
BRANCH  10  20
HETATM   20  O3  UNK     1      17.367   8.414  34.743  1.00  0.00    -0.279 OA
BRANCH  20  21
HETATM   21  C17 UNK     1      16.171   9.111  34.498  1.00  0.00     0.260 C 
HETATM   22  O4  UNK     1      15.062   8.609  34.382  1.00  0.00    -0.265 OA
HETATM   23  C18 UNK     1      16.447  10.582  34.396  1.00  0.00     0.126 C 
ENDBRANCH  20  21
ENDBRANCH  10  20
TORSDOF 3
ENDMDL
MODEL 2
REMARK VINA RESULT:      -8.5      2.689      4.845
REMARK  3 active torsions:
REMARK  status: ('A' for Active; 'I' for Inactive)
REMARK    1  A    between atoms: C17_22  and  O3_4 
REMARK    2  A    between atoms: C9_14  and  O3_4 
REMARK    3  A    between atoms: C1_6  and  C6_11 
ROOT
HETATM    1  O1  UNK     1      18.015   9.244  34.096  1.00  0.00    -0.313 OA
HETATM    2  O2  UNK     1      15.498   7.533  31.396  1.00  0.00    -0.286 OA
HETATM    3  C1  UNK     1      17.602   7.470  32.504  1.00  0.00     0.054 A 
HETATM    4  C2  UNK     1      15.885   9.260  32.942  1.00  0.00     0.049 A 
HETATM    5  C3  UNK     1      16.787   9.798  33.853  1.00  0.00     0.092 A 
HETATM    6  C4  UNK     1      16.259   8.045  32.208  1.00  0.00     0.198 A 
HETATM    7  C5  UNK     1      18.385   8.093  33.412  1.00  0.00     0.065 A 
HETATM    8  C7  UNK     1      14.644   9.871  32.734  1.00  0.00     0.021 A 
HETATM    9  C8  UNK     1      16.458  10.952  34.564  1.00  0.00     0.075 A 
HETATM   10  C9  UNK     1      15.221  11.565  34.360  1.00  0.00     0.081 A 
HETATM   11  C10 UNK     1      19.759   7.635  33.814  1.00  0.00     0.077 C 
HETATM   12  C11 UNK     1      14.316  11.025  33.447  1.00  0.00     0.038 A 
ENDROOT
BRANCH   3  13
HETATM   13  C6  UNK     1      18.030   6.262  31.809  1.00  0.00    -0.019 A 
HETATM   14  C12 UNK     1      17.776   5.012  32.369  1.00  0.00     0.015 A 
HETATM   15  C14 UNK     1      18.187   3.856  31.704  1.00  0.00     0.043 A 
HETATM   16  C16 UNK     1      18.849   3.953  30.481  1.00  0.00     0.116 A 
HETATM   17  C15 UNK     1      19.102   5.206  29.922  1.00  0.00     0.043 A 
HETATM   18  F1  UNK     1      19.242   2.843  29.843  1.00  0.00    -0.206 F 
HETATM   19  C13 UNK     1      18.691   6.362  30.587  1.00  0.00     0.015 A 
ENDBRANCH   3  13
BRANCH  10  20
HETATM   20  O3  UNK     1      14.897  12.691  35.053  1.00  0.00    -0.279 OA
BRANCH  20  21
HETATM   21  C17 UNK     1      14.927  12.533  36.449  1.00  0.00     0.260 C 
HETATM   22  O4  UNK     1      15.821  12.915  37.192  1.00  0.00    -0.265 OA
HETATM   23  C18 UNK     1      13.693  11.819  36.912  1.00  0.00     0.126 C 
ENDBRANCH  20  21
ENDBRANCH  10  20
TORSDOF 3
ENDMDL
MODEL 3
REMARK VINA RESULT:      -8.4      3.511      7.967
REMARK  3 active torsions:
REMARK  status: ('A' for Active; 'I' for Inactive)
REMARK    1  A    between atoms: C17_22  and  O3_4 
REMARK    2  A    between atoms: C9_14  and  O3_4 
REMARK    3  A    between atoms: C1_6  and  C6_11 
ROOT
HETATM    1  O1  UNK     1      18.990   3.499  30.690  1.00  0.00    -0.313 OA
HETATM    2  O2  UNK     1      17.840   4.286  34.512  1.00  0.00    -0.286 OA
HETATM    3  C1  UNK     1      18.392   5.141  32.362  1.00  0.00     0.054 A 
HETATM    4  C2  UNK     1      18.415   2.679  32.895  1.00  0.00     0.049 A 
HETATM    5  C3  UNK     1      18.806   2.474  31.578  1.00  0.00     0.092 A 
HETATM    6  C4  UNK     1      18.186   4.053  33.360  1.00  0.00     0.198 A 
HETATM    7  C5  UNK     1      18.776   4.805  31.111  1.00  0.00     0.065 A 
HETATM    8  C7  UNK     1      18.243   1.592  33.758  1.00  0.00     0.021 A 
HETATM    9  C8  UNK     1      19.030   1.179  31.110  1.00  0.00     0.075 A 
HETATM   10  C9  UNK     1      18.861   0.091  31.966  1.00  0.00     0.081 A 
HETATM   11  C10 UNK     1      19.025   5.786  29.999  1.00  0.00     0.077 C 
HETATM   12  C11 UNK     1      18.467   0.298  33.288  1.00  0.00     0.038 A 
ENDROOT
BRANCH   3  13
HETATM   13  C6  UNK     1      18.179   6.526  32.762  1.00  0.00    -0.019 A 
HETATM   14  C12 UNK     1      19.204   7.235  33.385  1.00  0.00     0.015 A 
HETATM   15  C14 UNK     1      19.000   8.561  33.768  1.00  0.00     0.043 A 
HETATM   16  C16 UNK     1      17.771   9.175  33.526  1.00  0.00     0.116 A 
HETATM   17  C15 UNK     1      16.747   8.464  32.902  1.00  0.00     0.043 A 
HETATM   18  F1  UNK     1      17.576  10.448  33.894  1.00  0.00    -0.206 F 
HETATM   19  C13 UNK     1      16.951   7.138  32.519  1.00  0.00     0.015 A 
ENDBRANCH   3  13
BRANCH  10  20
HETATM   20  O3  UNK     1      19.078  -1.174  31.512  1.00  0.00    -0.279 OA
BRANCH  20  21
HETATM   21  C17 UNK     1      20.422  -1.453  31.215  1.00  0.00     0.260 C 
HETATM   22  O4  UNK     1      21.377  -1.232  31.946  1.00  0.00    -0.265 OA
HETATM   23  C18 UNK     1      20.529  -2.069  29.852  1.00  0.00     0.126 C 
ENDBRANCH  20  21
ENDBRANCH  10  20
TORSDOF 3
ENDMDL
MODEL 4
REMARK VINA RESULT:      -7.9     22.770     24.764
REMARK  3 active torsions:
REMARK  status: ('A' for Active; 'I' for Inactive)
REMARK    1  A    between atoms: C17_22  and  O3_4 
REMARK    2  A    between atoms: C9_14  and  O3_4 
REMARK    3  A    between atoms: C1_6  and  C6_11 
ROOT
HETATM    1  O1  UNK     1      11.092   8.588   9.939  1.00  0.00    -0.313 OA
HETATM    2  O2  UNK     1      13.681   7.458   7.012  1.00  0.00    -0.286 OA
HETATM    3  C1  UNK     1      13.310   8.733   8.985  1.00  0.00     0.054 A 
HETATM    4  C2  UNK     1      11.523   7.305   7.931  1.00  0.00     0.049 A 
HETATM    5  C3  UNK     1      10.686   7.727   8.957  1.00  0.00     0.092 A 
HETATM    6  C4  UNK     1      12.905   7.801   7.895  1.00  0.00     0.198 A 
HETATM    7  C5  UNK     1      12.396   9.066   9.923  1.00  0.00     0.065 A 
HETATM    8  C7  UNK     1      11.051   6.424   6.953  1.00  0.00     0.021 A 
HETATM    9  C8  UNK     1       9.368   7.271   9.015  1.00  0.00     0.075 A 
HETATM   10  C9  UNK     1       8.893   6.392   8.042  1.00  0.00     0.081 A 
HETATM   11  C10 UNK     1      12.654   9.992  11.079  1.00  0.00     0.077 C 
HETATM   12  C11 UNK     1       9.734   5.969   7.013  1.00  0.00     0.038 A 
ENDROOT
BRANCH   3  13
HETATM   13  C6  UNK     1      14.669   9.258   9.007  1.00  0.00    -0.019 A 
HETATM   14  C12 UNK     1      14.970  10.436   8.325  1.00  0.00     0.015 A 
HETATM   15  C14 UNK     1      16.271  10.939   8.345  1.00  0.00     0.043 A 
HETATM   16  C16 UNK     1      17.269  10.263   9.048  1.00  0.00     0.116 A 
HETATM   17  C15 UNK     1      16.966   9.085   9.730  1.00  0.00     0.043 A 
HETATM   18  F1  UNK     1      18.518  10.746   9.067  1.00  0.00    -0.206 F 
HETATM   19  C13 UNK     1      15.664   8.582   9.710  1.00  0.00     0.015 A 
ENDBRANCH   3  13
BRANCH  10  20
HETATM   20  O3  UNK     1       7.608   5.946   8.096  1.00  0.00    -0.279 OA
BRANCH  20  21
HETATM   21  C17 UNK     1       7.378   4.982   9.092  1.00  0.00     0.260 C 
HETATM   22  O4  UNK     1       7.791   3.830   9.081  1.00  0.00    -0.265 OA
HETATM   23  C18 UNK     1       6.539   5.568  10.188  1.00  0.00     0.126 C 
ENDBRANCH  20  21
ENDBRANCH  10  20
TORSDOF 3
ENDMDL
MODEL 5
REMARK VINA RESULT:      -7.7     15.649     16.853
REMARK  3 active torsions:
REMARK  status: ('A' for Active; 'I' for Inactive)
REMARK    1  A    between atoms: C17_22  and  O3_4 
REMARK    2  A    between atoms: C9_14  and  O3_4 
REMARK    3  A    between atoms: C1_6  and  C6_11 
ROOT
HETATM    1  O1  UNK     1      29.690  -6.117  34.059  1.00  0.00    -0.313 OA
HETATM    2  O2  UNK     1      28.763 -10.065  33.737  1.00  0.00    -0.286 OA
HETATM    3  C1  UNK     1      29.193  -8.004  32.629  1.00  0.00     0.054 A 
HETATM    4  C2  UNK     1      29.249  -8.240  35.137  1.00  0.00     0.049 A 
HETATM    5  C3  UNK     1      29.564  -6.888  35.183  1.00  0.00     0.092 A 
HETATM    6  C4  UNK     1      29.042  -8.876  33.829  1.00  0.00     0.198 A 
HETATM    7  C5  UNK     1      29.501  -6.701  32.813  1.00  0.00     0.065 A 
HETATM    8  C7  UNK     1      29.132  -8.978  36.319  1.00  0.00     0.021 A 
HETATM    9  C8  UNK     1      29.765  -6.259  36.412  1.00  0.00     0.075 A 
HETATM   10  C9  UNK     1      29.650  -6.990  37.594  1.00  0.00     0.081 A 
HETATM   11  C10 UNK     1      29.684  -5.701  31.706  1.00  0.00     0.077 C 
HETATM   12  C11 UNK     1      29.334  -8.348  37.547  1.00  0.00     0.038 A 
ENDROOT
BRANCH   3  13
HETATM   13  C6  UNK     1      29.003  -8.576  31.303  1.00  0.00    -0.019 A 
HETATM   14  C12 UNK     1      27.746  -8.534  30.702  1.00  0.00     0.015 A 
HETATM   15  C14 UNK     1      27.564  -9.083  29.432  1.00  0.00     0.043 A 
HETATM   16  C16 UNK     1      28.639  -9.670  28.765  1.00  0.00     0.116 A 
HETATM   17  C15 UNK     1      29.896  -9.710  29.368  1.00  0.00     0.043 A 
HETATM   18  F1  UNK     1      28.464 -10.196  27.546  1.00  0.00    -0.206 F 
HETATM   19  C13 UNK     1      30.079  -9.162  30.638  1.00  0.00     0.015 A 
ENDBRANCH   3  13
BRANCH  10  20
HETATM   20  O3  UNK     1      29.846  -6.379  38.795  1.00  0.00    -0.279 OA
BRANCH  20  21
HETATM   21  C17 UNK     1      28.889  -5.397  39.101  1.00  0.00     0.260 C 
HETATM   22  O4  UNK     1      27.685  -5.580  39.206  1.00  0.00    -0.265 OA
HETATM   23  C18 UNK     1      29.560  -4.068  39.284  1.00  0.00     0.126 C 
ENDBRANCH  20  21
ENDBRANCH  10  20
TORSDOF 3
ENDMDL
MODEL 6
REMARK VINA RESULT:      -7.7     22.405     23.868
REMARK  3 active torsions:
REMARK  status: ('A' for Active; 'I' for Inactive)
REMARK    1  A    between atoms: C17_22  and  O3_4 
REMARK    2  A    between atoms: C9_14  and  O3_4 
REMARK    3  A    between atoms: C1_6  and  C6_11 
ROOT
HETATM    1  O1  UNK     1      14.258   9.686   9.463  1.00  0.00    -0.313 OA
HETATM    2  O2  UNK     1      17.972   8.082   9.887  1.00  0.00    -0.286 OA
HETATM    3  C1  UNK     1      16.653  10.022   9.493  1.00  0.00     0.054 A 
HETATM    4  C2  UNK     1      15.646   7.743   9.865  1.00  0.00     0.049 A 
HETATM    5  C3  UNK     1      14.405   8.349   9.712  1.00  0.00     0.092 A 
HETATM    6  C4  UNK     1      16.855   8.570   9.759  1.00  0.00     0.198 A 
HETATM    7  C5  UNK     1      15.390  10.484   9.362  1.00  0.00     0.065 A 
HETATM    8  C7  UNK     1      15.735   6.370  10.116  1.00  0.00     0.021 A 
HETATM    9  C8  UNK     1      13.240   7.587   9.807  1.00  0.00     0.075 A 
HETATM   10  C9  UNK     1      13.323   6.218  10.058  1.00  0.00     0.081 A 
HETATM   11  C10 UNK     1      15.027  11.918   9.092  1.00  0.00     0.077 C 
HETATM   12  C11 UNK     1      14.569   5.611  10.213  1.00  0.00     0.038 A 
ENDROOT
BRANCH   3  13
HETATM   13  C6  UNK     1      17.814  10.895   9.379  1.00  0.00    -0.019 A 
HETATM   14  C12 UNK     1      18.333  11.512  10.516  1.00  0.00     0.015 A 
HETATM   15  C14 UNK     1      19.445  12.349  10.407  1.00  0.00     0.043 A 
HETATM   16  C16 UNK     1      20.034  12.565   9.162  1.00  0.00     0.116 A 
HETATM   17  C15 UNK     1      19.514  11.947   8.026  1.00  0.00     0.043 A 
HETATM   18  F1  UNK     1      21.102  13.368   9.058  1.00  0.00    -0.206 F 
HETATM   19  C13 UNK     1      18.402  11.110   8.135  1.00  0.00     0.015 A 
ENDBRANCH   3  13
BRANCH  10  20
HETATM   20  O3  UNK     1      12.188   5.472  10.153  1.00  0.00    -0.279 OA
BRANCH  20  21
HETATM   21  C17 UNK     1      11.632   5.114   8.913  1.00  0.00     0.260 C 
HETATM   22  O4  UNK     1      12.130   4.347   8.101  1.00  0.00    -0.265 OA
HETATM   23  C18 UNK     1      10.321   5.815   8.717  1.00  0.00     0.126 C 
ENDBRANCH  20  21
ENDBRANCH  10  20
TORSDOF 3
ENDMDL
MODEL 7
REMARK VINA RESULT:      -7.6     15.390     18.008
REMARK  3 active torsions:
REMARK  status: ('A' for Active; 'I' for Inactive)
REMARK    1  A    between atoms: C17_22  and  O3_4 
REMARK    2  A    between atoms: C9_14  and  O3_4 
REMARK    3  A    between atoms: C1_6  and  C6_11 
ROOT
HETATM    1  O1  UNK     1      28.542  -5.765  38.206  1.00  0.00    -0.313 OA
HETATM    2  O2  UNK     1      30.883  -9.015  37.495  1.00  0.00    -0.286 OA
HETATM    3  C1  UNK     1      30.691  -6.644  37.527  1.00  0.00     0.054 A 
HETATM    4  C2  UNK     1      28.792  -8.173  38.161  1.00  0.00     0.049 A 
HETATM    5  C3  UNK     1      28.042  -7.026  38.388  1.00  0.00     0.092 A 
HETATM    6  C4  UNK     1      30.182  -8.033  37.708  1.00  0.00     0.198 A 
HETATM    7  C5  UNK     1      29.856  -5.613  37.780  1.00  0.00     0.065 A 
HETATM    8  C7  UNK     1      28.227  -9.437  38.363  1.00  0.00     0.021 A 
HETATM    9  C8  UNK     1      26.719  -7.130  38.819  1.00  0.00     0.075 A 
HETATM   10  C9  UNK     1      26.151  -8.387  39.022  1.00  0.00     0.081 A 
HETATM   11  C10 UNK     1      30.222  -4.161  37.642  1.00  0.00     0.077 C 
HETATM   12  C11 UNK     1      26.904  -9.539  38.795  1.00  0.00     0.038 A 
ENDROOT
BRANCH   3  13
HETATM   13  C6  UNK     1      32.063  -6.439  37.081  1.00  0.00    -0.019 A 
HETATM   14  C12 UNK     1      33.091  -6.350  38.017  1.00  0.00     0.015 A 
HETATM   15  C14 UNK     1      34.405  -6.153  37.591  1.00  0.00     0.043 A 
HETATM   16  C16 UNK     1      34.687  -6.047  36.229  1.00  0.00     0.116 A 
HETATM   17  C15 UNK     1      33.657  -6.138  35.293  1.00  0.00     0.043 A 
HETATM   18  F1  UNK     1      35.949  -5.859  35.820  1.00  0.00    -0.206 F 
HETATM   19  C13 UNK     1      32.343  -6.335  35.720  1.00  0.00     0.015 A 
ENDBRANCH   3  13
BRANCH  10  20
HETATM   20  O3  UNK     1      24.861  -8.492  39.443  1.00  0.00    -0.279 OA
BRANCH  20  21
HETATM   21  C17 UNK     1      23.919  -7.976  38.537  1.00  0.00     0.260 C 
HETATM   22  O4  UNK     1      23.797  -8.307  37.366  1.00  0.00    -0.265 OA
HETATM   23  C18 UNK     1      23.069  -6.942  39.215  1.00  0.00     0.126 C 
ENDBRANCH  20  21
ENDBRANCH  10  20
TORSDOF 3
ENDMDL
MODEL 8
REMARK VINA RESULT:      -7.6     13.359     16.372
REMARK  3 active torsions:
REMARK  status: ('A' for Active; 'I' for Inactive)
REMARK    1  A    between atoms: C17_22  and  O3_4 
REMARK    2  A    between atoms: C9_14  and  O3_4 
REMARK    3  A    between atoms: C1_6  and  C6_11 
ROOT
HETATM    1  O1  UNK     1      23.970  -7.588  38.993  1.00  0.00    -0.313 OA
HETATM    2  O2  UNK     1      22.956  -9.845  35.763  1.00  0.00    -0.286 OA
HETATM    3  C1  UNK     1      22.283  -8.244  37.388  1.00  0.00     0.054 A 
HETATM    4  C2  UNK     1      24.606  -9.213  37.313  1.00  0.00     0.049 A 
HETATM    5  C3  UNK     1      24.893  -8.418  38.416  1.00  0.00     0.092 A 
HETATM    6  C4  UNK     1      23.257  -9.163  36.736  1.00  0.00     0.198 A 
HETATM    7  C5  UNK     1      22.690  -7.526  38.458  1.00  0.00     0.065 A 
HETATM    8  C7  UNK     1      25.590 -10.044  36.768  1.00  0.00     0.021 A 
HETATM    9  C8  UNK     1      26.167  -8.446  38.985  1.00  0.00     0.075 A 
HETATM   10  C9  UNK     1      27.152  -9.273  38.445  1.00  0.00     0.081 A 
HETATM   11  C10 UNK     1      21.825  -6.561  39.221  1.00  0.00     0.077 C 
HETATM   12  C11 UNK     1      26.864 -10.069  37.337  1.00  0.00     0.038 A 
ENDROOT
BRANCH   3  13
HETATM   13  C6  UNK     1      20.928  -8.148  36.860  1.00  0.00    -0.019 A 
HETATM   14  C12 UNK     1      19.929  -8.983  37.356  1.00  0.00     0.015 A 
HETATM   15  C14 UNK     1      18.631  -8.892  36.850  1.00  0.00     0.043 A 
HETATM   16  C16 UNK     1      18.337  -7.964  35.851  1.00  0.00     0.116 A 
HETATM   17  C15 UNK     1      19.338  -7.129  35.357  1.00  0.00     0.043 A 
HETATM   18  F1  UNK     1      17.091  -7.876  35.366  1.00  0.00    -0.206 F 
HETATM   19  C13 UNK     1      20.635  -7.220  35.863  1.00  0.00     0.015 A 
ENDBRANCH   3  13
BRANCH  10  20
HETATM   20  O3  UNK     1      28.396  -9.301  38.997  1.00  0.00    -0.279 OA
BRANCH  20  21
HETATM   21  C17 UNK     1      29.382  -8.668  38.222  1.00  0.00     0.260 C 
HETATM   22  O4  UNK     1      29.325  -7.527  37.786  1.00  0.00    -0.265 OA
HETATM   23  C18 UNK     1      30.534  -9.601  37.996  1.00  0.00     0.126 C 
ENDBRANCH  20  21
ENDBRANCH  10  20
TORSDOF 3
ENDMDL
MODEL 9
REMARK VINA RESULT:      -7.6     13.271     16.623
REMARK  3 active torsions:
REMARK  status: ('A' for Active; 'I' for Inactive)
REMARK    1  A    between atoms: C17_22  and  O3_4 
REMARK    2  A    between atoms: C9_14  and  O3_4 
REMARK    3  A    between atoms: C1_6  and  C6_11 
ROOT
HETATM    1  O1  UNK     1      24.448 -10.415  36.379  1.00  0.00    -0.313 OA
HETATM    2  O2  UNK     1      22.914  -7.127  38.218  1.00  0.00    -0.286 OA
HETATM    3  C1  UNK     1      22.555  -8.953  36.738  1.00  0.00     0.054 A 
HETATM    4  C2  UNK     1      24.760  -8.542  37.882  1.00  0.00     0.049 A 
HETATM    5  C3  UNK     1      25.227  -9.675  37.226  1.00  0.00     0.092 A 
HETATM    6  C4  UNK     1      23.372  -8.118  37.662  1.00  0.00     0.198 A 
HETATM    7  C5  UNK     1      23.131 -10.031  36.161  1.00  0.00     0.065 A 
HETATM    8  C7  UNK     1      25.604  -7.824  38.736  1.00  0.00     0.021 A 
HETATM    9  C8  UNK     1      26.542 -10.100  37.417  1.00  0.00     0.075 A 
HETATM   10  C9  UNK     1      27.387  -9.387  38.267  1.00  0.00     0.081 A 
HETATM   11  C10 UNK     1      22.439 -10.965  35.208  1.00  0.00     0.077 C 
HETATM   12  C11 UNK     1      26.918  -8.251  38.926  1.00  0.00     0.038 A 
ENDROOT
BRANCH   3  13
HETATM   13  C6  UNK     1      21.168  -8.585  36.480  1.00  0.00    -0.019 A 
HETATM   14  C12 UNK     1      20.151  -9.113  37.274  1.00  0.00     0.015 A 
HETATM   15  C14 UNK     1      18.823  -8.761  37.027  1.00  0.00     0.043 A 
HETATM   16  C16 UNK     1      18.517  -7.882  35.988  1.00  0.00     0.116 A 
HETATM   17  C15 UNK     1      19.536  -7.355  35.196  1.00  0.00     0.043 A 
HETATM   18  F1  UNK     1      17.242  -7.544  35.752  1.00  0.00    -0.206 F 
HETATM   19  C13 UNK     1      20.864  -7.707  35.443  1.00  0.00     0.015 A 
ENDBRANCH   3  13
BRANCH  10  20
HETATM   20  O3  UNK     1      28.670  -9.800  38.456  1.00  0.00    -0.279 OA
BRANCH  20  21
HETATM   21  C17 UNK     1      29.605  -9.166  37.621  1.00  0.00     0.260 C 
HETATM   22  O4  UNK     1      29.347  -8.553  36.595  1.00  0.00    -0.265 OA
HETATM   23  C18 UNK     1      30.989  -9.348  38.169  1.00  0.00     0.126 C 
ENDBRANCH  20  21
ENDBRANCH  10  20
TORSDOF 3
ENDMDL
MODEL 10
REMARK VINA RESULT:      -7.6     13.152     16.159
REMARK  3 active torsions:
REMARK  status: ('A' for Active; 'I' for Inactive)
REMARK    1  A    between atoms: C17_22  and  O3_4 
REMARK    2  A    between atoms: C9_14  and  O3_4 
REMARK    3  A    between atoms: C1_6  and  C6_11 
ROOT
HETATM    1  O1  UNK     1      23.280 -10.318  36.323  1.00  0.00    -0.313 OA
HETATM    2  O2  UNK     1      24.788  -7.355  38.668  1.00  0.00    -0.286 OA
HETATM    3  C1  UNK     1      25.197  -9.346  37.433  1.00  0.00     0.054 A 
HETATM    4  C2  UNK     1      22.918  -8.287  37.591  1.00  0.00     0.049 A 
HETATM    5  C3  UNK     1      22.461  -9.324  36.787  1.00  0.00     0.092 A 
HETATM    6  C4  UNK     1      24.338  -8.249  37.961  1.00  0.00     0.198 A 
HETATM    7  C5  UNK     1      24.627 -10.298  36.661  1.00  0.00     0.065 A 
HETATM    8  C7  UNK     1      22.034  -7.298  38.037  1.00  0.00     0.021 A 
HETATM    9  C8  UNK     1      21.117  -9.384  36.421  1.00  0.00     0.075 A 
HETATM   10  C9  UNK     1      20.231  -8.401  36.862  1.00  0.00     0.081 A 
HETATM   11  C10 UNK     1      25.360 -11.464  36.058  1.00  0.00     0.077 C 
HETATM   12  C11 UNK     1      20.690  -7.360  37.669  1.00  0.00     0.038 A 
ENDROOT
BRANCH   3  13
HETATM   13  C6  UNK     1      26.617  -9.364  37.763  1.00  0.00    -0.019 A 
HETATM   14  C12 UNK     1      27.045  -9.939  38.957  1.00  0.00     0.015 A 
HETATM   15  C14 UNK     1      28.404  -9.956  39.274  1.00  0.00     0.043 A 
HETATM   16  C16 UNK     1      29.331  -9.398  38.394  1.00  0.00     0.116 A 
HETATM   17  C15 UNK     1      28.901  -8.823  37.199  1.00  0.00     0.043 A 
HETATM   18  F1  UNK     1      30.635  -9.414  38.698  1.00  0.00    -0.206 F 
HETATM   19  C13 UNK     1      27.542  -8.806  36.882  1.00  0.00     0.015 A 
ENDBRANCH   3  13
BRANCH  10  20
HETATM   20  O3  UNK     1      18.918  -8.456  36.506  1.00  0.00    -0.279 OA
BRANCH  20  21
HETATM   21  C17 UNK     1      18.498  -7.386  35.698  1.00  0.00     0.260 C 
HETATM   22  O4  UNK     1      18.911  -7.133  34.575  1.00  0.00    -0.265 OA
HETATM   23  C18 UNK     1      17.456  -6.581  36.416  1.00  0.00     0.126 C 
ENDBRANCH  20  21
ENDBRANCH  10  20
TORSDOF 3
ENDMDL
