MODEL 1
REMARK VINA RESULT:      -8.0      0.000      0.000
REMARK  7 active torsions:
REMARK  status: ('A' for Active; 'I' for Inactive)
REMARK    1  A    between atoms: C17_20  and  O2_2 
REMARK    2  A    between atoms: C1_4  and  C2_5 
REMARK    3  A    between atoms: C1_4  and  C3_6 
REMARK    4  A    between atoms: C1_4  and  C12_15 
REMARK    5  A    between atoms: C2_5  and  C6_9 
REMARK    6  A    between atoms: C3_6  and  C4_7 
REMARK    7  A    between atoms: C4_7  and  C8_11 
ROOT
HETATM    1  O1  UNK     1      18.474   2.603  31.718  1.00  0.00    -0.274 OA
HETATM    2  O3  UNK     1      18.771   2.874  29.478  1.00  0.00    -0.259 OA
HETATM    3  C5  UNK     1      19.332  -0.075  31.443  1.00  0.00    -0.033 A 
HETATM    4  C7  UNK     1      19.828  -1.502  31.349  1.00  0.00     0.040 C 
HETATM    5  C8  UNK     1      18.105   2.350  34.058  1.00  0.00     0.010 A 
HETATM    6  C9  UNK     1      20.496  -1.847  30.017  1.00  0.00     0.005 C 
HETATM    7  C10 UNK     1      19.260   0.722  30.359  1.00  0.00     0.025 A 
HETATM    8  C11 UNK     1      19.710  -1.273  28.850  1.00  0.00     0.005 C 
HETATM    9  C13 UNK     1      19.609   0.246  28.969  1.00  0.00     0.045 C 
HETATM   10  C14 UNK     1      18.921   0.446  32.757  1.00  0.00     0.006 A 
HETATM   11  C15 UNK     1      18.509   1.773  32.851  1.00  0.00     0.099 A 
HETATM   12  C17 UNK     1      18.105   1.577  35.213  1.00  0.00     0.074 A 
HETATM   13  C18 UNK     1      18.821   2.138  30.458  1.00  0.00     0.295 A 
HETATM   14  C19 UNK     1      18.907  -0.317  33.934  1.00  0.00     0.017 A 
HETATM   15  C22 UNK     1      18.503   0.244  35.152  1.00  0.00     0.038 A 
ENDROOT
BRANCH   5  16
HETATM   16  C4  UNK     1      17.672   3.783  34.111  1.00  0.00     0.045 C 
BRANCH  16  17
HETATM   17  C3  UNK     1      18.807   4.732  33.694  1.00  0.00     0.014 C 
BRANCH  17  18
HETATM   18  C1  UNK     1      18.393   5.782  32.629  1.00  0.00     0.017 C 
BRANCH  18  19
HETATM   19  C2  UNK     1      19.628   6.506  31.982  1.00  0.00    -0.011 C 
HETATM   20  C16 UNK     1      20.012   5.883  30.631  1.00  0.00     0.010 C 
BRANCH  19  21
HETATM   21  C6  UNK     1      20.843   6.493  32.947  1.00  0.00     0.000 C 
HETATM   22  C20 UNK     1      22.139   5.999  32.316  1.00  0.00     0.005 C 
ENDBRANCH  19  21
ENDBRANCH  18  19
BRANCH  18  23
HETATM   23  C12 UNK     1      17.374   6.771  33.199  1.00  0.00    -0.089 C 
HETATM   24  C21 UNK     1      17.694   7.462  34.496  1.00  0.00     0.043 C 
HETATM   25  C23 UNK     1      16.216   7.016  32.561  1.00  0.00     0.014 C 
ENDBRANCH  18  23
ENDBRANCH  17  18
ENDBRANCH  16  17
ENDBRANCH   5  16
BRANCH  12  26
HETATM   26  O2  UNK     1      17.716   2.101  36.411  1.00  0.00    -0.360 OA
HETATM   27  H30 UNK     1      17.885   1.449  37.113  1.00  0.00     0.217 HD
ENDBRANCH  12  26
TORSDOF 7
ENDMDL
MODEL 2
REMARK VINA RESULT:      -8.0      5.051      9.072
REMARK  7 active torsions:
REMARK  status: ('A' for Active; 'I' for Inactive)
REMARK    1  A    between atoms: C17_20  and  O2_2 
REMARK    2  A    between atoms: C1_4  and  C2_5 
REMARK    3  A    between atoms: C1_4  and  C3_6 
REMARK    4  A    between atoms: C1_4  and  C12_15 
REMARK    5  A    between atoms: C2_5  and  C6_9 
REMARK    6  A    between atoms: C3_6  and  C4_7 
REMARK    7  A    between atoms: C4_7  and  C8_11 
ROOT
HETATM    1  O1  UNK     1      20.613  -3.127  34.275  1.00  0.00    -0.274 OA
HETATM    2  O3  UNK     1      21.702  -3.771  32.383  1.00  0.00    -0.259 OA
HETATM    3  C5  UNK     1      19.470  -0.995  32.817  1.00  0.00    -0.033 A 
HETATM    4  C7  UNK     1      18.801   0.134  32.063  1.00  0.00     0.040 C 
HETATM    5  C8  UNK     1      19.531  -2.462  36.290  1.00  0.00     0.010 A 
HETATM    6  C9  UNK     1      18.942   0.044  30.542  1.00  0.00     0.005 C 
HETATM    7  C10 UNK     1      20.321  -1.844  32.209  1.00  0.00     0.025 A 
HETATM    8  C11 UNK     1      20.355  -0.354  30.150  1.00  0.00     0.005 C 
HETATM    9  C13 UNK     1      20.717  -1.707  30.758  1.00  0.00     0.045 C 
HETATM   10  C14 UNK     1      19.176  -1.161  34.250  1.00  0.00     0.006 A 
HETATM   11  C15 UNK     1      19.757  -2.228  34.932  1.00  0.00     0.099 A 
HETATM   12  C17 UNK     1      18.702  -1.600  36.999  1.00  0.00     0.074 A 
HETATM   13  C18 UNK     1      20.941  -2.983  32.935  1.00  0.00     0.295 A 
HETATM   14  C19 UNK     1      18.350  -0.300  34.986  1.00  0.00     0.017 A 
HETATM   15  C22 UNK     1      18.113  -0.518  36.349  1.00  0.00     0.038 A 
ENDROOT
BRANCH   5  16
HETATM   16  C4  UNK     1      20.175  -3.625  36.982  1.00  0.00     0.045 C 
BRANCH  16  17
HETATM   17  C3  UNK     1      19.512  -4.954  36.586  1.00  0.00     0.014 C 
BRANCH  17  18
HETATM   18  C1  UNK     1      20.436  -6.191  36.743  1.00  0.00     0.017 C 
BRANCH  18  19
HETATM   19  C2  UNK     1      19.838  -7.480  36.073  1.00  0.00    -0.011 C 
HETATM   20  C16 UNK     1      20.928  -8.342  35.417  1.00  0.00     0.010 C 
BRANCH  19  21
HETATM   21  C6  UNK     1      18.748  -7.108  35.034  1.00  0.00     0.000 C 
HETATM   22  C20 UNK     1      17.350  -7.600  35.387  1.00  0.00     0.005 C 
ENDBRANCH  19  21
ENDBRANCH  18  19
BRANCH  18  23
HETATM   23  C12 UNK     1      20.807  -6.419  38.210  1.00  0.00    -0.089 C 
HETATM   24  C21 UNK     1      22.237  -6.209  38.628  1.00  0.00     0.043 C 
HETATM   25  C23 UNK     1      19.882  -6.802  39.107  1.00  0.00     0.014 C 
ENDBRANCH  18  23
ENDBRANCH  17  18
ENDBRANCH  16  17
ENDBRANCH   5  16
BRANCH  12  26
HETATM   26  O2  UNK     1      18.457  -1.792  38.327  1.00  0.00    -0.360 OA
HETATM   27  H30 UNK     1      18.252  -0.935  38.740  1.00  0.00     0.217 HD
ENDBRANCH  12  26
TORSDOF 7
ENDMDL
MODEL 3
REMARK VINA RESULT:      -7.8     14.014     16.544
REMARK  7 active torsions:
REMARK  status: ('A' for Active; 'I' for Inactive)
REMARK    1  A    between atoms: C17_20  and  O2_2 
REMARK    2  A    between atoms: C1_4  and  C2_5 
REMARK    3  A    between atoms: C1_4  and  C3_6 
REMARK    4  A    between atoms: C1_4  and  C12_15 
REMARK    5  A    between atoms: C2_5  and  C6_9 
REMARK    6  A    between atoms: C3_6  and  C4_7 
REMARK    7  A    between atoms: C4_7  and  C8_11 
ROOT
HETATM    1  O1  UNK     1      31.232  -7.583  37.245  1.00  0.00    -0.274 OA
HETATM    2  O3  UNK     1      32.589  -9.206  36.404  1.00  0.00    -0.259 OA
HETATM    3  C5  UNK     1      32.905  -5.649  36.044  1.00  0.00    -0.033 A 
HETATM    4  C7  UNK     1      33.749  -4.582  35.381  1.00  0.00     0.040 C 
HETATM    5  C8  UNK     1      29.811  -5.917  38.183  1.00  0.00     0.010 A 
HETATM    6  C9  UNK     1      34.745  -5.119  34.352  1.00  0.00     0.005 C 
HETATM    7  C10 UNK     1      33.196  -6.959  35.920  1.00  0.00     0.025 A 
HETATM    8  C11 UNK     1      35.433  -6.374  34.865  1.00  0.00     0.005 C 
HETATM    9  C13 UNK     1      34.404  -7.461  35.167  1.00  0.00     0.045 C 
HETATM   10  C14 UNK     1      31.739  -5.235  36.842  1.00  0.00     0.006 A 
HETATM   11  C15 UNK     1      30.937  -6.220  37.414  1.00  0.00     0.099 A 
HETATM   12  C17 UNK     1      29.474  -4.586  38.398  1.00  0.00     0.074 A 
HETATM   13  C18 UNK     1      32.340  -8.010  36.529  1.00  0.00     0.295 A 
HETATM   14  C19 UNK     1      31.384  -3.899  37.077  1.00  0.00     0.017 A 
HETATM   15  C22 UNK     1      30.260  -3.577  37.848  1.00  0.00     0.038 A 
ENDROOT
BRANCH   5  16
HETATM   16  C4  UNK     1      28.975  -7.010  38.777  1.00  0.00     0.045 C 
BRANCH  16  17
HETATM   17  C3  UNK     1      27.817  -7.403  37.846  1.00  0.00     0.014 C 
BRANCH  17  18
HETATM   18  C1  UNK     1      28.040  -8.740  37.090  1.00  0.00     0.017 C 
BRANCH  18  19
HETATM   19  C2  UNK     1      28.052  -8.556  35.530  1.00  0.00    -0.011 C 
HETATM   20  C16 UNK     1      29.220  -9.309  34.875  1.00  0.00     0.010 C 
BRANCH  19  21
HETATM   21  C6  UNK     1      28.099  -7.053  35.151  1.00  0.00     0.000 C 
HETATM   22  C20 UNK     1      29.298  -6.659  34.298  1.00  0.00     0.005 C 
ENDBRANCH  19  21
ENDBRANCH  18  19
BRANCH  18  23
HETATM   23  C12 UNK     1      27.036  -9.802  37.542  1.00  0.00    -0.089 C 
HETATM   24  C21 UNK     1      27.072 -10.258  38.976  1.00  0.00     0.043 C 
HETATM   25  C23 UNK     1      26.143 -10.322  36.682  1.00  0.00     0.014 C 
ENDBRANCH  18  23
ENDBRANCH  17  18
ENDBRANCH  16  17
ENDBRANCH   5  16
BRANCH  12  26
HETATM   26  O2  UNK     1      28.383  -4.247  39.145  1.00  0.00    -0.360 OA
HETATM   27  H30 UNK     1      27.887  -3.548  38.684  1.00  0.00     0.217 HD
ENDBRANCH  12  26
TORSDOF 7
ENDMDL
MODEL 4
REMARK VINA RESULT:      -7.8     15.229     17.669
REMARK  7 active torsions:
REMARK  status: ('A' for Active; 'I' for Inactive)
REMARK    1  A    between atoms: C17_20  and  O2_2 
REMARK    2  A    between atoms: C1_4  and  C2_5 
REMARK    3  A    between atoms: C1_4  and  C3_6 
REMARK    4  A    between atoms: C1_4  and  C12_15 
REMARK    5  A    between atoms: C2_5  and  C6_9 
REMARK    6  A    between atoms: C3_6  and  C4_7 
REMARK    7  A    between atoms: C4_7  and  C8_11 
ROOT
HETATM    1  O1  UNK     1      34.087  -7.269  36.571  1.00  0.00    -0.274 OA
HETATM    2  O3  UNK     1      35.864  -5.980  35.974  1.00  0.00    -0.259 OA
HETATM    3  C5  UNK     1      34.228  -8.524  34.044  1.00  0.00    -0.033 A 
HETATM    4  C7  UNK     1      34.295  -9.252  32.719  1.00  0.00     0.040 C 
HETATM    5  C8  UNK     1      32.196  -8.565  37.220  1.00  0.00     0.010 A 
HETATM    6  C9  UNK     1      35.575  -8.990  31.922  1.00  0.00     0.005 C 
HETATM    7  C10 UNK     1      35.097  -7.543  34.356  1.00  0.00     0.025 A 
HETATM    8  C11 UNK     1      35.945  -7.517  31.961  1.00  0.00     0.005 C 
HETATM    9  C13 UNK     1      36.160  -7.057  33.401  1.00  0.00     0.045 C 
HETATM   10  C14 UNK     1      33.183  -8.904  35.008  1.00  0.00     0.006 A 
HETATM   11  C15 UNK     1      33.150  -8.265  36.246  1.00  0.00     0.099 A 
HETATM   12  C17 UNK     1      31.234  -9.532  36.953  1.00  0.00     0.074 A 
HETATM   13  C18 UNK     1      35.064  -6.860  35.676  1.00  0.00     0.295 A 
HETATM   14  C19 UNK     1      32.199  -9.871  34.758  1.00  0.00     0.017 A 
HETATM   15  C22 UNK     1      31.233 -10.184  35.723  1.00  0.00     0.038 A 
ENDROOT
BRANCH   5  16
HETATM   16  C4  UNK     1      32.201  -7.853  38.539  1.00  0.00     0.045 C 
BRANCH  16  17
HETATM   17  C3  UNK     1      31.715  -6.402  38.398  1.00  0.00     0.014 C 
BRANCH  17  18
HETATM   18  C1  UNK     1      30.282  -6.271  37.815  1.00  0.00     0.017 C 
BRANCH  18  19
HETATM   19  C2  UNK     1      30.259  -5.522  36.434  1.00  0.00    -0.011 C 
HETATM   20  C16 UNK     1      29.823  -6.449  35.289  1.00  0.00     0.010 C 
BRANCH  19  21
HETATM   21  C6  UNK     1      31.643  -4.894  36.123  1.00  0.00     0.000 C 
HETATM   22  C20 UNK     1      32.060  -4.990  34.661  1.00  0.00     0.005 C 
ENDBRANCH  19  21
ENDBRANCH  18  19
BRANCH  18  23
HETATM   23  C12 UNK     1      29.329  -5.641  38.833  1.00  0.00    -0.089 C 
HETATM   24  C21 UNK     1      28.243  -6.499  39.423  1.00  0.00     0.043 C 
HETATM   25  C23 UNK     1      29.452  -4.351  39.191  1.00  0.00     0.014 C 
ENDBRANCH  18  23
ENDBRANCH  17  18
ENDBRANCH  16  17
ENDBRANCH   5  16
BRANCH  12  26
HETATM   26  O2  UNK     1      30.283  -9.854  37.878  1.00  0.00    -0.360 OA
HETATM   27  H30 UNK     1      29.462 -10.099  37.417  1.00  0.00     0.217 HD
ENDBRANCH  12  26
TORSDOF 7
ENDMDL
MODEL 5
REMARK VINA RESULT:      -7.8      5.506      9.377
REMARK  7 active torsions:
REMARK  status: ('A' for Active; 'I' for Inactive)
REMARK    1  A    between atoms: C17_20  and  O2_2 
REMARK    2  A    between atoms: C1_4  and  C2_5 
REMARK    3  A    between atoms: C1_4  and  C3_6 
REMARK    4  A    between atoms: C1_4  and  C12_15 
REMARK    5  A    between atoms: C2_5  and  C6_9 
REMARK    6  A    between atoms: C3_6  and  C4_7 
REMARK    7  A    between atoms: C4_7  and  C8_11 
ROOT
HETATM    1  O1  UNK     1      20.638  -3.368  34.055  1.00  0.00    -0.274 OA
HETATM    2  O3  UNK     1      21.629  -3.957  32.093  1.00  0.00    -0.259 OA
HETATM    3  C5  UNK     1      19.571  -1.094  32.761  1.00  0.00    -0.033 A 
HETATM    4  C7  UNK     1      18.944   0.112  32.096  1.00  0.00     0.040 C 
HETATM    5  C8  UNK     1      19.658  -2.764  36.141  1.00  0.00     0.010 A 
HETATM    6  C9  UNK     1      19.032   0.103  30.568  1.00  0.00     0.005 C 
HETATM    7  C10 UNK     1      20.354  -1.951  32.077  1.00  0.00     0.025 A 
HETATM    8  C11 UNK     1      20.408  -0.347  30.106  1.00  0.00     0.005 C 
HETATM    9  C13 UNK     1      20.712  -1.751  30.624  1.00  0.00     0.045 C 
HETATM   10  C14 UNK     1      19.313  -1.328  34.191  1.00  0.00     0.006 A 
HETATM   11  C15 UNK     1      19.854  -2.463  34.791  1.00  0.00     0.099 A 
HETATM   12  C17 UNK     1      18.901  -1.901  36.926  1.00  0.00     0.074 A 
HETATM   13  C18 UNK     1      20.931  -3.163  32.715  1.00  0.00     0.295 A 
HETATM   14  C19 UNK     1      18.560  -0.468  35.003  1.00  0.00     0.017 A 
HETATM   15  C22 UNK     1      18.354  -0.753  36.358  1.00  0.00     0.038 A 
ENDROOT
BRANCH   5  16
HETATM   16  C4  UNK     1      20.256  -3.999  36.743  1.00  0.00     0.045 C 
BRANCH  16  17
HETATM   17  C3  UNK     1      19.287  -5.189  36.669  1.00  0.00     0.014 C 
BRANCH  17  18
HETATM   18  C1  UNK     1      19.638  -6.350  37.639  1.00  0.00     0.017 C 
BRANCH  18  19
HETATM   19  C2  UNK     1      21.187  -6.576  37.773  1.00  0.00    -0.011 C 
HETATM   20  C16 UNK     1      21.666  -7.764  36.924  1.00  0.00     0.010 C 
BRANCH  19  21
HETATM   21  C6  UNK     1      21.590  -6.777  39.257  1.00  0.00     0.000 C 
HETATM   22  C20 UNK     1      22.195  -8.141  39.563  1.00  0.00     0.005 C 
ENDBRANCH  19  21
ENDBRANCH  18  19
BRANCH  18  23
HETATM   23  C12 UNK     1      18.895  -7.631  37.256  1.00  0.00    -0.089 C 
HETATM   24  C21 UNK     1      18.292  -7.725  35.880  1.00  0.00     0.043 C 
HETATM   25  C23 UNK     1      18.777  -8.649  38.125  1.00  0.00     0.014 C 
ENDBRANCH  18  23
ENDBRANCH  17  18
ENDBRANCH  16  17
ENDBRANCH   5  16
BRANCH  12  26
HETATM   26  O2  UNK     1      18.686  -2.157  38.248  1.00  0.00    -0.360 OA
HETATM   27  H30 UNK     1      17.731  -2.250  38.403  1.00  0.00     0.217 HD
ENDBRANCH  12  26
TORSDOF 7
ENDMDL
MODEL 6
REMARK VINA RESULT:      -7.8     12.746     15.769
REMARK  7 active torsions:
REMARK  status: ('A' for Active; 'I' for Inactive)
REMARK    1  A    between atoms: C17_20  and  O2_2 
REMARK    2  A    between atoms: C1_4  and  C2_5 
REMARK    3  A    between atoms: C1_4  and  C3_6 
REMARK    4  A    between atoms: C1_4  and  C12_15 
REMARK    5  A    between atoms: C2_5  and  C6_9 
REMARK    6  A    between atoms: C3_6  and  C4_7 
REMARK    7  A    between atoms: C4_7  and  C8_11 
ROOT
HETATM    1  O1  UNK     1      31.192  -7.422  33.600  1.00  0.00    -0.274 OA
HETATM    2  O3  UNK     1      33.000  -7.893  32.300  1.00  0.00    -0.259 OA
HETATM    3  C5  UNK     1      32.936  -6.257  35.494  1.00  0.00    -0.033 A 
HETATM    4  C7  UNK     1      33.829  -5.585  36.514  1.00  0.00     0.040 C 
HETATM    5  C8  UNK     1      29.277  -6.989  34.949  1.00  0.00     0.010 A 
HETATM    6  C9  UNK     1      35.254  -5.321  36.023  1.00  0.00     0.005 C 
HETATM    7  C10 UNK     1      33.434  -6.799  34.365  1.00  0.00     0.025 A 
HETATM    8  C11 UNK     1      35.796  -6.519  35.261  1.00  0.00     0.005 C 
HETATM    9  C13 UNK     1      34.912  -6.830  34.056  1.00  0.00     0.045 C 
HETATM   10  C14 UNK     1      31.488  -6.316  35.750  1.00  0.00     0.006 A 
HETATM   11  C15 UNK     1      30.661  -6.894  34.789  1.00  0.00     0.099 A 
HETATM   12  C17 UNK     1      28.692  -6.497  36.111  1.00  0.00     0.074 A 
HETATM   13  C18 UNK     1      32.554  -7.416  33.339  1.00  0.00     0.295 A 
HETATM   14  C19 UNK     1      30.878  -5.832  36.917  1.00  0.00     0.017 A 
HETATM   15  C22 UNK     1      29.492  -5.920  37.095  1.00  0.00     0.038 A 
ENDROOT
BRANCH   5  16
HETATM   16  C4  UNK     1      28.427  -7.617  33.887  1.00  0.00     0.045 C 
BRANCH  16  17
HETATM   17  C3  UNK     1      28.061  -6.608  32.787  1.00  0.00     0.014 C 
BRANCH  17  18
HETATM   18  C1  UNK     1      28.608  -6.979  31.383  1.00  0.00     0.017 C 
BRANCH  18  19
HETATM   19  C2  UNK     1      29.391  -5.795  30.709  1.00  0.00    -0.011 C 
HETATM   20  C16 UNK     1      30.649  -6.287  29.976  1.00  0.00     0.010 C 
BRANCH  19  21
HETATM   21  C6  UNK     1      29.764  -4.713  31.755  1.00  0.00     0.000 C 
HETATM   22  C20 UNK     1      29.990  -3.325  31.168  1.00  0.00     0.005 C 
ENDBRANCH  19  21
ENDBRANCH  18  19
BRANCH  18  23
HETATM   23  C12 UNK     1      27.495  -7.525  30.486  1.00  0.00    -0.089 C 
HETATM   24  C21 UNK     1      26.246  -6.704  30.313  1.00  0.00     0.043 C 
HETATM   25  C23 UNK     1      27.624  -8.712  29.868  1.00  0.00     0.014 C 
ENDBRANCH  18  23
ENDBRANCH  17  18
ENDBRANCH  16  17
ENDBRANCH   5  16
BRANCH  12  26
HETATM   26  O2  UNK     1      27.344  -6.571  36.307  1.00  0.00    -0.360 OA
HETATM   27  H30 UNK     1      26.989  -5.672  36.419  1.00  0.00     0.217 HD
ENDBRANCH  12  26
TORSDOF 7
ENDMDL
MODEL 7
REMARK VINA RESULT:      -7.7      1.694      4.265
REMARK  7 active torsions:
REMARK  status: ('A' for Active; 'I' for Inactive)
REMARK    1  A    between atoms: C17_20  and  O2_2 
REMARK    2  A    between atoms: C1_4  and  C2_5 
REMARK    3  A    between atoms: C1_4  and  C3_6 
REMARK    4  A    between atoms: C1_4  and  C12_15 
REMARK    5  A    between atoms: C2_5  and  C6_9 
REMARK    6  A    between atoms: C3_6  and  C4_7 
REMARK    7  A    between atoms: C4_7  and  C8_11 
ROOT
HETATM    1  O1  UNK     1      18.198   0.841  33.473  1.00  0.00    -0.274 OA
HETATM    2  O3  UNK     1      17.404   0.893  35.606  1.00  0.00    -0.259 OA
HETATM    3  C5  UNK     1      19.490  -1.597  34.079  1.00  0.00    -0.033 A 
HETATM    4  C7  UNK     1      20.162  -2.926  34.348  1.00  0.00     0.040 C 
HETATM    5  C8  UNK     1      19.045   0.853  31.247  1.00  0.00     0.010 A 
HETATM    6  C9  UNK     1      19.722  -3.600  35.648  1.00  0.00     0.005 C 
HETATM    7  C10 UNK     1      18.775  -0.962  35.028  1.00  0.00     0.025 A 
HETATM    8  C11 UNK     1      19.633  -2.591  36.780  1.00  0.00     0.005 C 
HETATM    9  C13 UNK     1      18.633  -1.489  36.436  1.00  0.00     0.045 C 
HETATM   10  C14 UNK     1      19.628  -0.991  32.745  1.00  0.00     0.006 A 
HETATM   11  C15 UNK     1      18.971   0.210  32.485  1.00  0.00     0.099 A 
HETATM   12  C17 UNK     1      19.805   0.284  30.231  1.00  0.00     0.074 A 
HETATM   13  C18 UNK     1      18.073   0.319  34.752  1.00  0.00     0.295 A 
HETATM   14  C19 UNK     1      20.394  -1.543  31.708  1.00  0.00     0.017 A 
HETATM   15  C22 UNK     1      20.480  -0.912  30.461  1.00  0.00     0.038 A 
ENDROOT
BRANCH   5  16
HETATM   16  C4  UNK     1      18.319   2.142  31.012  1.00  0.00     0.045 C 
BRANCH  16  17
HETATM   17  C3  UNK     1      19.158   3.351  31.456  1.00  0.00     0.014 C 
BRANCH  17  18
HETATM   18  C1  UNK     1      18.356   4.677  31.548  1.00  0.00     0.017 C 
BRANCH  18  19
HETATM   19  C2  UNK     1      19.130   5.894  30.926  1.00  0.00    -0.011 C 
HETATM   20  C16 UNK     1      18.981   5.946  29.397  1.00  0.00     0.010 C 
BRANCH  19  21
HETATM   21  C6  UNK     1      20.630   5.855  31.319  1.00  0.00     0.000 C 
HETATM   22  C20 UNK     1      20.939   6.481  32.673  1.00  0.00     0.005 C 
ENDBRANCH  19  21
ENDBRANCH  18  19
BRANCH  18  23
HETATM   23  C12 UNK     1      17.904   4.948  32.984  1.00  0.00    -0.089 C 
HETATM   24  C21 UNK     1      17.067   6.169  33.252  1.00  0.00     0.043 C 
HETATM   25  C23 UNK     1      18.249   4.122  33.986  1.00  0.00     0.014 C 
ENDBRANCH  18  23
ENDBRANCH  17  18
ENDBRANCH  16  17
ENDBRANCH   5  16
BRANCH  12  26
HETATM   26  O2  UNK     1      19.904   0.880  29.008  1.00  0.00    -0.360 OA
HETATM   27  H30 UNK     1      19.491   1.760  29.048  1.00  0.00     0.217 HD
ENDBRANCH  12  26
TORSDOF 7
ENDMDL
MODEL 8
REMARK VINA RESULT:      -7.7     13.272     15.714
REMARK  7 active torsions:
REMARK  status: ('A' for Active; 'I' for Inactive)
REMARK    1  A    between atoms: C17_20  and  O2_2 
REMARK    2  A    between atoms: C1_4  and  C2_5 
REMARK    3  A    between atoms: C1_4  and  C3_6 
REMARK    4  A    between atoms: C1_4  and  C12_15 
REMARK    5  A    between atoms: C2_5  and  C6_9 
REMARK    6  A    between atoms: C3_6  and  C4_7 
REMARK    7  A    between atoms: C4_7  and  C8_11 
ROOT
HETATM    1  O1  UNK     1      31.192  -6.537  34.602  1.00  0.00    -0.274 OA
HETATM    2  O3  UNK     1      32.257  -4.646  35.286  1.00  0.00    -0.259 OA
HETATM    3  C5  UNK     1      29.456  -6.286  36.817  1.00  0.00    -0.033 A 
HETATM    4  C7  UNK     1      28.477  -6.165  37.964  1.00  0.00     0.040 C 
HETATM    5  C8  UNK     1      30.136  -8.545  33.875  1.00  0.00     0.010 A 
HETATM    6  C9  UNK     1      28.520  -4.816  38.686  1.00  0.00     0.005 C 
HETATM    7  C10 UNK     1      30.440  -5.384  36.628  1.00  0.00     0.025 A 
HETATM    8  C11 UNK     1      29.953  -4.361  38.903  1.00  0.00     0.005 C 
HETATM    9  C13 UNK     1      30.679  -4.226  37.567  1.00  0.00     0.045 C 
HETATM   10  C14 UNK     1      29.321  -7.420  35.888  1.00  0.00     0.006 A 
HETATM   11  C15 UNK     1      30.194  -7.505  34.805  1.00  0.00     0.099 A 
HETATM   12  C17 UNK     1      29.179  -9.541  34.029  1.00  0.00     0.074 A 
HETATM   13  C18 UNK     1      31.371  -5.474  35.474  1.00  0.00     0.295 A 
HETATM   14  C19 UNK     1      28.368  -8.439  36.028  1.00  0.00     0.017 A 
HETATM   15  C22 UNK     1      28.297  -9.490  35.105  1.00  0.00     0.038 A 
ENDROOT
BRANCH   5  16
HETATM   16  C4  UNK     1      31.094  -8.594  32.724  1.00  0.00     0.045 C 
BRANCH  16  17
HETATM   17  C3  UNK     1      30.713  -7.585  31.629  1.00  0.00     0.014 C 
BRANCH  17  18
HETATM   18  C1  UNK     1      29.183  -7.406  31.441  1.00  0.00     0.017 C 
BRANCH  18  19
HETATM   19  C2  UNK     1      28.727  -7.635  29.955  1.00  0.00    -0.011 C 
HETATM   20  C16 UNK     1      27.714  -8.784  29.838  1.00  0.00     0.010 C 
BRANCH  19  21
HETATM   21  C6  UNK     1      29.949  -7.898  29.036  1.00  0.00     0.000 C 
HETATM   22  C20 UNK     1      29.923  -9.247  28.330  1.00  0.00     0.005 C 
ENDBRANCH  19  21
ENDBRANCH  18  19
BRANCH  18  23
HETATM   23  C12 UNK     1      28.714  -6.058  31.991  1.00  0.00    -0.089 C 
HETATM   24  C21 UNK     1      29.553  -4.840  31.714  1.00  0.00     0.043 C 
HETATM   25  C23 UNK     1      27.583  -5.959  32.711  1.00  0.00     0.014 C 
ENDBRANCH  18  23
ENDBRANCH  17  18
ENDBRANCH  16  17
ENDBRANCH   5  16
BRANCH  12  26
HETATM   26  O2  UNK     1      29.089 -10.575  33.143  1.00  0.00    -0.360 OA
HETATM   27  H30 UNK     1      28.204 -10.572  32.740  1.00  0.00     0.217 HD
ENDBRANCH  12  26
TORSDOF 7
ENDMDL
MODEL 9
REMARK VINA RESULT:      -7.7     14.297     16.571
REMARK  7 active torsions:
REMARK  status: ('A' for Active; 'I' for Inactive)
REMARK    1  A    between atoms: C17_20  and  O2_2 
REMARK    2  A    between atoms: C1_4  and  C2_5 
REMARK    3  A    between atoms: C1_4  and  C3_6 
REMARK    4  A    between atoms: C1_4  and  C12_15 
REMARK    5  A    between atoms: C2_5  and  C6_9 
REMARK    6  A    between atoms: C3_6  and  C4_7 
REMARK    7  A    between atoms: C4_7  and  C8_11 
ROOT
HETATM    1  O1  UNK     1      30.036  -6.820  35.150  1.00  0.00    -0.274 OA
HETATM    2  O3  UNK     1      31.088  -7.570  33.277  1.00  0.00    -0.259 OA
HETATM    3  C5  UNK     1      32.291  -5.209  35.696  1.00  0.00    -0.033 A 
HETATM    4  C7  UNK     1      33.460  -4.297  36.003  1.00  0.00     0.040 C 
HETATM    5  C8  UNK     1      28.916  -6.098  37.125  1.00  0.00     0.010 A 
HETATM    6  C9  UNK     1      34.454  -4.142  34.851  1.00  0.00     0.005 C 
HETATM    7  C10 UNK     1      32.280  -6.002  34.607  1.00  0.00     0.025 A 
HETATM    8  C11 UNK     1      34.732  -5.482  34.190  1.00  0.00     0.005 C 
HETATM    9  C13 UNK     1      33.441  -6.088  33.645  1.00  0.00     0.045 C 
HETATM   10  C14 UNK     1      31.143  -5.222  36.617  1.00  0.00     0.006 A 
HETATM   11  C15 UNK     1      30.048  -6.027  36.309  1.00  0.00     0.099 A 
HETATM   12  C17 UNK     1      28.873  -5.346  38.293  1.00  0.00     0.074 A 
HETATM   13  C18 UNK     1      31.113  -6.861  34.277  1.00  0.00     0.295 A 
HETATM   14  C19 UNK     1      31.081  -4.477  37.804  1.00  0.00     0.017 A 
HETATM   15  C22 UNK     1      29.955  -4.538  38.634  1.00  0.00     0.038 A 
ENDROOT
BRANCH   5  16
HETATM   16  C4  UNK     1      27.761  -6.977  36.752  1.00  0.00     0.045 C 
BRANCH  16  17
HETATM   17  C3  UNK     1      28.070  -8.459  37.018  1.00  0.00     0.014 C 
BRANCH  17  18
HETATM   18  C1  UNK     1      28.885  -8.710  38.315  1.00  0.00     0.017 C 
BRANCH  18  19
HETATM   19  C2  UNK     1      30.248  -9.441  38.040  1.00  0.00    -0.011 C 
HETATM   20  C16 UNK     1      31.452  -8.569  38.428  1.00  0.00     0.010 C 
BRANCH  19  21
HETATM   21  C6  UNK     1      30.352  -9.874  36.554  1.00  0.00     0.000 C 
HETATM   22  C20 UNK     1      31.778  -9.963  36.025  1.00  0.00     0.005 C 
ENDBRANCH  19  21
ENDBRANCH  18  19
BRANCH  18  23
HETATM   23  C12 UNK     1      28.039  -9.434  39.365  1.00  0.00    -0.089 C 
HETATM   24  C21 UNK     1      26.588  -9.062  39.497  1.00  0.00     0.043 C 
HETATM   25  C23 UNK     1      28.577 -10.379  40.156  1.00  0.00     0.014 C 
ENDBRANCH  18  23
ENDBRANCH  17  18
ENDBRANCH  16  17
ENDBRANCH   5  16
BRANCH  12  26
HETATM   26  O2  UNK     1      27.787  -5.388  39.119  1.00  0.00    -0.360 OA
HETATM   27  H30 UNK     1      28.090  -5.499  40.036  1.00  0.00     0.217 HD
ENDBRANCH  12  26
TORSDOF 7
ENDMDL
MODEL 10
REMARK VINA RESULT:      -7.7     11.780     14.632
REMARK  7 active torsions:
REMARK  status: ('A' for Active; 'I' for Inactive)
REMARK    1  A    between atoms: C17_20  and  O2_2 
REMARK    2  A    between atoms: C1_4  and  C2_5 
REMARK    3  A    between atoms: C1_4  and  C3_6 
REMARK    4  A    between atoms: C1_4  and  C12_15 
REMARK    5  A    between atoms: C2_5  and  C6_9 
REMARK    6  A    between atoms: C3_6  and  C4_7 
REMARK    7  A    between atoms: C4_7  and  C8_11 
ROOT
HETATM    1  O1  UNK     1      26.366  -6.574  38.391  1.00  0.00    -0.274 OA
HETATM    2  O3  UNK     1      26.991  -4.510  39.120  1.00  0.00    -0.259 OA
HETATM    3  C5  UNK     1      28.897  -6.839  37.163  1.00  0.00    -0.033 A 
HETATM    4  C7  UNK     1      30.255  -7.040  36.529  1.00  0.00     0.040 C 
HETATM    5  C8  UNK     1      25.652  -8.708  37.610  1.00  0.00     0.010 A 
HETATM    6  C9  UNK     1      31.305  -6.011  36.953  1.00  0.00     0.005 C 
HETATM    7  C10 UNK     1      28.588  -5.709  37.830  1.00  0.00     0.025 A 
HETATM    8  C11 UNK     1      30.715  -4.611  36.975  1.00  0.00     0.005 C 
HETATM    9  C13 UNK     1      29.539  -4.542  37.947  1.00  0.00     0.045 C 
HETATM   10  C14 UNK     1      27.894  -7.910  37.045  1.00  0.00     0.006 A 
HETATM   11  C15 UNK     1      26.659  -7.742  37.669  1.00  0.00     0.099 A 
HETATM   12  C17 UNK     1      25.877  -9.881  36.899  1.00  0.00     0.074 A 
HETATM   13  C18 UNK     1      27.272  -5.529  38.496  1.00  0.00     0.295 A 
HETATM   14  C19 UNK     1      28.097  -9.098  36.328  1.00  0.00     0.017 A 
HETATM   15  C22 UNK     1      27.097 -10.076  36.257  1.00  0.00     0.038 A 
ENDROOT
BRANCH   5  16
HETATM   16  C4  UNK     1      24.340  -8.486  38.299  1.00  0.00     0.045 C 
BRANCH  16  17
HETATM   17  C3  UNK     1      23.187  -8.360  37.290  1.00  0.00     0.014 C 
BRANCH  17  18
HETATM   18  C1  UNK     1      21.789  -8.670  37.888  1.00  0.00     0.017 C 
BRANCH  18  19
HETATM   19  C2  UNK     1      20.854  -9.425  36.876  1.00  0.00    -0.011 C 
HETATM   20  C16 UNK     1      20.447 -10.811  37.399  1.00  0.00     0.010 C 
BRANCH  19  21
HETATM   21  C6  UNK     1      21.531  -9.550  35.486  1.00  0.00     0.000 C 
HETATM   22  C20 UNK     1      21.857 -10.980  35.075  1.00  0.00     0.005 C 
ENDBRANCH  19  21
ENDBRANCH  18  19
BRANCH  18  23
HETATM   23  C12 UNK     1      21.137  -7.404  38.448  1.00  0.00    -0.089 C 
HETATM   24  C21 UNK     1      20.061  -7.553  39.490  1.00  0.00     0.043 C 
HETATM   25  C23 UNK     1      21.508  -6.186  38.020  1.00  0.00     0.014 C 
ENDBRANCH  18  23
ENDBRANCH  17  18
ENDBRANCH  16  17
ENDBRANCH   5  16
BRANCH  12  26
HETATM   26  O2  UNK     1      24.919 -10.849  36.816  1.00  0.00    -0.360 OA
HETATM   27  H30 UNK     1      25.342 -11.722  36.891  1.00  0.00     0.217 HD
ENDBRANCH  12  26
TORSDOF 7
ENDMDL
