MODEL 1
REMARK VINA RESULT:      -9.0      0.000      0.000
REMARK  6 active torsions:
REMARK  status: ('A' for Active; 'I' for Inactive)
REMARK    1  A    between atoms: C17_23  and  O2_2 
REMARK    2  A    between atoms: C7_13  and  O2_2 
REMARK    3  A    between atoms: C16_22  and  O4_4 
REMARK    4  A    between atoms: C20_26  and  O5_5 
REMARK    5  A    between atoms: C10_16  and  C8_14 
REMARK    6  A    between atoms: C13_19  and  C17_23 
ROOT
HETATM    1  O1  UNK     1      24.135  -8.621  37.375  1.00  0.00    -0.306 OA
HETATM    2  O3  UNK     1      25.472 -11.592  35.989  1.00  0.00    -0.284 OA
HETATM    3  C1  UNK     1      26.169  -9.714  37.309  1.00  0.00     0.051 A 
HETATM    4  C2  UNK     1      25.454  -8.606  37.763  1.00  0.00     0.093 A 
HETATM    5  C3  UNK     1      23.972  -9.785  36.635  1.00  0.00     0.127 A 
HETATM    6  C4  UNK     1      25.243 -10.544  36.548  1.00  0.00     0.218 A 
HETATM    7  C5  UNK     1      26.062  -7.628  38.521  1.00  0.00     0.075 A 
HETATM    8  C6  UNK     1      27.507  -9.897  37.585  1.00  0.00     0.021 A 
HETATM    9  C7  UNK     1      27.419  -7.789  38.815  1.00  0.00     0.082 A 
HETATM   10  C8  UNK     1      22.825 -10.173  36.074  1.00  0.00     0.053 C 
HETATM   11  C9  UNK     1      28.135  -8.912  38.352  1.00  0.00     0.038 A 
ENDROOT
BRANCH   9  12
HETATM   12  O2  UNK     1      28.063  -6.847  39.561  1.00  0.00    -0.275 OA
BRANCH  12  13
HETATM   13  C17 UNK     1      28.210  -5.613  38.924  1.00  0.00     0.298 C 
HETATM   14  O6  UNK     1      27.339  -4.765  38.802  1.00  0.00    -0.259 OA
BRANCH  13  15
HETATM   15  C13 UNK     1      29.592  -5.440  38.407  1.00  0.00     0.040 A 
HETATM   16  C18 UNK     1      29.897  -4.301  37.691  1.00  0.00     0.020 A 
HETATM   17  C21 UNK     1      31.194  -4.138  37.205  1.00  0.00     0.038 A 
HETATM   18  C20 UNK     1      32.158  -5.118  37.446  1.00  0.00     0.068 A 
HETATM   19  C22 UNK     1      31.823  -6.261  38.172  1.00  0.00     0.038 A 
HETATM   20  C19 UNK     1      30.527  -6.423  38.658  1.00  0.00     0.020 A 
BRANCH  18  21
HETATM   21  O5  UNK     1      33.423  -4.957  36.972  1.00  0.00    -0.356 OA
HETATM   22  C24 UNK     1      34.294  -6.084  37.050  1.00  0.00     0.210 C 
ENDBRANCH  18  21
ENDBRANCH  13  15
ENDBRANCH  12  13
ENDBRANCH   9  12
BRANCH  10  23
HETATM   23  C10 UNK     1      21.543  -9.446  36.139  1.00  0.00    -0.033 A 
HETATM   24  C12 UNK     1      21.310  -8.404  35.258  1.00  0.00     0.014 A 
HETATM   25  C15 UNK     1      20.099  -7.717  35.318  1.00  0.00     0.037 A 
HETATM   26  C16 UNK     1      19.135  -8.082  36.258  1.00  0.00     0.068 A 
HETATM   27  C14 UNK     1      19.385  -9.135  37.140  1.00  0.00     0.037 A 
HETATM   28  C11 UNK     1      20.597  -9.822  37.079  1.00  0.00     0.014 A 
BRANCH  26  29
HETATM   29  O4  UNK     1      17.952  -7.413  36.317  1.00  0.00    -0.356 OA
HETATM   30  C23 UNK     1      17.100  -7.500  35.177  1.00  0.00     0.210 C 
ENDBRANCH  26  29
ENDBRANCH  10  23
TORSDOF 6
ENDMDL
MODEL 2
REMARK VINA RESULT:      -8.9      2.425      3.889
REMARK  6 active torsions:
REMARK  status: ('A' for Active; 'I' for Inactive)
REMARK    1  A    between atoms: C17_23  and  O2_2 
REMARK    2  A    between atoms: C7_13  and  O2_2 
REMARK    3  A    between atoms: C16_22  and  O4_4 
REMARK    4  A    between atoms: C20_26  and  O5_5 
REMARK    5  A    between atoms: C10_16  and  C8_14 
REMARK    6  A    between atoms: C13_19  and  C17_23 
ROOT
HETATM    1  O1  UNK     1      22.979  -8.385  36.627  1.00  0.00    -0.306 OA
HETATM    2  O3  UNK     1      21.232 -11.102  35.178  1.00  0.00    -0.284 OA
HETATM    3  C1  UNK     1      23.407 -10.579  36.045  1.00  0.00     0.051 A 
HETATM    4  C2  UNK     1      23.908  -9.398  36.592  1.00  0.00     0.093 A 
HETATM    5  C3  UNK     1      21.818  -8.918  36.082  1.00  0.00     0.127 A 
HETATM    6  C4  UNK     1      22.018 -10.332  35.682  1.00  0.00     0.218 A 
HETATM    7  C5  UNK     1      25.210  -9.314  37.035  1.00  0.00     0.075 A 
HETATM    8  C6  UNK     1      24.171 -11.719  35.915  1.00  0.00     0.021 A 
HETATM    9  C7  UNK     1      26.008 -10.457  36.916  1.00  0.00     0.082 A 
HETATM   10  C8  UNK     1      20.673  -8.249  35.935  1.00  0.00     0.053 C 
HETATM   11  C9  UNK     1      25.493 -11.647  36.361  1.00  0.00     0.038 A 
ENDROOT
BRANCH   9  12
HETATM   12  O2  UNK     1      27.303 -10.422  37.341  1.00  0.00    -0.275 OA
BRANCH  12  13
HETATM   13  C17 UNK     1      27.464  -9.961  38.649  1.00  0.00     0.298 C 
HETATM   14  O6  UNK     1      27.060 -10.521  39.657  1.00  0.00    -0.259 OA
BRANCH  13  15
HETATM   15  C13 UNK     1      28.216  -8.680  38.676  1.00  0.00     0.040 A 
HETATM   16  C18 UNK     1      29.457  -8.625  38.075  1.00  0.00     0.020 A 
HETATM   17  C21 UNK     1      30.164  -7.422  38.100  1.00  0.00     0.038 A 
HETATM   18  C20 UNK     1      29.615  -6.303  38.725  1.00  0.00     0.068 A 
HETATM   19  C22 UNK     1      28.359  -6.386  39.326  1.00  0.00     0.038 A 
HETATM   20  C19 UNK     1      27.652  -7.587  39.300  1.00  0.00     0.020 A 
BRANCH  18  21
HETATM   21  O5  UNK     1      30.305  -5.130  38.748  1.00  0.00    -0.356 OA
HETATM   22  C24 UNK     1      29.608  -3.974  39.208  1.00  0.00     0.210 C 
ENDBRANCH  18  21
ENDBRANCH  13  15
ENDBRANCH  12  13
ENDBRANCH   9  12
BRANCH  10  23
HETATM   23  C10 UNK     1      20.437  -6.845  36.320  1.00  0.00    -0.033 A 
HETATM   24  C12 UNK     1      20.679  -6.451  37.625  1.00  0.00     0.014 A 
HETATM   25  C15 UNK     1      20.456  -5.124  37.990  1.00  0.00     0.037 A 
HETATM   26  C16 UNK     1      19.995  -4.208  37.045  1.00  0.00     0.068 A 
HETATM   27  C14 UNK     1      19.755  -4.621  35.734  1.00  0.00     0.037 A 
HETATM   28  C11 UNK     1      19.978  -5.949  35.369  1.00  0.00     0.014 A 
BRANCH  26  29
HETATM   29  O4  UNK     1      19.779  -2.912  37.400  1.00  0.00    -0.356 OA
HETATM   30  C23 UNK     1      18.654  -2.258  36.815  1.00  0.00     0.210 C 
ENDBRANCH  26  29
ENDBRANCH  10  23
TORSDOF 6
ENDMDL
MODEL 3
REMARK VINA RESULT:      -8.9      7.978     12.201
REMARK  6 active torsions:
REMARK  status: ('A' for Active; 'I' for Inactive)
REMARK    1  A    between atoms: C17_23  and  O2_2 
REMARK    2  A    between atoms: C7_13  and  O2_2 
REMARK    3  A    between atoms: C16_22  and  O4_4 
REMARK    4  A    between atoms: C20_26  and  O5_5 
REMARK    5  A    between atoms: C10_16  and  C8_14 
REMARK    6  A    between atoms: C13_19  and  C17_23 
ROOT
HETATM    1  O1  UNK     1      18.885   0.351  34.694  1.00  0.00    -0.306 OA
HETATM    2  O3  UNK     1      17.312   1.259  37.734  1.00  0.00    -0.284 OA
HETATM    3  C1  UNK     1      18.463  -0.604  36.755  1.00  0.00     0.051 A 
HETATM    4  C2  UNK     1      19.026  -0.762  35.490  1.00  0.00     0.093 A 
HETATM    5  C3  UNK     1      18.200   1.282  35.466  1.00  0.00     0.127 A 
HETATM    6  C4  UNK     1      17.892   0.736  36.810  1.00  0.00     0.218 A 
HETATM    7  C5  UNK     1      19.650  -1.937  35.128  1.00  0.00     0.075 A 
HETATM    8  C6  UNK     1      18.492  -1.599  37.709  1.00  0.00     0.021 A 
HETATM    9  C7  UNK     1      19.694  -2.963  36.078  1.00  0.00     0.082 A 
HETATM   10  C8  UNK     1      17.862   2.505  35.055  1.00  0.00     0.053 C 
HETATM   11  C9  UNK     1      19.121  -2.795  37.355  1.00  0.00     0.038 A 
ENDROOT
BRANCH   9  12
HETATM   12  O2  UNK     1      20.300  -4.143  35.766  1.00  0.00    -0.275 OA
BRANCH  12  13
HETATM   13  C17 UNK     1      20.850  -4.813  36.862  1.00  0.00     0.298 C 
HETATM   14  O6  UNK     1      21.659  -4.346  37.649  1.00  0.00    -0.259 OA
BRANCH  13  15
HETATM   15  C13 UNK     1      20.312  -6.193  36.969  1.00  0.00     0.040 A 
HETATM   16  C18 UNK     1      19.784  -6.609  38.174  1.00  0.00     0.020 A 
HETATM   17  C21 UNK     1      19.279  -7.906  38.276  1.00  0.00     0.038 A 
HETATM   18  C20 UNK     1      19.312  -8.757  37.171  1.00  0.00     0.068 A 
HETATM   19  C22 UNK     1      19.852  -8.311  35.965  1.00  0.00     0.038 A 
HETATM   20  C19 UNK     1      20.357  -7.015  35.863  1.00  0.00     0.020 A 
BRANCH  18  21
HETATM   21  O5  UNK     1      18.818 -10.021  37.271  1.00  0.00    -0.356 OA
HETATM   22  C24 UNK     1      19.702 -11.027  37.760  1.00  0.00     0.210 C 
ENDBRANCH  18  21
ENDBRANCH  13  15
ENDBRANCH  12  13
ENDBRANCH   9  12
BRANCH  10  23
HETATM   23  C10 UNK     1      18.150   3.082  33.729  1.00  0.00    -0.033 A 
HETATM   24  C12 UNK     1      18.345   4.448  33.613  1.00  0.00     0.014 A 
HETATM   25  C15 UNK     1      18.617   4.994  32.359  1.00  0.00     0.037 A 
HETATM   26  C16 UNK     1      18.693   4.166  31.239  1.00  0.00     0.068 A 
HETATM   27  C14 UNK     1      18.495   2.792  31.373  1.00  0.00     0.037 A 
HETATM   28  C11 UNK     1      18.222   2.246  32.627  1.00  0.00     0.014 A 
BRANCH  26  29
HETATM   29  O4  UNK     1      18.961   4.699  30.015  1.00  0.00    -0.356 OA
HETATM   30  C23 UNK     1      19.746   5.889  29.983  1.00  0.00     0.210 C 
ENDBRANCH  26  29
ENDBRANCH  10  23
TORSDOF 6
ENDMDL
MODEL 4
REMARK VINA RESULT:      -8.8     30.457     34.443
REMARK  6 active torsions:
REMARK  status: ('A' for Active; 'I' for Inactive)
REMARK    1  A    between atoms: C17_23  and  O2_2 
REMARK    2  A    between atoms: C7_13  and  O2_2 
REMARK    3  A    between atoms: C16_22  and  O4_4 
REMARK    4  A    between atoms: C20_26  and  O5_5 
REMARK    5  A    between atoms: C10_16  and  C8_14 
REMARK    6  A    between atoms: C13_19  and  C17_23 
ROOT
HETATM    1  O1  UNK     1       6.965   5.111  11.419  1.00  0.00    -0.306 OA
HETATM    2  O3  UNK     1       5.568   8.365  11.488  1.00  0.00    -0.284 OA
HETATM    3  C1  UNK     1       7.039   7.033  10.140  1.00  0.00     0.051 A 
HETATM    4  C2  UNK     1       7.478   5.720  10.297  1.00  0.00     0.093 A 
HETATM    5  C3  UNK     1       6.154   6.063  12.027  1.00  0.00     0.127 A 
HETATM    6  C4  UNK     1       6.153   7.331  11.257  1.00  0.00     0.218 A 
HETATM    7  C5  UNK     1       8.338   5.141   9.389  1.00  0.00     0.075 A 
HETATM    8  C6  UNK     1       7.434   7.825   9.082  1.00  0.00     0.021 A 
HETATM    9  C7  UNK     1       8.753   5.922   8.305  1.00  0.00     0.082 A 
HETATM   10  C8  UNK     1       5.467   5.865  13.153  1.00  0.00     0.053 C 
HETATM   11  C9  UNK     1       8.306   7.250   8.154  1.00  0.00     0.038 A 
ENDROOT
BRANCH   9  12
HETATM   12  O2  UNK     1       9.604   5.392   7.381  1.00  0.00    -0.275 OA
BRANCH  12  13
HETATM   13  C17 UNK     1      10.639   6.248   6.998  1.00  0.00     0.298 C 
HETATM   14  O6  UNK     1      10.638   6.972   6.013  1.00  0.00    -0.259 OA
BRANCH  13  15
HETATM   15  C13 UNK     1      11.769   6.186   7.960  1.00  0.00     0.040 A 
HETATM   16  C18 UNK     1      12.513   5.027   8.037  1.00  0.00     0.020 A 
HETATM   17  C21 UNK     1      13.574   4.967   8.941  1.00  0.00     0.038 A 
HETATM   18  C20 UNK     1      13.867   6.067   9.747  1.00  0.00     0.068 A 
HETATM   19  C22 UNK     1      13.098   7.227   9.649  1.00  0.00     0.038 A 
HETATM   20  C19 UNK     1      12.038   7.287   8.746  1.00  0.00     0.020 A 
BRANCH  18  21
HETATM   21  O5  UNK     1      14.903   6.009  10.627  1.00  0.00    -0.356 OA
HETATM   22  C24 UNK     1      16.154   6.541  10.196  1.00  0.00     0.210 C 
ENDBRANCH  18  21
ENDBRANCH  13  15
ENDBRANCH  12  13
ENDBRANCH   9  12
BRANCH  10  23
HETATM   23  C10 UNK     1       5.444   4.620  13.944  1.00  0.00    -0.033 A 
HETATM   24  C12 UNK     1       5.757   4.669  15.292  1.00  0.00     0.014 A 
HETATM   25  C15 UNK     1       5.735   3.492  16.040  1.00  0.00     0.037 A 
HETATM   26  C16 UNK     1       5.398   2.284  15.430  1.00  0.00     0.068 A 
HETATM   27  C14 UNK     1       5.084   2.252  14.071  1.00  0.00     0.037 A 
HETATM   28  C11 UNK     1       5.107   3.429  13.323  1.00  0.00     0.014 A 
BRANCH  26  29
HETATM   29  O4  UNK     1       5.375   1.136  16.161  1.00  0.00    -0.356 OA
HETATM   30  C23 UNK     1       5.127   1.261  17.559  1.00  0.00     0.210 C 
ENDBRANCH  26  29
ENDBRANCH  10  23
TORSDOF 6
ENDMDL
MODEL 5
REMARK VINA RESULT:      -8.8     32.097     35.498
REMARK  6 active torsions:
REMARK  status: ('A' for Active; 'I' for Inactive)
REMARK    1  A    between atoms: C17_23  and  O2_2 
REMARK    2  A    between atoms: C7_13  and  O2_2 
REMARK    3  A    between atoms: C16_22  and  O4_4 
REMARK    4  A    between atoms: C20_26  and  O5_5 
REMARK    5  A    between atoms: C10_16  and  C8_14 
REMARK    6  A    between atoms: C13_19  and  C17_23 
ROOT
HETATM    1  O1  UNK     1      18.466  10.536   9.940  1.00  0.00    -0.306 OA
HETATM    2  O3  UNK     1      17.047  12.803   7.619  1.00  0.00    -0.284 OA
HETATM    3  C1  UNK     1      16.518  10.735   8.715  1.00  0.00     0.051 A 
HETATM    4  C2  UNK     1      17.247   9.979   9.631  1.00  0.00     0.093 A 
HETATM    5  C3  UNK     1      18.545  11.707   9.196  1.00  0.00     0.127 A 
HETATM    6  C4  UNK     1      17.322  11.903   8.380  1.00  0.00     0.218 A 
HETATM    7  C5  UNK     1      16.746   8.801  10.143  1.00  0.00     0.075 A 
HETATM    8  C6  UNK     1      15.269  10.357   8.269  1.00  0.00     0.021 A 
HETATM    9  C7  UNK     1      15.481   8.395   9.708  1.00  0.00     0.082 A 
HETATM   10  C8  UNK     1      19.582  12.547   9.212  1.00  0.00     0.053 C 
HETATM   11  C9  UNK     1      14.750   9.165   8.780  1.00  0.00     0.038 A 
ENDROOT
BRANCH   9  12
HETATM   12  O2  UNK     1      14.944   7.236  10.186  1.00  0.00    -0.275 OA
BRANCH  12  13
HETATM   13  C17 UNK     1      14.890   6.201   9.251  1.00  0.00     0.298 C 
HETATM   14  O6  UNK     1      15.827   5.491   8.918  1.00  0.00    -0.259 OA
BRANCH  13  15
HETATM   15  C13 UNK     1      13.518   6.049   8.701  1.00  0.00     0.040 A 
HETATM   16  C18 UNK     1      12.516   5.589   9.529  1.00  0.00     0.020 A 
HETATM   17  C21 UNK     1      11.228   5.446   9.012  1.00  0.00     0.038 A 
HETATM   18  C20 UNK     1      10.971   5.767   7.679  1.00  0.00     0.068 A 
HETATM   19  C22 UNK     1      12.003   6.230   6.863  1.00  0.00     0.038 A 
HETATM   20  C19 UNK     1      13.290   6.373   7.379  1.00  0.00     0.020 A 
BRANCH  18  21
HETATM   21  O5  UNK     1       9.714   5.629   7.176  1.00  0.00    -0.356 OA
HETATM   22  C24 UNK     1       9.472   6.162   5.876  1.00  0.00     0.210 C 
ENDBRANCH  18  21
ENDBRANCH  13  15
ENDBRANCH  12  13
ENDBRANCH   9  12
BRANCH  10  23
HETATM   23  C10 UNK     1      20.812  12.386  10.010  1.00  0.00    -0.033 A 
HETATM   24  C12 UNK     1      22.030  12.279   9.361  1.00  0.00     0.014 A 
HETATM   25  C15 UNK     1      23.193  12.126  10.115  1.00  0.00     0.037 A 
HETATM   26  C16 UNK     1      23.123  12.086  11.507  1.00  0.00     0.068 A 
HETATM   27  C14 UNK     1      21.887  12.196  12.146  1.00  0.00     0.037 A 
HETATM   28  C11 UNK     1      20.723  12.348  11.392  1.00  0.00     0.014 A 
BRANCH  26  29
HETATM   29  O4  UNK     1      24.258  11.939  12.243  1.00  0.00    -0.356 OA
HETATM   30  C23 UNK     1      25.399  11.404  11.575  1.00  0.00     0.210 C 
ENDBRANCH  26  29
ENDBRANCH  10  23
TORSDOF 6
ENDMDL
MODEL 6
REMARK VINA RESULT:      -8.7     32.044     34.433
REMARK  6 active torsions:
REMARK  status: ('A' for Active; 'I' for Inactive)
REMARK    1  A    between atoms: C17_23  and  O2_2 
REMARK    2  A    between atoms: C7_13  and  O2_2 
REMARK    3  A    between atoms: C16_22  and  O4_4 
REMARK    4  A    between atoms: C20_26  and  O5_5 
REMARK    5  A    between atoms: C10_16  and  C8_14 
REMARK    6  A    between atoms: C13_19  and  C17_23 
ROOT
HETATM    1  O1  UNK     1       9.801   5.189   9.149  1.00  0.00    -0.306 OA
HETATM    2  O3  UNK     1       8.656   6.773   6.195  1.00  0.00    -0.284 OA
HETATM    3  C1  UNK     1      10.713   6.116   7.240  1.00  0.00     0.051 A 
HETATM    4  C2  UNK     1      10.953   5.478   8.456  1.00  0.00     0.093 A 
HETATM    5  C3  UNK     1       8.758   5.655   8.358  1.00  0.00     0.127 A 
HETATM    6  C4  UNK     1       9.270   6.268   7.108  1.00  0.00     0.218 A 
HETATM    7  C5  UNK     1      12.236   5.191   8.870  1.00  0.00     0.075 A 
HETATM    8  C6  UNK     1      11.730   6.495   6.388  1.00  0.00     0.021 A 
HETATM    9  C7  UNK     1      13.286   5.565   8.025  1.00  0.00     0.082 A 
HETATM   10  C8  UNK     1       7.466   5.566   8.677  1.00  0.00     0.053 C 
HETATM   11  C9  UNK     1      13.035   6.210   6.797  1.00  0.00     0.038 A 
ENDROOT
BRANCH   9  12
HETATM   12  O2  UNK     1      14.572   5.302   8.392  1.00  0.00    -0.275 OA
BRANCH  12  13
HETATM   13  C17 UNK     1      14.886   5.687   9.697  1.00  0.00     0.298 C 
HETATM   14  O6  UNK     1      14.665   5.035  10.706  1.00  0.00    -0.259 OA
BRANCH  13  15
HETATM   15  C13 UNK     1      15.550   7.016   9.717  1.00  0.00     0.040 A 
HETATM   16  C18 UNK     1      14.803   8.137   9.421  1.00  0.00     0.020 A 
HETATM   17  C21 UNK     1      15.426   9.385   9.439  1.00  0.00     0.038 A 
HETATM   18  C20 UNK     1      16.782   9.484   9.753  1.00  0.00     0.068 A 
HETATM   19  C22 UNK     1      17.514   8.335  10.048  1.00  0.00     0.038 A 
HETATM   20  C19 UNK     1      16.891   7.088  10.030  1.00  0.00     0.020 A 
BRANCH  18  21
HETATM   21  O5  UNK     1      17.388  10.702   9.772  1.00  0.00    -0.356 OA
HETATM   22  C24 UNK     1      18.035  11.125   8.573  1.00  0.00     0.210 C 
ENDBRANCH  18  21
ENDBRANCH  13  15
ENDBRANCH  12  13
ENDBRANCH   9  12
BRANCH  10  23
HETATM   23  C10 UNK     1       6.919   4.965   9.908  1.00  0.00    -0.033 A 
HETATM   24  C12 UNK     1       6.527   3.637   9.896  1.00  0.00     0.014 A 
HETATM   25  C15 UNK     1       6.010   3.068  11.059  1.00  0.00     0.037 A 
HETATM   26  C16 UNK     1       5.894   3.834  12.219  1.00  0.00     0.068 A 
HETATM   27  C14 UNK     1       6.294   5.171  12.215  1.00  0.00     0.037 A 
HETATM   28  C11 UNK     1       6.811   5.740  11.050  1.00  0.00     0.014 A 
BRANCH  26  29
HETATM   29  O4  UNK     1       5.391   3.279  13.355  1.00  0.00    -0.356 OA
HETATM   30  C23 UNK     1       5.802   3.853  14.595  1.00  0.00     0.210 C 
ENDBRANCH  26  29
ENDBRANCH  10  23
TORSDOF 6
ENDMDL
MODEL 7
REMARK VINA RESULT:      -8.7      7.794     11.691
REMARK  6 active torsions:
REMARK  status: ('A' for Active; 'I' for Inactive)
REMARK    1  A    between atoms: C17_23  and  O2_2 
REMARK    2  A    between atoms: C7_13  and  O2_2 
REMARK    3  A    between atoms: C16_22  and  O4_4 
REMARK    4  A    between atoms: C20_26  and  O5_5 
REMARK    5  A    between atoms: C10_16  and  C8_14 
REMARK    6  A    between atoms: C13_19  and  C17_23 
ROOT
HETATM    1  O1  UNK     1      18.943   0.201  34.768  1.00  0.00    -0.306 OA
HETATM    2  O3  UNK     1      17.505   1.150  37.862  1.00  0.00    -0.284 OA
HETATM    3  C1  UNK     1      18.609  -0.728  36.856  1.00  0.00     0.051 A 
HETATM    4  C2  UNK     1      19.116  -0.903  35.570  1.00  0.00     0.093 A 
HETATM    5  C3  UNK     1      18.294   1.142  35.557  1.00  0.00     0.127 A 
HETATM    6  C4  UNK     1      18.044   0.613  36.920  1.00  0.00     0.218 A 
HETATM    7  C5  UNK     1      19.721  -2.084  35.196  1.00  0.00     0.075 A 
HETATM    8  C6  UNK     1      18.677  -1.712  37.820  1.00  0.00     0.021 A 
HETATM    9  C7  UNK     1      19.805  -3.098  36.155  1.00  0.00     0.082 A 
HETATM   10  C8  UNK     1      17.940   2.362  35.147  1.00  0.00     0.053 C 
HETATM   11  C9  UNK     1      19.288  -2.914  37.454  1.00  0.00     0.038 A 
ENDROOT
BRANCH   9  12
HETATM   12  O2  UNK     1      20.395  -4.284  35.832  1.00  0.00    -0.275 OA
BRANCH  12  13
HETATM   13  C17 UNK     1      19.649  -5.410  36.185  1.00  0.00     0.298 C 
HETATM   14  O6  UNK     1      18.451  -5.425  36.426  1.00  0.00    -0.259 OA
BRANCH  13  15
HETATM   15  C13 UNK     1      20.502  -6.625  36.225  1.00  0.00     0.040 A 
HETATM   16  C18 UNK     1      20.468  -7.498  35.157  1.00  0.00     0.020 A 
HETATM   17  C21 UNK     1      21.268  -8.640  35.194  1.00  0.00     0.038 A 
HETATM   18  C20 UNK     1      22.087  -8.883  36.297  1.00  0.00     0.068 A 
HETATM   19  C22 UNK     1      22.102  -7.985  37.364  1.00  0.00     0.038 A 
HETATM   20  C19 UNK     1      21.302  -6.844  37.327  1.00  0.00     0.020 A 
BRANCH  18  21
HETATM   21  O5  UNK     1      22.868  -9.996  36.331  1.00  0.00    -0.356 OA
HETATM   22  C24 UNK     1      22.494 -11.080  35.482  1.00  0.00     0.210 C 
ENDBRANCH  18  21
ENDBRANCH  13  15
ENDBRANCH  12  13
ENDBRANCH   9  12
BRANCH  10  23
HETATM   23  C10 UNK     1      18.172   2.922  33.802  1.00  0.00    -0.033 A 
HETATM   24  C12 UNK     1      18.294   4.293  33.652  1.00  0.00     0.014 A 
HETATM   25  C15 UNK     1      18.513   4.823  32.381  1.00  0.00     0.037 A 
HETATM   26  C16 UNK     1      18.609   3.975  31.278  1.00  0.00     0.068 A 
HETATM   27  C14 UNK     1      18.483   2.595  31.446  1.00  0.00     0.037 A 
HETATM   28  C11 UNK     1      18.264   2.065  32.718  1.00  0.00     0.014 A 
BRANCH  26  29
HETATM   29  O4  UNK     1      18.824   4.492  30.037  1.00  0.00    -0.356 OA
HETATM   30  C23 UNK     1      19.503   5.743  29.965  1.00  0.00     0.210 C 
ENDBRANCH  26  29
ENDBRANCH  10  23
TORSDOF 6
ENDMDL
MODEL 8
REMARK VINA RESULT:      -8.7      2.320      8.769
REMARK  6 active torsions:
REMARK  status: ('A' for Active; 'I' for Inactive)
REMARK    1  A    between atoms: C17_23  and  O2_2 
REMARK    2  A    between atoms: C7_13  and  O2_2 
REMARK    3  A    between atoms: C16_22  and  O4_4 
REMARK    4  A    between atoms: C20_26  and  O5_5 
REMARK    5  A    between atoms: C10_16  and  C8_14 
REMARK    6  A    between atoms: C13_19  and  C17_23 
ROOT
HETATM    1  O1  UNK     1      24.505  -8.856  37.001  1.00  0.00    -0.306 OA
HETATM    2  O3  UNK     1      25.302 -12.090  35.798  1.00  0.00    -0.284 OA
HETATM    3  C1  UNK     1      23.396 -10.661  36.080  1.00  0.00     0.051 A 
HETATM    4  C2  UNK     1      23.295  -9.370  36.596  1.00  0.00     0.093 A 
HETATM    5  C3  UNK     1      25.442  -9.849  36.742  1.00  0.00     0.127 A 
HETATM    6  C4  UNK     1      24.800 -11.046  36.147  1.00  0.00     0.218 A 
HETATM    7  C5  UNK     1      22.080  -8.724  36.668  1.00  0.00     0.075 A 
HETATM    8  C6  UNK     1      22.302 -11.362  35.618  1.00  0.00     0.021 A 
HETATM    9  C7  UNK     1      20.954  -9.412  36.205  1.00  0.00     0.082 A 
HETATM   10  C8  UNK     1      26.748  -9.743  36.994  1.00  0.00     0.053 C 
HETATM   11  C9  UNK     1      21.064 -10.718  35.685  1.00  0.00     0.038 A 
ENDROOT
BRANCH   9  12
HETATM   12  O2  UNK     1      19.731  -8.813  36.256  1.00  0.00    -0.275 OA
BRANCH  12  13
HETATM   13  C17 UNK     1      19.501  -8.078  37.421  1.00  0.00     0.298 C 
HETATM   14  O6  UNK     1      19.119  -8.534  38.488  1.00  0.00    -0.259 OA
BRANCH  13  15
HETATM   15  C13 UNK     1      19.794  -6.637  37.210  1.00  0.00     0.040 A 
HETATM   16  C18 UNK     1      19.440  -6.054  36.011  1.00  0.00     0.020 A 
HETATM   17  C21 UNK     1      19.716  -4.701  35.813  1.00  0.00     0.038 A 
HETATM   18  C20 UNK     1      20.340  -3.961  36.818  1.00  0.00     0.068 A 
HETATM   19  C22 UNK     1      20.689  -4.575  38.020  1.00  0.00     0.038 A 
HETATM   20  C19 UNK     1      20.412  -5.927  38.219  1.00  0.00     0.020 A 
BRANCH  18  21
HETATM   21  O5  UNK     1      20.607  -2.641  36.623  1.00  0.00    -0.356 OA
HETATM   22  C24 UNK     1      19.966  -2.003  35.521  1.00  0.00     0.210 C 
ENDBRANCH  18  21
ENDBRANCH  13  15
ENDBRANCH  12  13
ENDBRANCH   9  12
BRANCH  10  23
HETATM   23  C10 UNK     1      27.422  -8.571  37.583  1.00  0.00    -0.033 A 
HETATM   24  C12 UNK     1      27.405  -8.400  38.957  1.00  0.00     0.014 A 
HETATM   25  C15 UNK     1      28.042  -7.293  39.515  1.00  0.00     0.037 A 
HETATM   26  C16 UNK     1      28.689  -6.371  38.692  1.00  0.00     0.068 A 
HETATM   27  C14 UNK     1      28.697  -6.557  37.309  1.00  0.00     0.037 A 
HETATM   28  C11 UNK     1      28.059  -7.666  36.751  1.00  0.00     0.014 A 
BRANCH  26  29
HETATM   29  O4  UNK     1      29.311  -5.291  39.236  1.00  0.00    -0.356 OA
HETATM   30  C23 UNK     1      29.556  -4.180  38.375  1.00  0.00     0.210 C 
ENDBRANCH  26  29
ENDBRANCH  10  23
TORSDOF 6
ENDMDL
MODEL 9
REMARK VINA RESULT:      -8.6     32.562     34.837
REMARK  6 active torsions:
REMARK  status: ('A' for Active; 'I' for Inactive)
REMARK    1  A    between atoms: C17_23  and  O2_2 
REMARK    2  A    between atoms: C7_13  and  O2_2 
REMARK    3  A    between atoms: C16_22  and  O4_4 
REMARK    4  A    between atoms: C20_26  and  O5_5 
REMARK    5  A    between atoms: C10_16  and  C8_14 
REMARK    6  A    between atoms: C13_19  and  C17_23 
ROOT
HETATM    1  O1  UNK     1      10.031   5.993   9.437  1.00  0.00    -0.306 OA
HETATM    2  O3  UNK     1       9.221   6.212   5.997  1.00  0.00    -0.284 OA
HETATM    3  C1  UNK     1      11.135   6.335   7.437  1.00  0.00     0.051 A 
HETATM    4  C2  UNK     1      11.241   6.218   8.823  1.00  0.00     0.093 A 
HETATM    5  C3  UNK     1       9.089   5.961   8.417  1.00  0.00     0.127 A 
HETATM    6  C4  UNK     1       9.728   6.176   7.095  1.00  0.00     0.218 A 
HETATM    7  C5  UNK     1      12.460   6.324   9.457  1.00  0.00     0.075 A 
HETATM    8  C6  UNK     1      12.228   6.563   6.628  1.00  0.00     0.021 A 
HETATM    9  C7  UNK     1      13.585   6.554   8.659  1.00  0.00     0.082 A 
HETATM   10  C8  UNK     1       7.782   5.765   8.597  1.00  0.00     0.053 C 
HETATM   11  C9  UNK     1      13.470   6.673   7.258  1.00  0.00     0.038 A 
ENDROOT
BRANCH   9  12
HETATM   12  O2  UNK     1      14.812   6.667   9.242  1.00  0.00    -0.275 OA
BRANCH  12  13
HETATM   13  C17 UNK     1      14.919   7.717  10.155  1.00  0.00     0.298 C 
HETATM   14  O6  UNK     1      14.547   7.691  11.318  1.00  0.00    -0.259 OA
BRANCH  13  15
HETATM   15  C13 UNK     1      15.568   8.901   9.535  1.00  0.00     0.040 A 
HETATM   16  C18 UNK     1      14.813   9.728   8.729  1.00  0.00     0.020 A 
HETATM   17  C21 UNK     1      15.421  10.839   8.146  1.00  0.00     0.038 A 
HETATM   18  C20 UNK     1      16.771  11.100   8.381  1.00  0.00     0.068 A 
HETATM   19  C22 UNK     1      17.513  10.247   9.199  1.00  0.00     0.038 A 
HETATM   20  C19 UNK     1      16.904   9.137   9.782  1.00  0.00     0.020 A 
BRANCH  18  21
HETATM   21  O5  UNK     1      17.364  12.185   7.813  1.00  0.00    -0.356 OA
HETATM   22  C24 UNK     1      18.753  12.082   7.509  1.00  0.00     0.210 C 
ENDBRANCH  18  21
ENDBRANCH  13  15
ENDBRANCH  12  13
ENDBRANCH   9  12
BRANCH  10  23
HETATM   23  C10 UNK     1       7.111   5.549   9.893  1.00  0.00    -0.033 A 
HETATM   24  C12 UNK     1       6.675   4.277  10.225  1.00  0.00     0.014 A 
HETATM   25  C15 UNK     1       6.041   4.072  11.449  1.00  0.00     0.037 A 
HETATM   26  C16 UNK     1       5.853   5.140  12.326  1.00  0.00     0.068 A 
HETATM   27  C14 UNK     1       6.299   6.416  11.976  1.00  0.00     0.037 A 
HETATM   28  C11 UNK     1       6.933   6.621  10.751  1.00  0.00     0.014 A 
BRANCH  26  29
HETATM   29  O4  UNK     1       5.235   4.940  13.522  1.00  0.00    -0.356 OA
HETATM   30  C23 UNK     1       5.951   4.195  14.505  1.00  0.00     0.210 C 
ENDBRANCH  26  29
ENDBRANCH  10  23
TORSDOF 6
ENDMDL
MODEL 10
REMARK VINA RESULT:      -8.6      9.953     13.721
REMARK  6 active torsions:
REMARK  status: ('A' for Active; 'I' for Inactive)
REMARK    1  A    between atoms: C17_23  and  O2_2 
REMARK    2  A    between atoms: C7_13  and  O2_2 
REMARK    3  A    between atoms: C16_22  and  O4_4 
REMARK    4  A    between atoms: C20_26  and  O5_5 
REMARK    5  A    between atoms: C10_16  and  C8_14 
REMARK    6  A    between atoms: C13_19  and  C17_23 
ROOT
HETATM    1  O1  UNK     1      18.186   2.638  33.408  1.00  0.00    -0.306 OA
HETATM    2  O3  UNK     1      18.844   1.948  29.998  1.00  0.00    -0.284 OA
HETATM    3  C1  UNK     1      18.754   0.814  32.110  1.00  0.00     0.051 A 
HETATM    4  C2  UNK     1      18.464   1.292  33.387  1.00  0.00     0.093 A 
HETATM    5  C3  UNK     1      18.297   3.067  32.091  1.00  0.00     0.127 A 
HETATM    6  C4  UNK     1      18.663   1.944  31.194  1.00  0.00     0.218 A 
HETATM    7  C5  UNK     1      18.469   0.453  34.481  1.00  0.00     0.075 A 
HETATM    8  C6  UNK     1      19.062  -0.508  31.865  1.00  0.00     0.021 A 
HETATM    9  C7  UNK     1      18.778  -0.894  34.260  1.00  0.00     0.082 A 
HETATM   10  C8  UNK     1      18.103   4.323  31.683  1.00  0.00     0.053 C 
HETATM   11  C9  UNK     1      19.071  -1.369  32.965  1.00  0.00     0.038 A 
ENDROOT
BRANCH   9  12
HETATM   12  O2  UNK     1      18.795  -1.761  35.311  1.00  0.00    -0.275 OA
BRANCH  12  13
HETATM   13  C17 UNK     1      20.076  -2.114  35.742  1.00  0.00     0.298 C 
HETATM   14  O6  UNK     1      21.055  -1.382  35.741  1.00  0.00    -0.259 OA
BRANCH  13  15
HETATM   15  C13 UNK     1      20.110  -3.517  36.227  1.00  0.00     0.040 A 
HETATM   16  C18 UNK     1      20.432  -3.758  37.546  1.00  0.00     0.020 A 
HETATM   17  C21 UNK     1      20.464  -5.076  38.002  1.00  0.00     0.038 A 
HETATM   18  C20 UNK     1      20.173  -6.124  37.128  1.00  0.00     0.068 A 
HETATM   19  C22 UNK     1      19.851  -5.854  35.799  1.00  0.00     0.038 A 
HETATM   20  C19 UNK     1      19.818  -4.536  35.343  1.00  0.00     0.020 A 
BRANCH  18  21
HETATM   21  O5  UNK     1      20.203  -7.409  37.574  1.00  0.00    -0.356 OA
HETATM   22  C24 UNK     1      18.949  -8.034  37.843  1.00  0.00     0.210 C 
ENDBRANCH  18  21
ENDBRANCH  13  15
ENDBRANCH  12  13
ENDBRANCH   9  12
BRANCH  10  23
HETATM   23  C10 UNK     1      17.739   5.464  32.544  1.00  0.00    -0.033 A 
HETATM   24  C12 UNK     1      18.637   5.903  33.501  1.00  0.00     0.014 A 
HETATM   25  C15 UNK     1      18.294   6.982  34.315  1.00  0.00     0.037 A 
HETATM   26  C16 UNK     1      17.057   7.608  34.159  1.00  0.00     0.068 A 
HETATM   27  C14 UNK     1      16.163   7.153  33.190  1.00  0.00     0.037 A 
HETATM   28  C11 UNK     1      16.507   6.074  32.376  1.00  0.00     0.014 A 
BRANCH  26  29
HETATM   29  O4  UNK     1      16.722   8.662  34.953  1.00  0.00    -0.356 OA
HETATM   30  C23 UNK     1      15.857   9.647  34.392  1.00  0.00     0.210 C 
ENDBRANCH  26  29
ENDBRANCH  10  23
TORSDOF 6
ENDMDL
