MODEL 1
REMARK VINA RESULT:      -6.8      0.000      0.000
REMARK  3 active torsions:
REMARK  status: ('A' for Active; 'I' for Inactive)
REMARK    1  A    between atoms: C3_7  and  O2_2 
REMARK    2  A    between atoms: C9_13  and  O2_2 
REMARK    3  A    between atoms: C5_9  and  O3_3 
ROOT
HETATM    1  O1  UNK     1      20.590  -2.449  32.319  1.00  0.00    -0.275 OA
HETATM    2  O4  UNK     1      20.551  -3.225  34.472  1.00  0.00    -0.260 OA
HETATM    3  C1  UNK     1      19.294  -0.459  31.729  1.00  0.00     0.034 A 
HETATM    4  C2  UNK     1      20.169  -1.490  31.374  1.00  0.00     0.092 A 
HETATM    5  C3  UNK     1      18.818  -0.418  33.116  1.00  0.00     0.087 A 
HETATM    6  C4  UNK     1      18.947   0.464  30.734  1.00  0.00     0.053 A 
HETATM    7  C5  UNK     1      19.454   0.341  29.434  1.00  0.00     0.069 A 
HETATM    8  C6  UNK     1      20.681  -1.626  30.082  1.00  0.00     0.041 A 
HETATM    9  C7  UNK     1      19.240  -1.327  34.001  1.00  0.00     0.120 A 
HETATM   10  C8  UNK     1      20.317  -0.704  29.108  1.00  0.00     0.039 A 
HETATM   11  C10 UNK     1      20.173  -2.406  33.642  1.00  0.00     0.290 A 
ENDROOT
BRANCH   5  12
HETATM   12  O2  UNK     1      17.925   0.557  33.515  1.00  0.00    -0.350 OA
BRANCH  12  13
HETATM   13  C9  UNK     1      17.582   0.393  34.876  1.00  0.00     0.171 C 
HETATM   14  C11 UNK     1      16.082   0.231  34.991  1.00  0.00     0.034 C 
ENDBRANCH  12  13
ENDBRANCH   5  12
BRANCH   7  15
HETATM   15  O3  UNK     1      19.101   1.248  28.481  1.00  0.00    -0.356 OA
HETATM   16  C12 UNK     1      17.910   1.998  28.709  1.00  0.00     0.210 C 
ENDBRANCH   7  15
TORSDOF 3
ENDMDL
MODEL 2
REMARK VINA RESULT:      -6.5      1.658      4.574
REMARK  3 active torsions:
REMARK  status: ('A' for Active; 'I' for Inactive)
REMARK    1  A    between atoms: C3_7  and  O2_2 
REMARK    2  A    between atoms: C9_13  and  O2_2 
REMARK    3  A    between atoms: C5_9  and  O3_3 
ROOT
HETATM    1  O1  UNK     1      19.082   0.814  28.553  1.00  0.00    -0.275 OA
HETATM    2  O4  UNK     1      17.932   2.710  27.986  1.00  0.00    -0.260 OA
HETATM    3  C1  UNK     1      19.334   0.214  30.911  1.00  0.00     0.034 A 
HETATM    4  C2  UNK     1      19.556  -0.056  29.558  1.00  0.00     0.092 A 
HETATM    5  C3  UNK     1      18.603   1.439  31.250  1.00  0.00     0.087 A 
HETATM    6  C4  UNK     1      19.818  -0.716  31.842  1.00  0.00     0.053 A 
HETATM    7  C5  UNK     1      20.507  -1.860  31.420  1.00  0.00     0.069 A 
HETATM    8  C6  UNK     1      20.243  -1.191  29.122  1.00  0.00     0.041 A 
HETATM    9  C7  UNK     1      18.149   2.243  30.283  1.00  0.00     0.120 A 
HETATM   10  C8  UNK     1      20.721  -2.096  30.063  1.00  0.00     0.039 A 
HETATM   11  C10 UNK     1      18.363   1.961  28.856  1.00  0.00     0.290 A 
ENDROOT
BRANCH   5  12
HETATM   12  O2  UNK     1      18.386   1.775  32.572  1.00  0.00    -0.350 OA
BRANCH  12  13
HETATM   13  C9  UNK     1      18.125   3.158  32.700  1.00  0.00     0.171 C 
HETATM   14  C11 UNK     1      18.332   3.567  34.143  1.00  0.00     0.034 C 
ENDBRANCH  12  13
ENDBRANCH   5  12
BRANCH   7  15
HETATM   15  O3  UNK     1      20.971  -2.748  32.342  1.00  0.00    -0.356 OA
HETATM   16  C12 UNK     1      20.523  -2.584  33.685  1.00  0.00     0.210 C 
ENDBRANCH   7  15
TORSDOF 3
ENDMDL
MODEL 3
REMARK VINA RESULT:      -6.4     12.767     15.934
REMARK  3 active torsions:
REMARK  status: ('A' for Active; 'I' for Inactive)
REMARK    1  A    between atoms: C3_7  and  O2_2 
REMARK    2  A    between atoms: C9_13  and  O2_2 
REMARK    3  A    between atoms: C5_9  and  O3_3 
ROOT
HETATM    1  O1  UNK     1      19.381   1.219  15.096  1.00  0.00    -0.275 OA
HETATM    2  O4  UNK     1      19.448   3.272  16.104  1.00  0.00    -0.260 OA
HETATM    3  C1  UNK     1      18.960  -0.777  16.447  1.00  0.00     0.034 A 
HETATM    4  C2  UNK     1      19.201  -0.177  15.208  1.00  0.00     0.092 A 
HETATM    5  C3  UNK     1      18.915   0.092  17.628  1.00  0.00     0.087 A 
HETATM    6  C4  UNK     1      18.768  -2.165  16.465  1.00  0.00     0.053 A 
HETATM    7  C5  UNK     1      18.830  -2.912  15.282  1.00  0.00     0.069 A 
HETATM    8  C6  UNK     1      19.267  -0.908  14.021  1.00  0.00     0.041 A 
HETATM    9  C7  UNK     1      19.074   1.414  17.499  1.00  0.00     0.120 A 
HETATM   10  C8  UNK     1      19.082  -2.285  14.062  1.00  0.00     0.039 A 
HETATM   11  C10 UNK     1      19.312   2.058  16.199  1.00  0.00     0.290 A 
ENDROOT
BRANCH   5  12
HETATM   12  O2  UNK     1      18.716  -0.450  18.882  1.00  0.00    -0.350 OA
BRANCH  12  13
HETATM   13  C9  UNK     1      18.522   0.569  19.842  1.00  0.00     0.171 C 
HETATM   14  C11 UNK     1      19.527   0.391  20.960  1.00  0.00     0.034 C 
ENDBRANCH  12  13
ENDBRANCH   5  12
BRANCH   7  15
HETATM   15  O3  UNK     1      18.644  -4.260  15.322  1.00  0.00    -0.356 OA
HETATM   16  C12 UNK     1      18.122  -4.879  14.149  1.00  0.00     0.210 C 
ENDBRANCH   7  15
TORSDOF 3
ENDMDL
MODEL 4
REMARK VINA RESULT:      -6.4     11.602     14.310
REMARK  3 active torsions:
REMARK  status: ('A' for Active; 'I' for Inactive)
REMARK    1  A    between atoms: C3_7  and  O2_2 
REMARK    2  A    between atoms: C9_13  and  O2_2 
REMARK    3  A    between atoms: C5_9  and  O3_3 
ROOT
HETATM    1  O1  UNK     1      28.103  -4.813  38.763  1.00  0.00    -0.275 OA
HETATM    2  O4  UNK     1      25.821  -4.972  38.841  1.00  0.00    -0.260 OA
HETATM    3  C1  UNK     1      29.442  -6.825  38.381  1.00  0.00     0.034 A 
HETATM    4  C2  UNK     1      29.353  -5.446  38.592  1.00  0.00     0.092 A 
HETATM    5  C3  UNK     1      28.192  -7.592  38.357  1.00  0.00     0.087 A 
HETATM    6  C4  UNK     1      30.721  -7.367  38.196  1.00  0.00     0.053 A 
HETATM    7  C5  UNK     1      31.858  -6.551  38.236  1.00  0.00     0.069 A 
HETATM    8  C6  UNK     1      30.478  -4.620  38.636  1.00  0.00     0.041 A 
HETATM    9  C7  UNK     1      27.017  -6.972  38.506  1.00  0.00     0.120 A 
HETATM   10  C8  UNK     1      31.737  -5.180  38.459  1.00  0.00     0.039 A 
HETATM   11  C10 UNK     1      26.910  -5.520  38.713  1.00  0.00     0.290 A 
ENDROOT
BRANCH   5  12
HETATM   12  O2  UNK     1      28.222  -8.962  38.187  1.00  0.00    -0.350 OA
BRANCH  12  13
HETATM   13  C9  UNK     1      27.242  -9.587  38.992  1.00  0.00     0.171 C 
HETATM   14  C11 UNK     1      27.907 -10.159  40.225  1.00  0.00     0.034 C 
ENDBRANCH  12  13
ENDBRANCH   5  12
BRANCH   7  15
HETATM   15  O3  UNK     1      33.091  -7.100  38.057  1.00  0.00    -0.356 OA
HETATM   16  C12 UNK     1      34.146  -6.219  37.677  1.00  0.00     0.210 C 
ENDBRANCH   7  15
TORSDOF 3
ENDMDL
MODEL 5
REMARK VINA RESULT:      -6.3      7.618     10.767
REMARK  3 active torsions:
REMARK  status: ('A' for Active; 'I' for Inactive)
REMARK    1  A    between atoms: C3_7  and  O2_2 
REMARK    2  A    between atoms: C9_13  and  O2_2 
REMARK    3  A    between atoms: C5_9  and  O3_3 
ROOT
HETATM    1  O1  UNK     1      19.575  -9.694  39.181  1.00  0.00    -0.275 OA
HETATM    2  O4  UNK     1      19.132 -11.925  38.923  1.00  0.00    -0.260 OA
HETATM    3  C1  UNK     1      20.732  -8.478  37.400  1.00  0.00     0.034 A 
HETATM    4  C2  UNK     1      20.115  -8.501  38.654  1.00  0.00     0.092 A 
HETATM    5  C3  UNK     1      20.812  -9.741  36.658  1.00  0.00     0.087 A 
HETATM    6  C4  UNK     1      21.218  -7.247  36.943  1.00  0.00     0.053 A 
HETATM    7  C5  UNK     1      21.095  -6.092  37.727  1.00  0.00     0.069 A 
HETATM    8  C6  UNK     1      19.986  -7.359  39.447  1.00  0.00     0.041 A 
HETATM    9  C7  UNK     1      20.282 -10.858  37.167  1.00  0.00     0.120 A 
HETATM   10  C8  UNK     1      20.483  -6.149  38.978  1.00  0.00     0.039 A 
HETATM   11  C10 UNK     1      19.616 -10.890  38.478  1.00  0.00     0.290 A 
ENDROOT
BRANCH   5  12
HETATM   12  O2  UNK     1      21.442  -9.786  35.430  1.00  0.00    -0.350 OA
BRANCH  12  13
HETATM   13  C9  UNK     1      22.022 -11.056  35.212  1.00  0.00     0.171 C 
HETATM   14  C11 UNK     1      23.426 -11.060  35.776  1.00  0.00     0.034 C 
ENDBRANCH  12  13
ENDBRANCH   5  12
BRANCH   7  15
HETATM   15  O3  UNK     1      21.577  -4.906  37.264  1.00  0.00    -0.356 OA
HETATM   16  C12 UNK     1      20.668  -3.809  37.218  1.00  0.00     0.210 C 
ENDBRANCH   7  15
TORSDOF 3
ENDMDL
MODEL 6
REMARK VINA RESULT:      -6.3      4.251      6.205
REMARK  3 active torsions:
REMARK  status: ('A' for Active; 'I' for Inactive)
REMARK    1  A    between atoms: C3_7  and  O2_2 
REMARK    2  A    between atoms: C9_13  and  O2_2 
REMARK    3  A    between atoms: C5_9  and  O3_3 
ROOT
HETATM    1  O1  UNK     1      19.049   3.987  30.159  1.00  0.00    -0.275 OA
HETATM    2  O4  UNK     1      19.027   1.935  29.146  1.00  0.00    -0.260 OA
HETATM    3  C1  UNK     1      18.302   4.196  32.480  1.00  0.00     0.034 A 
HETATM    4  C2  UNK     1      18.812   4.768  31.310  1.00  0.00     0.092 A 
HETATM    5  C3  UNK     1      18.009   2.759  32.462  1.00  0.00     0.087 A 
HETATM    6  C4  UNK     1      18.121   5.040  33.584  1.00  0.00     0.053 A 
HETATM    7  C5  UNK     1      18.430   6.404  33.502  1.00  0.00     0.069 A 
HETATM    8  C6  UNK     1      19.124   6.126  31.214  1.00  0.00     0.041 A 
HETATM    9  C7  UNK     1      18.254   2.033  31.367  1.00  0.00     0.120 A 
HETATM   10  C8  UNK     1      18.928   6.946  32.319  1.00  0.00     0.039 A 
HETATM   11  C10 UNK     1      18.805   2.622  30.137  1.00  0.00     0.290 A 
ENDROOT
BRANCH   5  12
HETATM   12  O2  UNK     1      17.470   2.148  33.578  1.00  0.00    -0.350 OA
BRANCH  12  13
HETATM   13  C9  UNK     1      18.383   1.220  34.128  1.00  0.00     0.171 C 
HETATM   14  C11 UNK     1      18.705   1.629  35.550  1.00  0.00     0.034 C 
ENDBRANCH  12  13
ENDBRANCH   5  12
BRANCH   7  15
HETATM   15  O3  UNK     1      18.243   7.205  34.587  1.00  0.00    -0.356 OA
HETATM   16  C12 UNK     1      16.897   7.470  34.975  1.00  0.00     0.210 C 
ENDBRANCH   7  15
TORSDOF 3
ENDMDL
MODEL 7
REMARK VINA RESULT:      -6.1      3.549      6.341
REMARK  3 active torsions:
REMARK  status: ('A' for Active; 'I' for Inactive)
REMARK    1  A    between atoms: C3_7  and  O2_2 
REMARK    2  A    between atoms: C9_13  and  O2_2 
REMARK    3  A    between atoms: C5_9  and  O3_3 
ROOT
HETATM    1  O1  UNK     1      18.282   1.574  31.743  1.00  0.00    -0.275 OA
HETATM    2  O4  UNK     1      18.148   2.597  29.700  1.00  0.00    -0.260 OA
HETATM    3  C1  UNK     1      18.326   2.937  33.775  1.00  0.00     0.034 A 
HETATM    4  C2  UNK     1      18.331   1.687  33.149  1.00  0.00     0.092 A 
HETATM    5  C3  UNK     1      18.282   4.127  32.918  1.00  0.00     0.087 A 
HETATM    6  C4  UNK     1      18.351   2.957  35.176  1.00  0.00     0.053 A 
HETATM    7  C5  UNK     1      18.393   1.764  35.909  1.00  0.00     0.069 A 
HETATM    8  C6  UNK     1      18.373   0.490  33.867  1.00  0.00     0.041 A 
HETATM    9  C7  UNK     1      18.222   4.000  31.589  1.00  0.00     0.120 A 
HETATM   10  C8  UNK     1      18.406   0.533  35.255  1.00  0.00     0.039 A 
HETATM   11  C10 UNK     1      18.210   2.689  30.921  1.00  0.00     0.290 A 
ENDROOT
BRANCH   5  12
HETATM   12  O2  UNK     1      18.311   5.388  33.480  1.00  0.00    -0.350 OA
BRANCH  12  13
HETATM   13  C9  UNK     1      18.891   6.319  32.589  1.00  0.00     0.171 C 
HETATM   14  C11 UNK     1      20.238   6.747  33.130  1.00  0.00     0.034 C 
ENDBRANCH  12  13
ENDBRANCH   5  12
BRANCH   7  15
HETATM   15  O3  UNK     1      18.420   1.807  37.270  1.00  0.00    -0.356 OA
HETATM   16  C12 UNK     1      17.655   0.826  37.966  1.00  0.00     0.210 C 
ENDBRANCH   7  15
TORSDOF 3
ENDMDL
MODEL 8
REMARK VINA RESULT:      -6.1      1.689      5.057
REMARK  3 active torsions:
REMARK  status: ('A' for Active; 'I' for Inactive)
REMARK    1  A    between atoms: C3_7  and  O2_2 
REMARK    2  A    between atoms: C9_13  and  O2_2 
REMARK    3  A    between atoms: C5_9  and  O3_3 
ROOT
HETATM    1  O1  UNK     1      20.438  -2.822  34.144  1.00  0.00    -0.275 OA
HETATM    2  O4  UNK     1      21.507  -3.601  32.277  1.00  0.00    -0.260 OA
HETATM    3  C1  UNK     1      18.844  -0.975  33.941  1.00  0.00     0.034 A 
HETATM    4  C2  UNK     1      19.511  -1.926  34.720  1.00  0.00     0.092 A 
HETATM    5  C3  UNK     1      19.153  -0.932  32.508  1.00  0.00     0.087 A 
HETATM    6  C4  UNK     1      17.923  -0.143  34.589  1.00  0.00     0.053 A 
HETATM    7  C5  UNK     1      17.696  -0.260  35.967  1.00  0.00     0.069 A 
HETATM    8  C6  UNK     1      19.296  -2.054  36.094  1.00  0.00     0.041 A 
HETATM    9  C7  UNK     1      20.023  -1.798  31.978  1.00  0.00     0.120 A 
HETATM   10  C8  UNK     1      18.383  -1.212  36.718  1.00  0.00     0.039 A 
HETATM   11  C10 UNK     1      20.718  -2.813  32.785  1.00  0.00     0.290 A 
ENDROOT
BRANCH   5  12
HETATM   12  O2  UNK     1      18.551   0.010  31.697  1.00  0.00    -0.350 OA
BRANCH  12  13
HETATM   13  C9  UNK     1      19.501   0.612  30.840  1.00  0.00     0.171 C 
HETATM   14  C11 UNK     1      18.777   1.478  29.832  1.00  0.00     0.034 C 
ENDBRANCH  12  13
ENDBRANCH   5  12
BRANCH   7  15
HETATM   15  O3  UNK     1      16.797   0.562  36.576  1.00  0.00    -0.356 OA
HETATM   16  C12 UNK     1      17.241   1.263  37.736  1.00  0.00     0.210 C 
ENDBRANCH   7  15
TORSDOF 3
ENDMDL
MODEL 9
REMARK VINA RESULT:      -6.1      6.427      7.792
REMARK  3 active torsions:
REMARK  status: ('A' for Active; 'I' for Inactive)
REMARK    1  A    between atoms: C3_7  and  O2_2 
REMARK    2  A    between atoms: C9_13  and  O2_2 
REMARK    3  A    between atoms: C5_9  and  O3_3 
ROOT
HETATM    1  O1  UNK     1      20.333   7.665  33.257  1.00  0.00    -0.275 OA
HETATM    2  O4  UNK     1      20.465   9.448  34.687  1.00  0.00    -0.260 OA
HETATM    3  C1  UNK     1      18.311   6.288  33.228  1.00  0.00     0.034 A 
HETATM    4  C2  UNK     1      19.588   6.582  32.743  1.00  0.00     0.092 A 
HETATM    5  C3  UNK     1      17.778   7.135  34.300  1.00  0.00     0.087 A 
HETATM    6  C4  UNK     1      17.632   5.211  32.643  1.00  0.00     0.053 A 
HETATM    7  C5  UNK     1      18.226   4.458  31.622  1.00  0.00     0.069 A 
HETATM    8  C6  UNK     1      20.194   5.840  31.726  1.00  0.00     0.041 A 
HETATM    9  C7  UNK     1      18.492   8.165  34.764  1.00  0.00     0.120 A 
HETATM   10  C8  UNK     1      19.506   4.770  31.167  1.00  0.00     0.039 A 
HETATM   11  C10 UNK     1      19.831   8.494  34.250  1.00  0.00     0.290 A 
ENDROOT
BRANCH   5  12
HETATM   12  O2  UNK     1      16.536   6.870  34.842  1.00  0.00    -0.350 OA
BRANCH  12  13
HETATM   13  C9  UNK     1      15.635   7.924  34.569  1.00  0.00     0.171 C 
HETATM   14  C11 UNK     1      14.573   7.430  33.611  1.00  0.00     0.034 C 
ENDBRANCH  12  13
ENDBRANCH   5  12
BRANCH   7  15
HETATM   15  O3  UNK     1      17.548   3.413  31.071  1.00  0.00    -0.356 OA
HETATM   16  C12 UNK     1      18.272   2.569  30.178  1.00  0.00     0.210 C 
ENDBRANCH   7  15
TORSDOF 3
ENDMDL
MODEL 10
REMARK VINA RESULT:      -6.1     25.716     26.897
REMARK  3 active torsions:
REMARK  status: ('A' for Active; 'I' for Inactive)
REMARK    1  A    between atoms: C3_7  and  O2_2 
REMARK    2  A    between atoms: C9_13  and  O2_2 
REMARK    3  A    between atoms: C5_9  and  O3_3 
ROOT
HETATM    1  O1  UNK     1       7.287   6.752   8.244  1.00  0.00    -0.275 OA
HETATM    2  O4  UNK     1       5.742   7.371   9.814  1.00  0.00    -0.260 OA
HETATM    3  C1  UNK     1       9.599   7.528   8.453  1.00  0.00     0.034 A 
HETATM    4  C2  UNK     1       8.619   6.793   7.779  1.00  0.00     0.092 A 
HETATM    5  C3  UNK     1       9.190   8.266   9.653  1.00  0.00     0.087 A 
HETATM    6  C4  UNK     1      10.900   7.495   7.936  1.00  0.00     0.053 A 
HETATM    7  C5  UNK     1      11.194   6.760   6.780  1.00  0.00     0.069 A 
HETATM    8  C6  UNK     1       8.896   6.057   6.625  1.00  0.00     0.041 A 
HETATM    9  C7  UNK     1       7.927   8.202  10.087  1.00  0.00     0.120 A 
HETATM   10  C8  UNK     1      10.193   6.044   6.124  1.00  0.00     0.039 A 
HETATM   11  C10 UNK     1       6.892   7.419   9.394  1.00  0.00     0.290 A 
ENDROOT
BRANCH   5  12
HETATM   12  O2  UNK     1      10.107   9.037  10.339  1.00  0.00    -0.350 OA
BRANCH  12  13
HETATM   13  C9  UNK     1       9.525  10.257  10.752  1.00  0.00     0.171 C 
HETATM   14  C11 UNK     1       9.827  11.322   9.720  1.00  0.00     0.034 C 
ENDBRANCH  12  13
ENDBRANCH   5  12
BRANCH   7  15
HETATM   15  O3  UNK     1      12.465   6.743   6.293  1.00  0.00    -0.356 OA
HETATM   16  C12 UNK     1      13.525   6.824   7.243  1.00  0.00     0.210 C 
ENDBRANCH   7  15
TORSDOF 3
ENDMDL
