MODEL 1
REMARK VINA RESULT:      -9.9      0.000      0.000
REMARK  3 active torsions:
REMARK  status: ('A' for Active; 'I' for Inactive)
REMARK    1  A    between atoms: C4_9  and  O2_2 
REMARK    2  A    between atoms: C2_7  and  N1_5 
REMARK       I    between atoms: C8_13  and  N1_5 
REMARK    3  A    between atoms: C1_6  and  C8_13 
ROOT
HETATM    1  O3  UNK     1      17.428   2.033  29.656  1.00  0.00    -0.267 OA
HETATM    2  N1  UNK     1      19.266   2.930  30.814  1.00  0.00    -0.323 N 
HETATM    3  C8  UNK     1      18.556   1.938  30.128  1.00  0.00     0.259 C 
HETATM    4  H2  UNK     1      20.215   2.720  31.112  1.00  0.00     0.169 HD
ENDROOT
BRANCH   2   5
HETATM    5  C2  UNK     1      18.858   4.231  31.108  1.00  0.00     0.035 A 
HETATM    6  C6  UNK     1      18.279   4.516  32.348  1.00  0.00     0.043 A 
HETATM    7  C3  UNK     1      17.869   5.818  32.644  1.00  0.00     0.000 A 
HETATM    8  C14 UNK     1      17.263   6.169  33.917  1.00  0.00     0.020 A 
HETATM    9  C7  UNK     1      18.047   6.814  31.688  1.00  0.00     0.089 A 
HETATM   10  C16 UNK     1      16.885   7.427  34.158  1.00  0.00     0.083 A 
HETATM   11  C17 UNK     1      17.063   8.499  33.160  1.00  0.00     0.288 A 
HETATM   12  O1  UNK     1      17.645   8.140  31.949  1.00  0.00    -0.275 OA
HETATM   13  O4  UNK     1      16.711   9.650  33.396  1.00  0.00    -0.260 OA
HETATM   14  C11 UNK     1      18.623   6.545  30.448  1.00  0.00     0.040 A 
HETATM   15  C9  UNK     1      19.029   5.244  30.160  1.00  0.00     0.032 A 
ENDBRANCH   2   5
BRANCH   3  16
HETATM   16  C1  UNK     1      19.253   0.631  29.994  1.00  0.00     0.066 A 
HETATM   17  C4  UNK     1      19.631  -0.065  31.124  1.00  0.00     0.089 A 
HETATM   18  C5  UNK     1      20.284  -1.288  30.975  1.00  0.00    -0.028 A 
HETATM   19  C12 UNK     1      20.546  -1.789  29.700  1.00  0.00     0.009 A 
HETATM   20  C15 UNK     1      20.711  -2.078  32.169  1.00  0.00     0.051 C 
HETATM   21  C13 UNK     1      20.154  -1.066  28.573  1.00  0.00     0.002 A 
HETATM   22  C10 UNK     1      19.501   0.157  28.721  1.00  0.00     0.020 A 
BRANCH  17  23
HETATM   23  O2  UNK     1      19.376   0.422  32.373  1.00  0.00    -0.354 OA
HETATM   24  C18 UNK     1      18.279  -0.153  33.078  1.00  0.00     0.210 C 
ENDBRANCH  17  23
ENDBRANCH   3  16
TORSDOF 3
ENDMDL
MODEL 2
REMARK VINA RESULT:      -8.7      6.730      9.774
REMARK  3 active torsions:
REMARK  status: ('A' for Active; 'I' for Inactive)
REMARK    1  A    between atoms: C4_9  and  O2_2 
REMARK    2  A    between atoms: C2_7  and  N1_5 
REMARK       I    between atoms: C8_13  and  N1_5 
REMARK    3  A    between atoms: C1_6  and  C8_13 
ROOT
HETATM    1  O3  UNK     1      21.929  -4.969  37.560  1.00  0.00    -0.267 OA
HETATM    2  N1  UNK     1      19.624  -4.822  37.123  1.00  0.00    -0.323 N 
HETATM    3  C8  UNK     1      20.800  -5.450  37.550  1.00  0.00     0.259 C 
HETATM    4  H2  UNK     1      18.749  -5.333  37.213  1.00  0.00     0.169 HD
ENDROOT
BRANCH   2   5
HETATM    5  C2  UNK     1      19.472  -3.529  36.622  1.00  0.00     0.035 A 
HETATM    6  C6  UNK     1      18.745  -2.581  37.348  1.00  0.00     0.043 A 
HETATM    7  C3  UNK     1      18.592  -1.286  36.849  1.00  0.00     0.000 A 
HETATM    8  C14 UNK     1      17.847  -0.263  37.563  1.00  0.00     0.020 A 
HETATM    9  C7  UNK     1      19.172  -0.963  35.626  1.00  0.00     0.089 A 
HETATM   10  C16 UNK     1      17.725   0.963  37.047  1.00  0.00     0.083 A 
HETATM   11  C17 UNK     1      18.331   1.328  35.753  1.00  0.00     0.288 A 
HETATM   12  O1  UNK     1      19.039   0.333  35.087  1.00  0.00    -0.275 OA
HETATM   13  O4  UNK     1      18.210   2.459  35.292  1.00  0.00    -0.260 OA
HETATM   14  C11 UNK     1      19.899  -1.897  34.891  1.00  0.00     0.040 A 
HETATM   15  C9  UNK     1      20.048  -3.187  35.396  1.00  0.00     0.032 A 
ENDBRANCH   2   5
BRANCH   3  16
HETATM   16  C1  UNK     1      20.642  -6.855  38.010  1.00  0.00     0.066 A 
HETATM   17  C4  UNK     1      20.993  -7.896  37.174  1.00  0.00     0.089 A 
HETATM   18  C5  UNK     1      20.837  -9.206  37.626  1.00  0.00    -0.028 A 
HETATM   19  C12 UNK     1      20.332  -9.447  38.904  1.00  0.00     0.009 A 
HETATM   20  C15 UNK     1      21.204 -10.363  36.757  1.00  0.00     0.051 C 
HETATM   21  C13 UNK     1      19.985  -8.378  39.730  1.00  0.00     0.002 A 
HETATM   22  C10 UNK     1      20.141  -7.068  39.278  1.00  0.00     0.020 A 
BRANCH  17  23
HETATM   23  O2  UNK     1      21.487  -7.663  35.924  1.00  0.00    -0.354 OA
HETATM   24  C18 UNK     1      20.539  -7.541  34.867  1.00  0.00     0.210 C 
ENDBRANCH  17  23
ENDBRANCH   3  16
TORSDOF 3
ENDMDL
MODEL 3
REMARK VINA RESULT:      -8.5      1.104      2.127
REMARK  3 active torsions:
REMARK  status: ('A' for Active; 'I' for Inactive)
REMARK    1  A    between atoms: C4_9  and  O2_2 
REMARK    2  A    between atoms: C2_7  and  N1_5 
REMARK       I    between atoms: C8_13  and  N1_5 
REMARK    3  A    between atoms: C1_6  and  C8_13 
ROOT
HETATM    1  O3  UNK     1      17.430   1.996  32.992  1.00  0.00    -0.267 OA
HETATM    2  N1  UNK     1      18.839   3.164  31.516  1.00  0.00    -0.323 N 
HETATM    3  C8  UNK     1      18.316   2.027  32.145  1.00  0.00     0.259 C 
HETATM    4  H2  UNK     1      19.547   3.031  30.798  1.00  0.00     0.169 HD
ENDROOT
BRANCH   2   5
HETATM    5  C2  UNK     1      18.473   4.496  31.708  1.00  0.00     0.035 A 
HETATM    6  C6  UNK     1      17.966   4.909  32.943  1.00  0.00     0.043 A 
HETATM    7  C3  UNK     1      17.598   6.242  33.136  1.00  0.00     0.000 A 
HETATM    8  C14 UNK     1      17.067   6.725  34.400  1.00  0.00     0.020 A 
HETATM    9  C7  UNK     1      17.745   7.141  32.084  1.00  0.00     0.089 A 
HETATM   10  C16 UNK     1      16.727   8.009  34.540  1.00  0.00     0.083 A 
HETATM   11  C17 UNK     1      16.874   8.979  33.439  1.00  0.00     0.288 A 
HETATM   12  O1  UNK     1      17.384   8.495  32.239  1.00  0.00    -0.275 OA
HETATM   13  O4  UNK     1      16.557  10.155  33.583  1.00  0.00    -0.260 OA
HETATM   14  C11 UNK     1      18.249   6.744  30.847  1.00  0.00     0.040 A 
HETATM   15  C9  UNK     1      18.613   5.412  30.662  1.00  0.00     0.032 A 
ENDBRANCH   2   5
BRANCH   3  16
HETATM   16  C1  UNK     1      18.937   0.736  31.746  1.00  0.00     0.066 A 
HETATM   17  C4  UNK     1      19.396   0.564  30.456  1.00  0.00     0.089 A 
HETATM   18  C5  UNK     1      19.975  -0.656  30.104  1.00  0.00    -0.028 A 
HETATM   19  C12 UNK     1      20.082  -1.676  31.049  1.00  0.00     0.009 A 
HETATM   20  C15 UNK     1      20.487  -0.888  28.720  1.00  0.00     0.051 C 
HETATM   21  C13 UNK     1      19.609  -1.477  32.347  1.00  0.00     0.002 A 
HETATM   22  C10 UNK     1      19.031  -0.259  32.699  1.00  0.00     0.020 A 
BRANCH  17  23
HETATM   23  O2  UNK     1      19.294   1.560  29.530  1.00  0.00    -0.354 OA
HETATM   24  C18 UNK     1      18.145   1.543  28.687  1.00  0.00     0.210 C 
ENDBRANCH  17  23
ENDBRANCH   3  16
TORSDOF 3
ENDMDL
MODEL 4
REMARK VINA RESULT:      -8.5     14.124     18.178
REMARK  3 active torsions:
REMARK  status: ('A' for Active; 'I' for Inactive)
REMARK    1  A    between atoms: C4_9  and  O2_2 
REMARK    2  A    between atoms: C2_7  and  N1_5 
REMARK       I    between atoms: C8_13  and  N1_5 
REMARK    3  A    between atoms: C1_6  and  C8_13 
ROOT
HETATM    1  O3  UNK     1      17.266  -1.253  17.332  1.00  0.00    -0.267 OA
HETATM    2  N1  UNK     1      19.374  -1.272  16.292  1.00  0.00    -0.323 N 
HETATM    3  C8  UNK     1      18.438  -0.896  17.263  1.00  0.00     0.259 C 
HETATM    4  H2  UNK     1      20.327  -0.929  16.387  1.00  0.00     0.169 HD
ENDROOT
BRANCH   2   5
HETATM    5  C2  UNK     1      19.189  -2.125  15.203  1.00  0.00     0.035 A 
HETATM    6  C6  UNK     1      19.445  -1.667  13.908  1.00  0.00     0.043 A 
HETATM    7  C3  UNK     1      19.260  -2.518  12.817  1.00  0.00     0.000 A 
HETATM    8  C14 UNK     1      19.512  -2.094  11.450  1.00  0.00     0.020 A 
HETATM    9  C7  UNK     1      18.818  -3.818  13.045  1.00  0.00     0.089 A 
HETATM   10  C16 UNK     1      19.321  -2.942  10.436  1.00  0.00     0.083 A 
HETATM   11  C17 UNK     1      18.852  -4.324  10.654  1.00  0.00     0.288 A 
HETATM   12  O1  UNK     1      18.617  -4.708  11.969  1.00  0.00    -0.275 OA
HETATM   13  O4  UNK     1      18.681  -5.092   9.712  1.00  0.00    -0.260 OA
HETATM   14  C11 UNK     1      18.558  -4.289  14.330  1.00  0.00     0.040 A 
HETATM   15  C9  UNK     1      18.746  -3.433  15.413  1.00  0.00     0.032 A 
ENDBRANCH   2   5
BRANCH   3  16
HETATM   16  C1  UNK     1      18.933   0.056  18.291  1.00  0.00     0.066 A 
HETATM   17  C4  UNK     1      19.014   1.403  17.999  1.00  0.00     0.089 A 
HETATM   18  C5  UNK     1      19.481   2.278  18.979  1.00  0.00    -0.028 A 
HETATM   19  C12 UNK     1      19.859   1.788  20.229  1.00  0.00     0.009 A 
HETATM   20  C15 UNK     1      19.585   3.743  18.709  1.00  0.00     0.051 C 
HETATM   21  C13 UNK     1      19.768   0.423  20.500  1.00  0.00     0.002 A 
HETATM   22  C10 UNK     1      19.301  -0.452  19.521  1.00  0.00     0.020 A 
BRANCH  17  23
HETATM   23  O2  UNK     1      18.645   1.885  16.777  1.00  0.00    -0.354 OA
HETATM   24  C18 UNK     1      19.693   2.225  15.874  1.00  0.00     0.210 C 
ENDBRANCH  17  23
ENDBRANCH   3  16
TORSDOF 3
ENDMDL
MODEL 5
REMARK VINA RESULT:      -8.4      6.726     12.201
REMARK  3 active torsions:
REMARK  status: ('A' for Active; 'I' for Inactive)
REMARK    1  A    between atoms: C4_9  and  O2_2 
REMARK    2  A    between atoms: C2_7  and  N1_5 
REMARK       I    between atoms: C8_13  and  N1_5 
REMARK    3  A    between atoms: C1_6  and  C8_13 
ROOT
HETATM    1  O3  UNK     1      20.870  -2.842  36.229  1.00  0.00    -0.267 OA
HETATM    2  N1  UNK     1      18.874  -4.053  36.503  1.00  0.00    -0.323 N 
HETATM    3  C8  UNK     1      19.654  -2.897  36.380  1.00  0.00     0.259 C 
HETATM    4  H2  UNK     1      17.866  -3.945  36.581  1.00  0.00     0.169 HD
ENDROOT
BRANCH   2   5
HETATM    5  C2  UNK     1      19.297  -5.382  36.479  1.00  0.00     0.035 A 
HETATM    6  C6  UNK     1      19.218  -6.160  37.637  1.00  0.00     0.043 A 
HETATM    7  C3  UNK     1      19.642  -7.491  37.615  1.00  0.00     0.000 A 
HETATM    8  C14 UNK     1      19.580  -8.344  38.790  1.00  0.00     0.020 A 
HETATM    9  C7  UNK     1      20.141  -8.019  36.428  1.00  0.00     0.089 A 
HETATM   10  C16 UNK     1      19.997  -9.611  38.723  1.00  0.00     0.083 A 
HETATM   11  C17 UNK     1      20.530 -10.192  37.477  1.00  0.00     0.288 A 
HETATM   12  O1  UNK     1      20.580  -9.357  36.366  1.00  0.00    -0.275 OA
HETATM   13  O4  UNK     1      20.910 -11.357  37.431  1.00  0.00    -0.260 OA
HETATM   14  C11 UNK     1      20.226  -7.255  35.265  1.00  0.00     0.040 A 
HETATM   15  C9  UNK     1      19.801  -5.929  35.296  1.00  0.00     0.032 A 
ENDBRANCH   2   5
BRANCH   3  16
HETATM   16  C1  UNK     1      18.909  -1.613  36.474  1.00  0.00     0.066 A 
HETATM   17  C4  UNK     1      18.916  -0.735  35.409  1.00  0.00     0.089 A 
HETATM   18  C5  UNK     1      18.211   0.463  35.519  1.00  0.00    -0.028 A 
HETATM   19  C12 UNK     1      17.515   0.758  36.691  1.00  0.00     0.009 A 
HETATM   20  C15 UNK     1      18.188   1.443  34.392  1.00  0.00     0.051 C 
HETATM   21  C13 UNK     1      17.524  -0.146  37.754  1.00  0.00     0.002 A 
HETATM   22  C10 UNK     1      18.229  -1.343  37.644  1.00  0.00     0.020 A 
BRANCH  17  23
HETATM   23  O2  UNK     1      19.595  -1.021  34.261  1.00  0.00    -0.354 OA
HETATM   24  C18 UNK     1      18.817  -1.389  33.125  1.00  0.00     0.210 C 
ENDBRANCH  17  23
ENDBRANCH   3  16
TORSDOF 3
ENDMDL
MODEL 6
REMARK VINA RESULT:      -8.1     22.803     24.489
REMARK  3 active torsions:
REMARK  status: ('A' for Active; 'I' for Inactive)
REMARK    1  A    between atoms: C4_9  and  O2_2 
REMARK    2  A    between atoms: C2_7  and  N1_5 
REMARK       I    between atoms: C8_13  and  N1_5 
REMARK    3  A    between atoms: C1_6  and  C8_13 
ROOT
HETATM    1  O3  UNK     1      13.471   6.637   6.551  1.00  0.00    -0.267 OA
HETATM    2  N1  UNK     1      13.013   7.947   8.449  1.00  0.00    -0.323 N 
HETATM    3  C8  UNK     1      12.695   7.099   7.381  1.00  0.00     0.259 C 
HETATM    4  H2  UNK     1      12.267   8.217   9.085  1.00  0.00     0.169 HD
ENDROOT
BRANCH   2   5
HETATM    5  C2  UNK     1      14.266   8.448   8.804  1.00  0.00     0.035 A 
HETATM    6  C6  UNK     1      14.666   9.709   8.352  1.00  0.00     0.043 A 
HETATM    7  C3  UNK     1      15.920  10.212   8.706  1.00  0.00     0.000 A 
HETATM    8  C14 UNK     1      16.385  11.515   8.264  1.00  0.00     0.020 A 
HETATM    9  C7  UNK     1      16.753   9.439   9.510  1.00  0.00     0.089 A 
HETATM   10  C16 UNK     1      17.592  11.957   8.627  1.00  0.00     0.083 A 
HETATM   11  C17 UNK     1      18.492  11.156   9.477  1.00  0.00     0.288 A 
HETATM   12  O1  UNK     1      18.026   9.911   9.888  1.00  0.00    -0.275 OA
HETATM   13  O4  UNK     1      19.598  11.575   9.802  1.00  0.00    -0.260 OA
HETATM   14  C11 UNK     1      16.367   8.181   9.968  1.00  0.00     0.040 A 
HETATM   15  C9  UNK     1      15.115   7.686   9.610  1.00  0.00     0.032 A 
ENDBRANCH   2   5
BRANCH   3  16
HETATM   16  C1  UNK     1      11.254   6.758   7.245  1.00  0.00     0.066 A 
HETATM   17  C4  UNK     1      10.544   6.319   8.344  1.00  0.00     0.089 A 
HETATM   18  C5  UNK     1       9.194   6.006   8.193  1.00  0.00    -0.028 A 
HETATM   19  C12 UNK     1       8.582   6.138   6.947  1.00  0.00     0.009 A 
HETATM   20  C15 UNK     1       8.385   5.527   9.354  1.00  0.00     0.051 C 
HETATM   21  C13 UNK     1       9.321   6.584   5.851  1.00  0.00     0.002 A 
HETATM   22  C10 UNK     1      10.671   6.897   6.001  1.00  0.00     0.020 A 
BRANCH  17  23
HETATM   23  O2  UNK     1      11.140   6.189   9.565  1.00  0.00    -0.354 OA
HETATM   24  C18 UNK     1      11.742   4.932   9.859  1.00  0.00     0.210 C 
ENDBRANCH  17  23
ENDBRANCH   3  16
TORSDOF 3
ENDMDL
MODEL 7
REMARK VINA RESULT:      -8.0      6.119      9.187
REMARK  3 active torsions:
REMARK  status: ('A' for Active; 'I' for Inactive)
REMARK    1  A    between atoms: C4_9  and  O2_2 
REMARK    2  A    between atoms: C2_7  and  N1_5 
REMARK       I    between atoms: C8_13  and  N1_5 
REMARK    3  A    between atoms: C1_6  and  C8_13 
ROOT
HETATM    1  O3  UNK     1      21.509  -4.088  36.907  1.00  0.00    -0.267 OA
HETATM    2  N1  UNK     1      19.198  -3.906  37.295  1.00  0.00    -0.323 N 
HETATM    3  C8  UNK     1      20.448  -4.537  37.327  1.00  0.00     0.259 C 
HETATM    4  H2  UNK     1      18.409  -4.385  37.722  1.00  0.00     0.169 HD
ENDROOT
BRANCH   2   5
HETATM    5  C2  UNK     1      18.885  -2.644  36.790  1.00  0.00     0.035 A 
HETATM    6  C6  UNK     1      19.058  -2.376  35.429  1.00  0.00     0.043 A 
HETATM    7  C3  UNK     1      18.746  -1.113  34.921  1.00  0.00     0.000 A 
HETATM    8  C14 UNK     1      18.905  -0.781  33.516  1.00  0.00     0.020 A 
HETATM    9  C7  UNK     1      18.265  -0.138  35.790  1.00  0.00     0.089 A 
HETATM   10  C16 UNK     1      18.594   0.440  33.073  1.00  0.00     0.083 A 
HETATM   11  C17 UNK     1      18.084   1.490  33.976  1.00  0.00     0.288 A 
HETATM   12  O1  UNK     1      17.940   1.150  35.317  1.00  0.00    -0.275 OA
HETATM   13  O4  UNK     1      17.803   2.607  33.555  1.00  0.00    -0.260 OA
HETATM   14  C11 UNK     1      18.088  -0.390  37.150  1.00  0.00     0.040 A 
HETATM   15  C9  UNK     1      18.402  -1.653  37.648  1.00  0.00     0.032 A 
ENDBRANCH   2   5
BRANCH   3  16
HETATM   16  C1  UNK     1      20.457  -5.905  37.910  1.00  0.00     0.066 A 
HETATM   17  C4  UNK     1      19.634  -6.881  37.386  1.00  0.00     0.089 A 
HETATM   18  C5  UNK     1      19.659  -8.157  37.950  1.00  0.00    -0.028 A 
HETATM   19  C12 UNK     1      20.506  -8.428  39.024  1.00  0.00     0.009 A 
HETATM   20  C15 UNK     1      18.786  -9.245  37.416  1.00  0.00     0.051 C 
HETATM   21  C13 UNK     1      21.328  -7.424  39.536  1.00  0.00     0.002 A 
HETATM   22  C10 UNK     1      21.303  -6.149  38.973  1.00  0.00     0.020 A 
BRANCH  17  23
HETATM   23  O2  UNK     1      18.805  -6.619  36.335  1.00  0.00    -0.354 OA
HETATM   24  C18 UNK     1      19.300  -6.917  35.032  1.00  0.00     0.210 C 
ENDBRANCH  17  23
ENDBRANCH   3  16
TORSDOF 3
ENDMDL
MODEL 8
REMARK VINA RESULT:      -8.0     11.925     14.748
REMARK  3 active torsions:
REMARK  status: ('A' for Active; 'I' for Inactive)
REMARK    1  A    between atoms: C4_9  and  O2_2 
REMARK    2  A    between atoms: C2_7  and  N1_5 
REMARK       I    between atoms: C8_13  and  N1_5 
REMARK    3  A    between atoms: C1_6  and  C8_13 
ROOT
HETATM    1  O3  UNK     1      25.251  -6.585  38.703  1.00  0.00    -0.267 OA
HETATM    2  N1  UNK     1      24.039  -8.584  38.454  1.00  0.00    -0.323 N 
HETATM    3  C8  UNK     1      25.191  -7.809  38.637  1.00  0.00     0.259 C 
HETATM    4  H2  UNK     1      24.137  -9.596  38.461  1.00  0.00     0.169 HD
ENDROOT
BRANCH   2   5
HETATM    5  C2  UNK     1      22.722  -8.146  38.310  1.00  0.00     0.035 A 
HETATM    6  C6  UNK     1      22.146  -8.077  37.038  1.00  0.00     0.043 A 
HETATM    7  C3  UNK     1      20.828  -7.638  36.892  1.00  0.00     0.000 A 
HETATM    8  C14 UNK     1      20.180  -7.548  35.595  1.00  0.00     0.020 A 
HETATM    9  C7  UNK     1      20.110  -7.275  38.027  1.00  0.00     0.089 A 
HETATM   10  C16 UNK     1      18.918  -7.123  35.501  1.00  0.00     0.083 A 
HETATM   11  C17 UNK     1      18.137  -6.732  36.690  1.00  0.00     0.288 A 
HETATM   12  O1  UNK     1      18.777  -6.826  37.921  1.00  0.00    -0.275 OA
HETATM   13  O4  UNK     1      16.978  -6.343  36.589  1.00  0.00    -0.260 OA
HETATM   14  C11 UNK     1      20.671  -7.338  39.301  1.00  0.00     0.040 A 
HETATM   15  C9  UNK     1      21.986  -7.777  39.438  1.00  0.00     0.032 A 
ENDBRANCH   2   5
BRANCH   3  16
HETATM   16  C1  UNK     1      26.464  -8.571  38.731  1.00  0.00     0.066 A 
HETATM   17  C4  UNK     1      27.370  -8.527  37.691  1.00  0.00     0.089 A 
HETATM   18  C5  UNK     1      28.558  -9.250  37.801  1.00  0.00    -0.028 A 
HETATM   19  C12 UNK     1      28.813 -10.001  38.948  1.00  0.00     0.009 A 
HETATM   20  C15 UNK     1      29.569  -9.231  36.702  1.00  0.00     0.051 C 
HETATM   21  C13 UNK     1      27.881 -10.030  39.985  1.00  0.00     0.002 A 
HETATM   22  C10 UNK     1      26.694  -9.307  39.876  1.00  0.00     0.020 A 
BRANCH  17  23
HETATM   23  O2  UNK     1      27.123  -7.792  36.568  1.00  0.00    -0.354 OA
HETATM   24  C18 UNK     1      27.917  -6.624  36.374  1.00  0.00     0.210 C 
ENDBRANCH  17  23
ENDBRANCH   3  16
TORSDOF 3
ENDMDL
MODEL 9
REMARK VINA RESULT:      -8.0      1.876      7.807
REMARK  3 active torsions:
REMARK  status: ('A' for Active; 'I' for Inactive)
REMARK    1  A    between atoms: C4_9  and  O2_2 
REMARK    2  A    between atoms: C2_7  and  N1_5 
REMARK       I    between atoms: C8_13  and  N1_5 
REMARK    3  A    between atoms: C1_6  and  C8_13 
ROOT
HETATM    1  O3  UNK     1      19.432   5.587  30.635  1.00  0.00    -0.267 OA
HETATM    2  N1  UNK     1      17.865   4.002  31.384  1.00  0.00    -0.323 N 
HETATM    3  C8  UNK     1      18.398   5.287  31.224  1.00  0.00     0.259 C 
HETATM    4  H2  UNK     1      16.972   3.910  31.862  1.00  0.00     0.169 HD
ENDROOT
BRANCH   2   5
HETATM    5  C2  UNK     1      18.379   2.793  30.914  1.00  0.00     0.035 A 
HETATM    6  C6  UNK     1      18.709   1.779  31.817  1.00  0.00     0.043 A 
HETATM    7  C3  UNK     1      19.225   0.568  31.349  1.00  0.00     0.000 A 
HETATM    8  C14 UNK     1      19.583  -0.519  32.244  1.00  0.00     0.020 A 
HETATM    9  C7  UNK     1      19.403   0.397  29.980  1.00  0.00     0.089 A 
HETATM   10  C16 UNK     1      20.074  -1.660  31.753  1.00  0.00     0.083 A 
HETATM   11  C17 UNK     1      20.271  -1.865  30.305  1.00  0.00     0.288 A 
HETATM   12  O1  UNK     1      19.922  -0.810  29.468  1.00  0.00    -0.275 OA
HETATM   13  O4  UNK     1      20.723  -2.918  29.869  1.00  0.00    -0.260 OA
HETATM   14  C11 UNK     1      19.079   1.399  29.068  1.00  0.00     0.040 A 
HETATM   15  C9  UNK     1      18.564   2.604  29.542  1.00  0.00     0.032 A 
ENDBRANCH   2   5
BRANCH   3  16
HETATM   16  C1  UNK     1      17.626   6.382  31.868  1.00  0.00     0.066 A 
HETATM   17  C4  UNK     1      17.630   6.510  33.243  1.00  0.00     0.089 A 
HETATM   18  C5  UNK     1      16.898   7.544  33.825  1.00  0.00    -0.028 A 
HETATM   19  C12 UNK     1      16.179   8.429  33.021  1.00  0.00     0.009 A 
HETATM   20  C15 UNK     1      16.873   7.722  35.308  1.00  0.00     0.051 C 
HETATM   21  C13 UNK     1      16.192   8.279  31.635  1.00  0.00     0.002 A 
HETATM   22  C10 UNK     1      16.922   7.245  31.052  1.00  0.00     0.020 A 
BRANCH  17  23
HETATM   23  O2  UNK     1      18.333   5.646  34.031  1.00  0.00    -0.354 OA
HETATM   24  C18 UNK     1      19.722   5.913  34.201  1.00  0.00     0.210 C 
ENDBRANCH  17  23
ENDBRANCH   3  16
TORSDOF 3
ENDMDL
MODEL 10
REMARK VINA RESULT:      -7.9      4.977      8.471
REMARK  3 active torsions:
REMARK  status: ('A' for Active; 'I' for Inactive)
REMARK    1  A    between atoms: C4_9  and  O2_2 
REMARK    2  A    between atoms: C2_7  and  N1_5 
REMARK       I    between atoms: C8_13  and  N1_5 
REMARK    3  A    between atoms: C1_6  and  C8_13 
ROOT
HETATM    1  O3  UNK     1      18.989  -2.893  36.838  1.00  0.00    -0.267 OA
HETATM    2  N1  UNK     1      20.174  -3.441  34.884  1.00  0.00    -0.323 N 
HETATM    3  C8  UNK     1      19.750  -3.618  36.206  1.00  0.00     0.259 C 
HETATM    4  H2  UNK     1      20.776  -4.151  34.475  1.00  0.00     0.169 HD
ENDROOT
BRANCH   2   5
HETATM    5  C2  UNK     1      19.830  -2.418  34.000  1.00  0.00     0.035 A 
HETATM    6  C6  UNK     1      20.408  -2.371  32.728  1.00  0.00     0.043 A 
HETATM    7  C3  UNK     1      20.065  -1.347  31.843  1.00  0.00     0.000 A 
HETATM    8  C14 UNK     1      20.635  -1.252  30.510  1.00  0.00     0.020 A 
HETATM    9  C7  UNK     1      19.147  -0.384  32.250  1.00  0.00     0.089 A 
HETATM   10  C16 UNK     1      20.279  -0.254  29.696  1.00  0.00     0.083 A 
HETATM   11  C17 UNK     1      19.308   0.778  30.106  1.00  0.00     0.288 A 
HETATM   12  O1  UNK     1      18.776   0.667  31.386  1.00  0.00    -0.275 OA
HETATM   13  O4  UNK     1      18.991   1.688  29.347  1.00  0.00    -0.260 OA
HETATM   14  C11 UNK     1      18.563  -0.417  33.515  1.00  0.00     0.040 A 
HETATM   15  C9  UNK     1      18.909  -1.442  34.392  1.00  0.00     0.032 A 
ENDBRANCH   2   5
BRANCH   3  16
HETATM   16  C1  UNK     1      20.317  -4.802  36.904  1.00  0.00     0.066 A 
HETATM   17  C4  UNK     1      19.764  -6.051  36.700  1.00  0.00     0.089 A 
HETATM   18  C5  UNK     1      20.313  -7.147  37.366  1.00  0.00    -0.028 A 
HETATM   19  C12 UNK     1      21.401  -6.971  38.221  1.00  0.00     0.009 A 
HETATM   20  C15 UNK     1      19.749  -8.517  37.176  1.00  0.00     0.051 C 
HETATM   21  C13 UNK     1      21.941  -5.699  38.411  1.00  0.00     0.002 A 
HETATM   22  C10 UNK     1      21.393  -4.603  37.746  1.00  0.00     0.020 A 
BRANCH  17  23
HETATM   23  O2  UNK     1      18.701  -6.225  35.864  1.00  0.00    -0.354 OA
HETATM   24  C18 UNK     1      17.408  -6.261  36.463  1.00  0.00     0.210 C 
ENDBRANCH  17  23
ENDBRANCH   3  16
TORSDOF 3
ENDMDL
