MODEL 1
REMARK VINA RESULT:      -8.3      0.000      0.000
REMARK  3 active torsions:
REMARK  status: ('A' for Active; 'I' for Inactive)
REMARK    1  A    between atoms: C18_22  and  O3_3 
REMARK    2  A    between atoms: C4_8  and  C9_13 
REMARK    3  A    between atoms: C12_16  and  C18_22 
ROOT
HETATM    1  O1  UNK     1      17.234   6.949  32.620  1.00  0.00    -0.308 OA
HETATM    2  O2  UNK     1      20.427   8.822  34.322  1.00  0.00    -0.287 OA
HETATM    3  C1  UNK     1      17.094   8.218  33.122  1.00  0.00     0.096 A 
HETATM    4  C2  UNK     1      18.145   8.917  33.716  1.00  0.00     0.049 A 
HETATM    5  C3  UNK     1      15.834   8.808  33.021  1.00  0.00    -0.027 A 
HETATM    6  C4  UNK     1      18.477   6.340  32.700  1.00  0.00     0.091 A 
HETATM    7  C5  UNK     1      16.684  10.795  34.108  1.00  0.00    -0.060 A 
HETATM    8  C6  UNK     1      17.945  10.207  34.211  1.00  0.00     0.025 A 
HETATM    9  C7  UNK     1      15.630  10.097  33.514  1.00  0.00     0.016 A 
HETATM   10  C8  UNK     1      19.463   8.270  33.811  1.00  0.00     0.187 A 
HETATM   11  C10 UNK     1      19.561   6.905  33.254  1.00  0.00     0.093 A 
HETATM   12  C11 UNK     1      14.690   8.083  32.390  1.00  0.00     0.051 C 
HETATM   13  C13 UNK     1      16.459  12.172  34.635  1.00  0.00     0.048 C 
ENDROOT
BRANCH   6  14
HETATM   14  C9  UNK     1      18.513   4.976  32.136  1.00  0.00     0.015 A 
HETATM   15  C12 UNK     1      18.895   4.737  30.811  1.00  0.00     0.050 A 
HETATM   16  C15 UNK     1      18.919   3.435  30.310  1.00  0.00     0.019 A 
HETATM   17  C17 UNK     1      18.562   2.365  31.131  1.00  0.00     0.001 A 
HETATM   18  C16 UNK     1      18.181   2.597  32.453  1.00  0.00     0.001 A 
HETATM   19  C14 UNK     1      18.157   3.898  32.954  1.00  0.00     0.015 A 
BRANCH  15  20
HETATM   20  C18 UNK     1      19.274   5.827  29.921  1.00  0.00     0.177 C 
HETATM   21  O4  UNK     1      20.427   6.212  29.718  1.00  0.00    -0.646 OA
BRANCH  20  22
HETATM   22  O3  UNK     1      18.199   6.396  29.313  1.00  0.00    -0.773 OA
HETATM   23  H14 UNK     1      17.848   5.834  28.590  1.00  0.00     0.167 HD
ENDBRANCH  20  22
ENDBRANCH  15  20
ENDBRANCH   6  14
TORSDOF 3
ENDMDL
MODEL 2
REMARK VINA RESULT:      -8.3      2.326      3.744
REMARK  3 active torsions:
REMARK  status: ('A' for Active; 'I' for Inactive)
REMARK    1  A    between atoms: C18_22  and  O3_3 
REMARK    2  A    between atoms: C4_8  and  C9_13 
REMARK    3  A    between atoms: C12_16  and  C18_22 
ROOT
HETATM    1  O1  UNK     1      17.465   8.906  33.068  1.00  0.00    -0.308 OA
HETATM    2  O2  UNK     1      13.800   7.245  33.702  1.00  0.00    -0.287 OA
HETATM    3  C1  UNK     1      16.507   9.607  33.756  1.00  0.00     0.096 A 
HETATM    4  C2  UNK     1      15.234   9.098  34.010  1.00  0.00     0.049 A 
HETATM    5  C3  UNK     1      16.851  10.881  34.209  1.00  0.00    -0.027 A 
HETATM    6  C4  UNK     1      17.154   7.634  32.613  1.00  0.00     0.091 A 
HETATM    7  C5  UNK     1      14.644  11.130  35.167  1.00  0.00    -0.060 A 
HETATM    8  C6  UNK     1      14.297   9.856  34.715  1.00  0.00     0.025 A 
HETATM    9  C7  UNK     1      15.918  11.641  34.914  1.00  0.00     0.016 A 
HETATM   10  C8  UNK     1      14.897   7.752  33.519  1.00  0.00     0.187 A 
HETATM   11  C10 UNK     1      15.963   7.040  32.787  1.00  0.00     0.093 A 
HETATM   12  C11 UNK     1      18.208  11.451  33.952  1.00  0.00     0.051 C 
HETATM   13  C13 UNK     1      13.650  11.949  35.921  1.00  0.00     0.048 C 
ENDROOT
BRANCH   6  14
HETATM   14  C9  UNK     1      18.254   6.974  31.881  1.00  0.00     0.015 A 
HETATM   15  C12 UNK     1      19.489   6.717  32.484  1.00  0.00     0.050 A 
HETATM   16  C15 UNK     1      20.507   6.091  31.764  1.00  0.00     0.019 A 
HETATM   17  C17 UNK     1      20.294   5.719  30.437  1.00  0.00     0.001 A 
HETATM   18  C16 UNK     1      19.064   5.971  29.830  1.00  0.00     0.001 A 
HETATM   19  C14 UNK     1      18.046   6.598  30.550  1.00  0.00     0.015 A 
BRANCH  15  20
HETATM   20  C18 UNK     1      19.752   7.091  33.868  1.00  0.00     0.177 C 
HETATM   21  O4  UNK     1      20.237   8.163  34.237  1.00  0.00    -0.646 OA
BRANCH  20  22
HETATM   22  O3  UNK     1      19.397   6.113  34.745  1.00  0.00    -0.773 OA
HETATM   23  H14 UNK     1      18.434   6.119  34.929  1.00  0.00     0.167 HD
ENDBRANCH  20  22
ENDBRANCH  15  20
ENDBRANCH   6  14
TORSDOF 3
ENDMDL
MODEL 3
REMARK VINA RESULT:      -8.2      9.919     13.817
REMARK  3 active torsions:
REMARK  status: ('A' for Active; 'I' for Inactive)
REMARK    1  A    between atoms: C18_22  and  O3_3 
REMARK    2  A    between atoms: C4_8  and  C9_13 
REMARK    3  A    between atoms: C12_16  and  C18_22 
ROOT
HETATM    1  O1  UNK     1      19.117  -5.090  36.513  1.00  0.00    -0.308 OA
HETATM    2  O2  UNK     1      22.675  -5.557  38.442  1.00  0.00    -0.287 OA
HETATM    3  C1  UNK     1      19.615  -6.349  36.733  1.00  0.00     0.096 A 
HETATM    4  C2  UNK     1      20.825  -6.581  37.387  1.00  0.00     0.049 A 
HETATM    5  C3  UNK     1      18.857  -7.425  36.270  1.00  0.00    -0.027 A 
HETATM    6  C4  UNK     1      19.847  -4.003  36.969  1.00  0.00     0.091 A 
HETATM    7  C5  UNK     1      20.523  -8.958  37.119  1.00  0.00    -0.060 A 
HETATM    8  C6  UNK     1      21.284  -7.885  37.583  1.00  0.00     0.025 A 
HETATM    9  C7  UNK     1      19.312  -8.729  36.463  1.00  0.00     0.016 A 
HETATM   10  C8  UNK     1      21.606  -5.429  37.864  1.00  0.00     0.187 A 
HETATM   11  C10 UNK     1      21.025  -4.096  37.604  1.00  0.00     0.093 A 
HETATM   12  C11 UNK     1      17.558  -7.207  35.565  1.00  0.00     0.051 C 
HETATM   13  C13 UNK     1      21.006 -10.356  37.322  1.00  0.00     0.048 C 
ENDROOT
BRANCH   6  14
HETATM   14  C9  UNK     1      19.223  -2.697  36.673  1.00  0.00     0.015 A 
HETATM   15  C12 UNK     1      19.610  -1.929  35.570  1.00  0.00     0.050 A 
HETATM   16  C15 UNK     1      18.999  -0.700  35.319  1.00  0.00     0.019 A 
HETATM   17  C17 UNK     1      17.998  -0.232  36.172  1.00  0.00     0.001 A 
HETATM   18  C16 UNK     1      17.608  -0.993  37.273  1.00  0.00     0.001 A 
HETATM   19  C14 UNK     1      18.218  -2.222  37.524  1.00  0.00     0.015 A 
BRANCH  15  20
HETATM   20  C18 UNK     1      20.651  -2.382  34.656  1.00  0.00     0.177 C 
HETATM   21  O4  UNK     1      20.477  -3.129  33.691  1.00  0.00    -0.646 OA
BRANCH  20  22
HETATM   22  O3  UNK     1      21.875  -1.882  34.978  1.00  0.00    -0.773 OA
HETATM   23  H14 UNK     1      22.514  -2.593  35.195  1.00  0.00     0.167 HD
ENDBRANCH  20  22
ENDBRANCH  15  20
ENDBRANCH   6  14
TORSDOF 3
ENDMDL
MODEL 4
REMARK VINA RESULT:      -8.1      2.205      7.021
REMARK  3 active torsions:
REMARK  status: ('A' for Active; 'I' for Inactive)
REMARK    1  A    between atoms: C18_22  and  O3_3 
REMARK    2  A    between atoms: C4_8  and  C9_13 
REMARK    3  A    between atoms: C12_16  and  C18_22 
ROOT
HETATM    1  O1  UNK     1      17.946   3.631  33.146  1.00  0.00    -0.308 OA
HETATM    2  O2  UNK     1      19.001   2.625  29.342  1.00  0.00    -0.287 OA
HETATM    3  C1  UNK     1      18.285   2.335  32.851  1.00  0.00     0.096 A 
HETATM    4  C2  UNK     1      18.657   1.923  31.572  1.00  0.00     0.049 A 
HETATM    5  C3  UNK     1      18.246   1.411  33.896  1.00  0.00    -0.027 A 
HETATM    6  C4  UNK     1      17.983   4.571  32.128  1.00  0.00     0.091 A 
HETATM    7  C5  UNK     1      18.952  -0.332  32.376  1.00  0.00    -0.060 A 
HETATM    8  C6  UNK     1      18.991   0.589  31.329  1.00  0.00     0.025 A 
HETATM    9  C7  UNK     1      18.579   0.079  33.657  1.00  0.00     0.016 A 
HETATM   10  C8  UNK     1      18.688   2.916  30.487  1.00  0.00     0.187 A 
HETATM   11  C10 UNK     1      18.317   4.297  30.858  1.00  0.00     0.093 A 
HETATM   12  C11 UNK     1      17.851   1.825  35.277  1.00  0.00     0.051 C 
HETATM   13  C13 UNK     1      19.306  -1.759  32.126  1.00  0.00     0.048 C 
ENDROOT
BRANCH   6  14
HETATM   14  C9  UNK     1      17.594   5.931  32.554  1.00  0.00     0.015 A 
HETATM   15  C12 UNK     1      18.475   6.763  33.254  1.00  0.00     0.050 A 
HETATM   16  C15 UNK     1      18.075   8.043  33.641  1.00  0.00     0.019 A 
HETATM   17  C17 UNK     1      16.793   8.497  33.330  1.00  0.00     0.001 A 
HETATM   18  C16 UNK     1      15.912   7.672  32.632  1.00  0.00     0.001 A 
HETATM   19  C14 UNK     1      16.310   6.393  32.245  1.00  0.00     0.015 A 
BRANCH  15  20
HETATM   20  C18 UNK     1      19.822   6.327  33.598  1.00  0.00     0.177 C 
HETATM   21  O4  UNK     1      20.855   6.687  33.030  1.00  0.00    -0.646 OA
BRANCH  20  22
HETATM   22  O3  UNK     1      19.832   5.456  34.644  1.00  0.00    -0.773 OA
HETATM   23  H14 UNK     1      20.322   5.815  35.414  1.00  0.00     0.167 HD
ENDBRANCH  20  22
ENDBRANCH  15  20
ENDBRANCH   6  14
TORSDOF 3
ENDMDL
MODEL 5
REMARK VINA RESULT:      -8.0      6.014      8.807
REMARK  3 active torsions:
REMARK  status: ('A' for Active; 'I' for Inactive)
REMARK    1  A    between atoms: C18_22  and  O3_3 
REMARK    2  A    between atoms: C4_8  and  C9_13 
REMARK    3  A    between atoms: C12_16  and  C18_22 
ROOT
HETATM    1  O1  UNK     1      18.198   0.752  32.952  1.00  0.00    -0.308 OA
HETATM    2  O2  UNK     1      20.274  -2.748  33.153  1.00  0.00    -0.287 OA
HETATM    3  C1  UNK     1      18.955   0.344  31.884  1.00  0.00     0.096 A 
HETATM    4  C2  UNK     1      19.689  -0.842  31.885  1.00  0.00     0.049 A 
HETATM    5  C3  UNK     1      18.974   1.173  30.762  1.00  0.00    -0.027 A 
HETATM    6  C4  UNK     1      18.155  -0.056  34.078  1.00  0.00     0.091 A 
HETATM    7  C5  UNK     1      20.460  -0.376  29.648  1.00  0.00    -0.060 A 
HETATM    8  C6  UNK     1      20.444  -1.207  30.768  1.00  0.00     0.025 A 
HETATM    9  C7  UNK     1      19.726   0.812  29.645  1.00  0.00     0.016 A 
HETATM   10  C8  UNK     1      19.653  -1.697  33.081  1.00  0.00     0.187 A 
HETATM   11  C10 UNK     1      18.821  -1.214  34.203  1.00  0.00     0.093 A 
HETATM   12  C11 UNK     1      18.198   2.450  30.732  1.00  0.00     0.051 C 
HETATM   13  C13 UNK     1      21.264  -0.756  28.450  1.00  0.00     0.048 C 
ENDROOT
BRANCH   6  14
HETATM   14  C9  UNK     1      17.316   0.480  35.169  1.00  0.00     0.015 A 
HETATM   15  C12 UNK     1      17.766   1.505  36.007  1.00  0.00     0.050 A 
HETATM   16  C15 UNK     1      16.948   1.989  37.029  1.00  0.00     0.019 A 
HETATM   17  C17 UNK     1      15.675   1.450  37.216  1.00  0.00     0.001 A 
HETATM   18  C16 UNK     1      15.221   0.428  36.383  1.00  0.00     0.001 A 
HETATM   19  C14 UNK     1      16.039  -0.056  35.362  1.00  0.00     0.015 A 
BRANCH  15  20
HETATM   20  C18 UNK     1      19.090   2.095  35.845  1.00  0.00     0.177 C 
HETATM   21  O4  UNK     1      20.148   1.584  36.217  1.00  0.00    -0.646 OA
BRANCH  20  22
HETATM   22  O3  UNK     1      19.044   3.303  35.221  1.00  0.00    -0.773 OA
HETATM   23  H14 UNK     1      19.395   4.021  35.789  1.00  0.00     0.167 HD
ENDBRANCH  20  22
ENDBRANCH  15  20
ENDBRANCH   6  14
TORSDOF 3
ENDMDL
MODEL 6
REMARK VINA RESULT:      -8.0     24.057     25.570
REMARK  3 active torsions:
REMARK  status: ('A' for Active; 'I' for Inactive)
REMARK    1  A    between atoms: C18_22  and  O3_3 
REMARK    2  A    between atoms: C4_8  and  C9_13 
REMARK    3  A    between atoms: C12_16  and  C18_22 
ROOT
HETATM    1  O1  UNK     1       7.674   4.549   8.928  1.00  0.00    -0.308 OA
HETATM    2  O2  UNK     1       6.781   7.406  11.691  1.00  0.00    -0.287 OA
HETATM    3  C1  UNK     1       6.705   4.310   9.869  1.00  0.00     0.096 A 
HETATM    4  C2  UNK     1       6.348   5.244  10.841  1.00  0.00     0.049 A 
HETATM    5  C3  UNK     1       6.066   3.071   9.826  1.00  0.00    -0.027 A 
HETATM    6  C4  UNK     1       8.321   5.775   8.942  1.00  0.00     0.091 A 
HETATM    7  C5  UNK     1       4.717   3.707  11.730  1.00  0.00    -0.060 A 
HETATM    8  C6  UNK     1       5.354   4.947  11.776  1.00  0.00     0.025 A 
HETATM    9  C7  UNK     1       5.072   2.770  10.757  1.00  0.00     0.016 A 
HETATM   10  C8  UNK     1       7.040   6.543  10.865  1.00  0.00     0.187 A 
HETATM   11  C10 UNK     1       8.073   6.750   9.830  1.00  0.00     0.093 A 
HETATM   12  C11 UNK     1       6.427   2.051   8.795  1.00  0.00     0.051 C 
HETATM   13  C13 UNK     1       3.654   3.379  12.725  1.00  0.00     0.048 C 
ENDROOT
BRANCH   6  14
HETATM   14  C9  UNK     1       9.348   5.923   7.891  1.00  0.00     0.015 A 
HETATM   15  C12 UNK     1      10.690   5.600   8.123  1.00  0.00     0.050 A 
HETATM   16  C15 UNK     1      11.635   5.751   7.108  1.00  0.00     0.019 A 
HETATM   17  C17 UNK     1      11.243   6.225   5.856  1.00  0.00     0.001 A 
HETATM   18  C16 UNK     1       9.908   6.548   5.619  1.00  0.00     0.001 A 
HETATM   19  C14 UNK     1       8.962   6.398   6.633  1.00  0.00     0.015 A 
BRANCH  15  20
HETATM   20  C18 UNK     1      11.139   5.102   9.417  1.00  0.00     0.177 C 
HETATM   21  O4  UNK     1      11.881   5.707  10.195  1.00  0.00    -0.646 OA
BRANCH  20  22
HETATM   22  O3  UNK     1      10.644   3.866   9.696  1.00  0.00    -0.773 OA
HETATM   23  H14 UNK     1      10.347   3.401   8.885  1.00  0.00     0.167 HD
ENDBRANCH  20  22
ENDBRANCH  15  20
ENDBRANCH   6  14
TORSDOF 3
ENDMDL
MODEL 7
REMARK VINA RESULT:      -7.8      1.593      6.340
REMARK  3 active torsions:
REMARK  status: ('A' for Active; 'I' for Inactive)
REMARK    1  A    between atoms: C18_22  and  O3_3 
REMARK    2  A    between atoms: C4_8  and  C9_13 
REMARK    3  A    between atoms: C12_16  and  C18_22 
ROOT
HETATM    1  O1  UNK     1      18.896   6.309  31.921  1.00  0.00    -0.308 OA
HETATM    2  O2  UNK     1      18.073   3.295  34.536  1.00  0.00    -0.287 OA
HETATM    3  C1  UNK     1      18.784   5.019  31.465  1.00  0.00     0.096 A 
HETATM    4  C2  UNK     1      18.502   3.942  32.305  1.00  0.00     0.049 A 
HETATM    5  C3  UNK     1      18.965   4.808  30.098  1.00  0.00    -0.027 A 
HETATM    6  C4  UNK     1      18.714   6.549  33.274  1.00  0.00     0.091 A 
HETATM    7  C5  UNK     1      18.581   2.442  30.418  1.00  0.00    -0.060 A 
HETATM    8  C6  UNK     1      18.400   2.650  31.785  1.00  0.00     0.025 A 
HETATM    9  C7  UNK     1      18.863   3.519  29.576  1.00  0.00     0.016 A 
HETATM   10  C8  UNK     1      18.318   4.192  33.742  1.00  0.00     0.187 A 
HETATM   11  C10 UNK     1      18.447   5.597  34.181  1.00  0.00     0.093 A 
HETATM   12  C11 UNK     1      19.267   5.944  29.175  1.00  0.00     0.051 C 
HETATM   13  C13 UNK     1      18.475   1.065  29.854  1.00  0.00     0.048 C 
ENDROOT
BRANCH   6  14
HETATM   14  C9  UNK     1      18.863   7.968  33.656  1.00  0.00     0.015 A 
HETATM   15  C12 UNK     1      17.822   8.888  33.491  1.00  0.00     0.050 A 
HETATM   16  C15 UNK     1      17.997  10.221  33.863  1.00  0.00     0.019 A 
HETATM   17  C17 UNK     1      19.213  10.641  34.402  1.00  0.00     0.001 A 
HETATM   18  C16 UNK     1      20.254   9.728  34.569  1.00  0.00     0.001 A 
HETATM   19  C14 UNK     1      20.080   8.395  34.197  1.00  0.00     0.015 A 
BRANCH  15  20
HETATM   20  C18 UNK     1      16.536   8.489  32.932  1.00  0.00     0.177 C 
HETATM   21  O4  UNK     1      15.540   8.179  33.588  1.00  0.00    -0.646 OA
BRANCH  20  22
HETATM   22  O3  UNK     1      16.540   8.495  31.572  1.00  0.00    -0.773 OA
HETATM   23  H14 UNK     1      16.629   7.591  31.203  1.00  0.00     0.167 HD
ENDBRANCH  20  22
ENDBRANCH  15  20
ENDBRANCH   6  14
TORSDOF 3
ENDMDL
MODEL 8
REMARK VINA RESULT:      -7.8      2.239      7.045
REMARK  3 active torsions:
REMARK  status: ('A' for Active; 'I' for Inactive)
REMARK    1  A    between atoms: C18_22  and  O3_3 
REMARK    2  A    between atoms: C4_8  and  C9_13 
REMARK    3  A    between atoms: C12_16  and  C18_22 
ROOT
HETATM    1  O1  UNK     1      17.538   9.415  34.111  1.00  0.00    -0.308 OA
HETATM    2  O2  UNK     1      15.192   7.882  31.154  1.00  0.00    -0.287 OA
HETATM    3  C1  UNK     1      18.011   8.397  33.322  1.00  0.00     0.096 A 
HETATM    4  C2  UNK     1      17.262   7.828  32.293  1.00  0.00     0.049 A 
HETATM    5  C3  UNK     1      19.299   7.931  33.586  1.00  0.00    -0.027 A 
HETATM    6  C4  UNK     1      16.263   9.902  33.867  1.00  0.00     0.091 A 
HETATM    7  C5  UNK     1      19.083   6.329  31.787  1.00  0.00    -0.060 A 
HETATM    8  C6  UNK     1      17.794   6.792  31.522  1.00  0.00     0.025 A 
HETATM    9  C7  UNK     1      19.834   6.898  32.818  1.00  0.00     0.016 A 
HETATM   10  C8  UNK     1      15.905   8.336  32.037  1.00  0.00     0.187 A 
HETATM   11  C10 UNK     1      15.445   9.433  32.912  1.00  0.00     0.093 A 
HETATM   12  C11 UNK     1      20.124   8.523  34.682  1.00  0.00     0.051 C 
HETATM   13  C13 UNK     1      19.660   5.223  30.970  1.00  0.00     0.048 C 
ENDROOT
BRANCH   6  14
HETATM   14  C9  UNK     1      15.853  10.991  34.777  1.00  0.00     0.015 A 
HETATM   15  C12 UNK     1      16.607  12.162  34.909  1.00  0.00     0.050 A 
HETATM   16  C15 UNK     1      16.190  13.172  35.778  1.00  0.00     0.019 A 
HETATM   17  C17 UNK     1      15.019  13.015  36.519  1.00  0.00     0.001 A 
HETATM   18  C16 UNK     1      14.264  11.849  36.391  1.00  0.00     0.001 A 
HETATM   19  C14 UNK     1      14.679  10.840  35.523  1.00  0.00     0.015 A 
BRANCH  15  20
HETATM   20  C18 UNK     1      17.837  12.365  34.154  1.00  0.00     0.177 C 
HETATM   21  O4  UNK     1      17.917  12.931  33.062  1.00  0.00    -0.646 OA
BRANCH  20  22
HETATM   22  O3  UNK     1      18.925  11.855  34.792  1.00  0.00    -0.773 OA
HETATM   23  H14 UNK     1      19.670  12.492  34.810  1.00  0.00     0.167 HD
ENDBRANCH  20  22
ENDBRANCH  15  20
ENDBRANCH   6  14
TORSDOF 3
ENDMDL
MODEL 9
REMARK VINA RESULT:      -7.6      2.354      4.307
REMARK  3 active torsions:
REMARK  status: ('A' for Active; 'I' for Inactive)
REMARK    1  A    between atoms: C18_22  and  O3_3 
REMARK    2  A    between atoms: C4_8  and  C9_13 
REMARK    3  A    between atoms: C12_16  and  C18_22 
ROOT
HETATM    1  O1  UNK     1      17.826  10.628  33.597  1.00  0.00    -0.308 OA
HETATM    2  O2  UNK     1      14.325  10.090  35.609  1.00  0.00    -0.287 OA
HETATM    3  C1  UNK     1      17.125  11.716  34.051  1.00  0.00     0.096 A 
HETATM    4  C2  UNK     1      15.922  11.603  34.748  1.00  0.00     0.049 A 
HETATM    5  C3  UNK     1      17.663  12.976  33.790  1.00  0.00    -0.027 A 
HETATM    6  C4  UNK     1      17.318   9.362  33.849  1.00  0.00     0.091 A 
HETATM    7  C5  UNK     1      15.792  14.005  34.924  1.00  0.00    -0.060 A 
HETATM    8  C6  UNK     1      15.251  12.746  35.187  1.00  0.00     0.025 A 
HETATM    9  C7  UNK     1      16.996  14.120  34.227  1.00  0.00     0.016 A 
HETATM   10  C8  UNK     1      15.376  10.263  35.009  1.00  0.00     0.187 A 
HETATM   11  C10 UNK     1      16.169   9.125  34.500  1.00  0.00     0.093 A 
HETATM   12  C11 UNK     1      18.951  13.126  33.046  1.00  0.00     0.051 C 
HETATM   13  C13 UNK     1      15.082  15.232  35.388  1.00  0.00     0.048 C 
ENDROOT
BRANCH   6  14
HETATM   14  C9  UNK     1      18.148   8.266  33.310  1.00  0.00     0.015 A 
HETATM   15  C12 UNK     1      17.696   7.441  32.274  1.00  0.00     0.050 A 
HETATM   16  C15 UNK     1      18.506   6.414  31.788  1.00  0.00     0.019 A 
HETATM   17  C17 UNK     1      19.772   6.206  32.336  1.00  0.00     0.001 A 
HETATM   18  C16 UNK     1      20.228   7.025  33.369  1.00  0.00     0.001 A 
HETATM   19  C14 UNK     1      19.419   8.052  33.855  1.00  0.00     0.015 A 
BRANCH  15  20
HETATM   20  C18 UNK     1      16.380   7.625  31.674  1.00  0.00     0.177 C 
HETATM   21  O4  UNK     1      15.346   7.065  32.041  1.00  0.00    -0.646 OA
BRANCH  20  22
HETATM   22  O3  UNK     1      16.403   8.506  30.638  1.00  0.00    -0.773 OA
HETATM   23  H14 UNK     1      15.770   9.244  30.771  1.00  0.00     0.167 HD
ENDBRANCH  20  22
ENDBRANCH  15  20
ENDBRANCH   6  14
TORSDOF 3
ENDMDL
MODEL 10
REMARK VINA RESULT:      -7.6     22.208     24.638
REMARK  3 active torsions:
REMARK  status: ('A' for Active; 'I' for Inactive)
REMARK    1  A    between atoms: C18_22  and  O3_3 
REMARK    2  A    between atoms: C4_8  and  C9_13 
REMARK    3  A    between atoms: C12_16  and  C18_22 
ROOT
HETATM    1  O1  UNK     1      12.671   6.760   9.128  1.00  0.00    -0.308 OA
HETATM    2  O2  UNK     1      13.745  10.622   9.858  1.00  0.00    -0.287 OA
HETATM    3  C1  UNK     1      13.942   7.047   9.559  1.00  0.00     0.096 A 
HETATM    4  C2  UNK     1      14.375   8.345   9.829  1.00  0.00     0.049 A 
HETATM    5  C3  UNK     1      14.817   5.973   9.724  1.00  0.00    -0.027 A 
HETATM    6  C4  UNK     1      11.779   7.808   8.962  1.00  0.00     0.091 A 
HETATM    7  C5  UNK     1      16.553   7.501  10.429  1.00  0.00    -0.060 A 
HETATM    8  C6  UNK     1      15.681   8.577  10.264  1.00  0.00     0.025 A 
HETATM    9  C7  UNK     1      16.122   6.201  10.160  1.00  0.00     0.016 A 
HETATM   10  C8  UNK     1      13.433   9.459   9.644  1.00  0.00     0.187 A 
HETATM   11  C10 UNK     1      12.078   9.098   9.182  1.00  0.00     0.093 A 
HETATM   12  C11 UNK     1      14.380   4.571   9.443  1.00  0.00     0.051 C 
HETATM   13  C13 UNK     1      17.951   7.739  10.893  1.00  0.00     0.048 C 
ENDROOT
BRANCH   6  14
HETATM   14  C9  UNK     1      10.444   7.389   8.490  1.00  0.00     0.015 A 
HETATM   15  C12 UNK     1      10.286   6.531   7.396  1.00  0.00     0.050 A 
HETATM   16  C15 UNK     1       9.009   6.154   6.977  1.00  0.00     0.019 A 
HETATM   17  C17 UNK     1       7.885   6.632   7.649  1.00  0.00     0.001 A 
HETATM   18  C16 UNK     1       8.036   7.487   8.741  1.00  0.00     0.001 A 
HETATM   19  C14 UNK     1       9.311   7.864   9.161  1.00  0.00     0.015 A 
BRANCH  15  20
HETATM   20  C18 UNK     1      11.435   6.010   6.666  1.00  0.00     0.177 C 
HETATM   21  O4  UNK     1      11.938   6.526   5.666  1.00  0.00    -0.646 OA
BRANCH  20  22
HETATM   22  O3  UNK     1      11.917   4.862   7.213  1.00  0.00    -0.773 OA
HETATM   23  H14 UNK     1      12.799   4.995   7.622  1.00  0.00     0.167 HD
ENDBRANCH  20  22
ENDBRANCH  15  20
ENDBRANCH   6  14
TORSDOF 3
ENDMDL
