MODEL 1
REMARK VINA RESULT:      -7.7      0.000      0.000
REMARK  6 active torsions:
REMARK  status: ('A' for Active; 'I' for Inactive)
REMARK    1  A    between atoms: C3_8  and  O1_1 
REMARK    2  A    between atoms: C6_11  and  O1_1 
REMARK    3  A    between atoms: C1_6  and  O2_2 
REMARK    4  A    between atoms: C2_7  and  O3_3 
REMARK    5  A    between atoms: C1_6  and  C2_7 
REMARK    6  A    between atoms: C2_7  and  C3_8 
ROOT
HETATM    1  O4  UNK     1      20.096  -1.172  32.333  1.00  0.00    -0.275 OA
HETATM    2  O5  UNK     1      21.202  -3.129  32.768  1.00  0.00    -0.260 OA
HETATM    3  C6  UNK     1      18.420   1.782  30.942  1.00  0.00     0.077 A 
HETATM    4  C7  UNK     1      18.544   1.553  29.573  1.00  0.00    -0.028 A 
HETATM    5  C8  UNK     1      18.937   0.874  31.859  1.00  0.00     0.075 A 
HETATM    6  C9  UNK     1      19.716  -0.516  30.020  1.00  0.00    -0.001 A 
HETATM    7  C10 UNK     1      19.581  -0.266  31.383  1.00  0.00     0.092 A 
HETATM    8  C11 UNK     1      19.192   0.404  29.109  1.00  0.00     0.023 A 
HETATM    9  C12 UNK     1      17.991   2.524  28.582  1.00  0.00     0.051 C 
HETATM   10  C13 UNK     1      20.399  -1.725  29.594  1.00  0.00     0.020 A 
HETATM   11  C14 UNK     1      20.884  -2.578  30.500  1.00  0.00     0.083 A 
HETATM   12  C15 UNK     1      20.753  -2.336  31.948  1.00  0.00     0.288 A 
ENDROOT
BRANCH   3  13
HETATM   13  O1  UNK     1      17.787   2.904  31.404  1.00  0.00    -0.348 OA
BRANCH  13  14
HETATM   14  C3  UNK     1      18.214   3.406  32.667  1.00  0.00     0.210 C 
BRANCH  14  15
HETATM   15  C2  UNK     1      18.024   4.925  32.707  1.00  0.00     0.175 C 
BRANCH  15  16
HETATM   16  C1  UNK     1      19.000   5.721  31.809  1.00  0.00     0.078 C 
HETATM   17  C4  UNK     1      18.238   6.625  30.831  1.00  0.00     0.048 C 
HETATM   18  C5  UNK     1      19.972   6.567  32.638  1.00  0.00     0.048 C 
BRANCH  16  19
HETATM   19  O2  UNK     1      19.767   4.793  31.036  1.00  0.00    -0.388 OA
HETATM   20  H10 UNK     1      19.300   4.639  30.197  1.00  0.00     0.210 HD
ENDBRANCH  16  19
ENDBRANCH  15  16
BRANCH  15  21
HETATM   21  O3  UNK     1      18.188   5.339  34.069  1.00  0.00    -0.390 OA
HETATM   22  H11 UNK     1      17.306   5.517  34.438  1.00  0.00     0.210 HD
ENDBRANCH  15  21
ENDBRANCH  14  15
ENDBRANCH  13  14
ENDBRANCH   3  13
TORSDOF 6
ENDMDL
MODEL 2
REMARK VINA RESULT:      -7.4     22.493     24.969
REMARK  6 active torsions:
REMARK  status: ('A' for Active; 'I' for Inactive)
REMARK    1  A    between atoms: C3_8  and  O1_1 
REMARK    2  A    between atoms: C6_11  and  O1_1 
REMARK    3  A    between atoms: C1_6  and  O2_2 
REMARK    4  A    between atoms: C2_7  and  O3_3 
REMARK    5  A    between atoms: C1_6  and  C2_7 
REMARK    6  A    between atoms: C2_7  and  C3_8 
ROOT
HETATM    1  O4  UNK     1      12.537   6.614  10.119  1.00  0.00    -0.275 OA
HETATM    2  O5  UNK     1      14.489   7.215  11.154  1.00  0.00    -0.260 OA
HETATM    3  C6  UNK     1       9.721   5.927   7.867  1.00  0.00     0.077 A 
HETATM    4  C7  UNK     1      10.204   6.426   6.659  1.00  0.00    -0.028 A 
HETATM    5  C8  UNK     1      10.499   5.990   9.017  1.00  0.00     0.075 A 
HETATM    6  C9  UNK     1      12.270   7.067   7.741  1.00  0.00    -0.001 A 
HETATM    7  C10 UNK     1      11.768   6.562   8.938  1.00  0.00     0.092 A 
HETATM    8  C11 UNK     1      11.478   6.996   6.593  1.00  0.00     0.023 A 
HETATM    9  C12 UNK     1       9.374   6.360   5.419  1.00  0.00     0.051 C 
HETATM   10  C13 UNK     1      13.601   7.649   7.731  1.00  0.00     0.020 A 
HETATM   11  C14 UNK     1      14.323   7.696   8.853  1.00  0.00     0.083 A 
HETATM   12  C15 UNK     1      13.813   7.167  10.132  1.00  0.00     0.288 A 
ENDROOT
BRANCH   3  13
HETATM   13  O1  UNK     1       8.475   5.366   7.939  1.00  0.00    -0.348 OA
BRANCH  13  14
HETATM   14  C3  UNK     1       7.732   5.609   9.130  1.00  0.00     0.210 C 
BRANCH  14  15
HETATM   15  C2  UNK     1       7.123   4.296   9.631  1.00  0.00     0.175 C 
BRANCH  15  16
HETATM   16  C1  UNK     1       6.054   4.461  10.736  1.00  0.00     0.078 C 
HETATM   17  C4  UNK     1       5.412   3.113  11.088  1.00  0.00     0.048 C 
HETATM   18  C5  UNK     1       6.639   5.097  12.002  1.00  0.00     0.048 C 
BRANCH  16  19
HETATM   19  O2  UNK     1       5.021   5.320  10.244  1.00  0.00    -0.388 OA
HETATM   20  H10 UNK     1       5.430   6.156   9.962  1.00  0.00     0.210 HD
ENDBRANCH  16  19
ENDBRANCH  15  16
BRANCH  15  21
HETATM   21  O3  UNK     1       8.200   3.491  10.129  1.00  0.00    -0.390 OA
HETATM   22  H11 UNK     1       8.692   4.016  10.783  1.00  0.00     0.210 HD
ENDBRANCH  15  21
ENDBRANCH  14  15
ENDBRANCH  13  14
ENDBRANCH   3  13
TORSDOF 6
ENDMDL
MODEL 3
REMARK VINA RESULT:      -7.4      1.511      6.668
REMARK  6 active torsions:
REMARK  status: ('A' for Active; 'I' for Inactive)
REMARK    1  A    between atoms: C3_8  and  O1_1 
REMARK    2  A    between atoms: C6_11  and  O1_1 
REMARK    3  A    between atoms: C1_6  and  O2_2 
REMARK    4  A    between atoms: C2_7  and  O3_3 
REMARK    5  A    between atoms: C1_6  and  C2_7 
REMARK    6  A    between atoms: C2_7  and  C3_8 
ROOT
HETATM    1  O4  UNK     1      18.086   5.214  33.739  1.00  0.00    -0.275 OA
HETATM    2  O5  UNK     1      17.996   7.298  34.683  1.00  0.00    -0.260 OA
HETATM    3  C6  UNK     1      18.390   2.235  31.617  1.00  0.00     0.077 A 
HETATM    4  C7  UNK     1      18.697   2.803  30.383  1.00  0.00    -0.028 A 
HETATM    5  C8  UNK     1      18.187   3.039  32.733  1.00  0.00     0.075 A 
HETATM    6  C9  UNK     1      18.603   5.011  31.369  1.00  0.00    -0.001 A 
HETATM    7  C10 UNK     1      18.296   4.421  32.592  1.00  0.00     0.092 A 
HETATM    8  C11 UNK     1      18.804   4.191  30.256  1.00  0.00     0.023 A 
HETATM    9  C12 UNK     1      18.917   1.946  29.180  1.00  0.00     0.051 C 
HETATM   10  C13 UNK     1      18.701   6.458  31.294  1.00  0.00     0.020 A 
HETATM   11  C14 UNK     1      18.500   7.203  32.384  1.00  0.00     0.083 A 
HETATM   12  C15 UNK     1      18.175   6.602  33.691  1.00  0.00     0.288 A 
ENDROOT
BRANCH   3  13
HETATM   13  O1  UNK     1      18.284   0.877  31.749  1.00  0.00    -0.348 OA
BRANCH  13  14
HETATM   14  C3  UNK     1      18.885   0.298  32.904  1.00  0.00     0.210 C 
BRANCH  14  15
HETATM   15  C2  UNK     1      19.076  -1.205  32.684  1.00  0.00     0.175 C 
BRANCH  15  16
HETATM   16  C1  UNK     1      20.270  -1.577  31.774  1.00  0.00     0.078 C 
HETATM   17  C4  UNK     1      21.214  -2.562  32.478  1.00  0.00     0.048 C 
HETATM   18  C5  UNK     1      19.805  -2.176  30.443  1.00  0.00     0.048 C 
BRANCH  16  19
HETATM   19  O2  UNK     1      21.014  -0.389  31.492  1.00  0.00    -0.388 OA
HETATM   20  H10 UNK     1      21.811  -0.641  30.994  1.00  0.00     0.210 HD
ENDBRANCH  16  19
ENDBRANCH  15  16
BRANCH  15  21
HETATM   21  O3  UNK     1      17.864  -1.708  32.105  1.00  0.00    -0.390 OA
HETATM   22  H11 UNK     1      18.095  -2.193  31.295  1.00  0.00     0.210 HD
ENDBRANCH  15  21
ENDBRANCH  14  15
ENDBRANCH  13  14
ENDBRANCH   3  13
TORSDOF 6
ENDMDL
MODEL 4
REMARK VINA RESULT:      -7.3      1.972      3.024
REMARK  6 active torsions:
REMARK  status: ('A' for Active; 'I' for Inactive)
REMARK    1  A    between atoms: C3_8  and  O1_1 
REMARK    2  A    between atoms: C6_11  and  O1_1 
REMARK    3  A    between atoms: C1_6  and  O2_2 
REMARK    4  A    between atoms: C2_7  and  O3_3 
REMARK    5  A    between atoms: C1_6  and  C2_7 
REMARK    6  A    between atoms: C2_7  and  C3_8 
ROOT
HETATM    1  O4  UNK     1      19.643   0.756  29.690  1.00  0.00    -0.275 OA
HETATM    2  O5  UNK     1      20.534  -0.707  28.171  1.00  0.00    -0.260 OA
HETATM    3  C6  UNK     1      18.248   2.538  32.580  1.00  0.00     0.077 A 
HETATM    4  C7  UNK     1      18.254   1.539  33.551  1.00  0.00    -0.028 A 
HETATM    5  C8  UNK     1      18.711   2.275  31.295  1.00  0.00     0.075 A 
HETATM    6  C9  UNK     1      19.194  -0.017  31.955  1.00  0.00    -0.001 A 
HETATM    7  C10 UNK     1      19.179   0.996  31.000  1.00  0.00     0.092 A 
HETATM    8  C11 UNK     1      18.727   0.260  33.242  1.00  0.00     0.023 A 
HETATM    9  C12 UNK     1      17.759   1.814  34.934  1.00  0.00     0.051 C 
HETATM   10  C13 UNK     1      19.696  -1.327  31.578  1.00  0.00     0.020 A 
HETATM   11  C14 UNK     1      20.133  -1.547  30.335  1.00  0.00     0.083 A 
HETATM   12  C15 UNK     1      20.128  -0.490  29.307  1.00  0.00     0.288 A 
ENDROOT
BRANCH   3  13
HETATM   13  O1  UNK     1      17.787   3.792  32.876  1.00  0.00    -0.348 OA
BRANCH  13  14
HETATM   14  C3  UNK     1      18.156   4.837  31.980  1.00  0.00     0.210 C 
BRANCH  14  15
HETATM   15  C2  UNK     1      18.170   6.172  32.729  1.00  0.00     0.175 C 
BRANCH  15  16
HETATM   16  C1  UNK     1      19.392   6.380  33.654  1.00  0.00     0.078 C 
HETATM   17  C4  UNK     1      20.695   6.425  32.845  1.00  0.00     0.048 C 
HETATM   18  C5  UNK     1      19.262   7.660  34.487  1.00  0.00     0.048 C 
BRANCH  16  19
HETATM   19  O2  UNK     1      19.475   5.271  34.553  1.00  0.00    -0.388 OA
HETATM   20  H10 UNK     1      19.512   5.618  35.461  1.00  0.00     0.210 HD
ENDBRANCH  16  19
ENDBRANCH  15  16
BRANCH  15  21
HETATM   21  O3  UNK     1      16.968   6.236  33.508  1.00  0.00    -0.390 OA
HETATM   22  H11 UNK     1      17.215   6.436  34.427  1.00  0.00     0.210 HD
ENDBRANCH  15  21
ENDBRANCH  14  15
ENDBRANCH  13  14
ENDBRANCH   3  13
TORSDOF 6
ENDMDL
MODEL 5
REMARK VINA RESULT:      -7.3      2.230      7.509
REMARK  6 active torsions:
REMARK  status: ('A' for Active; 'I' for Inactive)
REMARK    1  A    between atoms: C3_8  and  O1_1 
REMARK    2  A    between atoms: C6_11  and  O1_1 
REMARK    3  A    between atoms: C1_6  and  O2_2 
REMARK    4  A    between atoms: C2_7  and  O3_3 
REMARK    5  A    between atoms: C1_6  and  C2_7 
REMARK    6  A    between atoms: C2_7  and  C3_8 
ROOT
HETATM    1  O4  UNK     1      16.125   6.824  32.970  1.00  0.00    -0.275 OA
HETATM    2  O5  UNK     1      14.465   7.865  34.154  1.00  0.00    -0.260 OA
HETATM    3  C6  UNK     1      19.231   5.529  31.506  1.00  0.00     0.077 A 
HETATM    4  C7  UNK     1      20.194   6.188  32.268  1.00  0.00    -0.028 A 
HETATM    5  C8  UNK     1      17.878   5.742  31.741  1.00  0.00     0.075 A 
HETATM    6  C9  UNK     1      18.448   7.296  33.525  1.00  0.00    -0.001 A 
HETATM    7  C10 UNK     1      17.504   6.626  32.751  1.00  0.00     0.092 A 
HETATM    8  C11 UNK     1      19.805   7.072  33.278  1.00  0.00     0.023 A 
HETATM    9  C12 UNK     1      21.649   5.963  32.021  1.00  0.00     0.051 C 
HETATM   10  C13 UNK     1      17.988   8.203  34.561  1.00  0.00     0.020 A 
HETATM   11  C14 UNK     1      16.680   8.386  34.762  1.00  0.00     0.083 A 
HETATM   12  C15 UNK     1      15.662   7.688  33.956  1.00  0.00     0.288 A 
ENDROOT
BRANCH   3  13
HETATM   13  O1  UNK     1      19.604   4.661  30.515  1.00  0.00    -0.348 OA
BRANCH  13  14
HETATM   14  C3  UNK     1      18.666   3.648  30.165  1.00  0.00     0.210 C 
BRANCH  14  15
HETATM   15  C2  UNK     1      18.989   2.363  30.932  1.00  0.00     0.175 C 
BRANCH  15  16
HETATM   16  C1  UNK     1      18.931   1.072  30.081  1.00  0.00     0.078 C 
HETATM   17  C4  UNK     1      18.024   1.258  28.857  1.00  0.00     0.048 C 
HETATM   18  C5  UNK     1      20.325   0.631  29.624  1.00  0.00     0.048 C 
BRANCH  16  19
HETATM   19  O2  UNK     1      18.373   0.025  30.881  1.00  0.00    -0.388 OA
HETATM   20  H10 UNK     1      18.944  -0.758  30.796  1.00  0.00     0.210 HD
ENDBRANCH  16  19
ENDBRANCH  15  16
BRANCH  15  21
HETATM   21  O3  UNK     1      18.049   2.263  32.010  1.00  0.00    -0.390 OA
HETATM   22  H11 UNK     1      17.468   1.503  31.835  1.00  0.00     0.210 HD
ENDBRANCH  15  21
ENDBRANCH  14  15
ENDBRANCH  13  14
ENDBRANCH   3  13
TORSDOF 6
ENDMDL
MODEL 6
REMARK VINA RESULT:      -7.3      3.833      6.775
REMARK  6 active torsions:
REMARK  status: ('A' for Active; 'I' for Inactive)
REMARK    1  A    between atoms: C3_8  and  O1_1 
REMARK    2  A    between atoms: C6_11  and  O1_1 
REMARK    3  A    between atoms: C1_6  and  O2_2 
REMARK    4  A    between atoms: C2_7  and  O3_3 
REMARK    5  A    between atoms: C1_6  and  C2_7 
REMARK    6  A    between atoms: C2_7  and  C3_8 
ROOT
HETATM    1  O4  UNK     1      17.385   4.177  32.095  1.00  0.00    -0.275 OA
HETATM    2  O5  UNK     1      17.340   2.473  30.566  1.00  0.00    -0.260 OA
HETATM    3  C6  UNK     1      18.076   7.090  34.218  1.00  0.00     0.077 A 
HETATM    4  C7  UNK     1      19.279   7.545  33.682  1.00  0.00    -0.028 A 
HETATM    5  C8  UNK     1      17.447   5.969  33.688  1.00  0.00     0.075 A 
HETATM    6  C9  UNK     1      19.244   5.748  32.062  1.00  0.00    -0.001 A 
HETATM    7  C10 UNK     1      18.043   5.311  32.614  1.00  0.00     0.092 A 
HETATM    8  C11 UNK     1      19.865   6.876  32.604  1.00  0.00     0.023 A 
HETATM    9  C12 UNK     1      19.959   8.749  34.245  1.00  0.00     0.051 C 
HETATM   10  C13 UNK     1      19.809   5.014  30.943  1.00  0.00     0.020 A 
HETATM   11  C14 UNK     1      19.180   3.941  30.457  1.00  0.00     0.083 A 
HETATM   12  C15 UNK     1      17.907   3.459  31.024  1.00  0.00     0.288 A 
ENDROOT
BRANCH   3  13
HETATM   13  O1  UNK     1      17.495   7.740  35.273  1.00  0.00    -0.348 OA
BRANCH  13  14
HETATM   14  C3  UNK     1      16.194   8.277  35.056  1.00  0.00     0.210 C 
BRANCH  14  15
HETATM   15  C2  UNK     1      16.311   9.691  34.480  1.00  0.00     0.175 C 
BRANCH  15  16
HETATM   16  C1  UNK     1      15.235  10.683  34.979  1.00  0.00     0.078 C 
HETATM   17  C4  UNK     1      15.831  12.080  35.200  1.00  0.00     0.048 C 
HETATM   18  C5  UNK     1      14.055  10.777  34.006  1.00  0.00     0.048 C 
BRANCH  16  19
HETATM   19  O2  UNK     1      14.737  10.218  36.237  1.00  0.00    -0.388 OA
HETATM   20  H10 UNK     1      15.461   9.763  36.700  1.00  0.00     0.210 HD
ENDBRANCH  16  19
ENDBRANCH  15  16
BRANCH  15  21
HETATM   21  O3  UNK     1      16.228   9.578  33.054  1.00  0.00    -0.390 OA
HETATM   22  H11 UNK     1      16.955   9.007  32.753  1.00  0.00     0.210 HD
ENDBRANCH  15  21
ENDBRANCH  14  15
ENDBRANCH  13  14
ENDBRANCH   3  13
TORSDOF 6
ENDMDL
MODEL 7
REMARK VINA RESULT:      -7.1      3.516      5.549
REMARK  6 active torsions:
REMARK  status: ('A' for Active; 'I' for Inactive)
REMARK    1  A    between atoms: C3_8  and  O1_1 
REMARK    2  A    between atoms: C6_11  and  O1_1 
REMARK    3  A    between atoms: C1_6  and  O2_2 
REMARK    4  A    between atoms: C2_7  and  O3_3 
REMARK    5  A    between atoms: C1_6  and  C2_7 
REMARK    6  A    between atoms: C2_7  and  C3_8 
ROOT
HETATM    1  O4  UNK     1      18.677   0.675  30.236  1.00  0.00    -0.275 OA
HETATM    2  O5  UNK     1      18.688   1.340  28.045  1.00  0.00    -0.260 OA
HETATM    3  C6  UNK     1      19.114  -0.906  33.520  1.00  0.00     0.077 A 
HETATM    4  C7  UNK     1      19.993  -1.944  33.213  1.00  0.00    -0.028 A 
HETATM    5  C8  UNK     1      18.678  -0.035  32.528  1.00  0.00     0.075 A 
HETATM    6  C9  UNK     1      20.012  -1.251  30.895  1.00  0.00    -0.001 A 
HETATM    7  C10 UNK     1      19.134  -0.222  31.224  1.00  0.00     0.092 A 
HETATM    8  C11 UNK     1      20.443  -2.119  31.901  1.00  0.00     0.023 A 
HETATM    9  C12 UNK     1      20.467  -2.882  34.274  1.00  0.00     0.051 C 
HETATM   10  C13 UNK     1      20.447  -1.387  29.516  1.00  0.00     0.020 A 
HETATM   11  C14 UNK     1      20.009  -0.534  28.586  1.00  0.00     0.083 A 
HETATM   12  C15 UNK     1      19.080   0.564  28.910  1.00  0.00     0.288 A 
ENDROOT
BRANCH   3  13
HETATM   13  O1  UNK     1      18.670  -0.728  34.801  1.00  0.00    -0.348 OA
BRANCH  13  14
HETATM   14  C3  UNK     1      18.266   0.590  35.161  1.00  0.00     0.210 C 
BRANCH  14  15
HETATM   15  C2  UNK     1      18.701   0.886  36.599  1.00  0.00     0.175 C 
BRANCH  15  16
HETATM   16  C1  UNK     1      17.677   0.472  37.682  1.00  0.00     0.078 C 
HETATM   17  C4  UNK     1      16.240   0.736  37.212  1.00  0.00     0.048 C 
HETATM   18  C5  UNK     1      17.826  -1.004  38.069  1.00  0.00     0.048 C 
BRANCH  16  19
HETATM   19  O2  UNK     1      17.905   1.263  38.850  1.00  0.00    -0.388 OA
HETATM   20  H10 UNK     1      17.965   2.195  38.579  1.00  0.00     0.210 HD
ENDBRANCH  16  19
ENDBRANCH  15  16
BRANCH  15  21
HETATM   21  O3  UNK     1      18.942   2.296  36.689  1.00  0.00    -0.390 OA
HETATM   22  H11 UNK     1      18.124   2.758  36.441  1.00  0.00     0.210 HD
ENDBRANCH  15  21
ENDBRANCH  14  15
ENDBRANCH  13  14
ENDBRANCH   3  13
TORSDOF 6
ENDMDL
MODEL 8
REMARK VINA RESULT:      -7.1      2.817      4.422
REMARK  6 active torsions:
REMARK  status: ('A' for Active; 'I' for Inactive)
REMARK    1  A    between atoms: C3_8  and  O1_1 
REMARK    2  A    between atoms: C6_11  and  O1_1 
REMARK    3  A    between atoms: C1_6  and  O2_2 
REMARK    4  A    between atoms: C2_7  and  O3_3 
REMARK    5  A    between atoms: C1_6  and  C2_7 
REMARK    6  A    between atoms: C2_7  and  C3_8 
ROOT
HETATM    1  O4  UNK     1      19.878  -1.461  31.287  1.00  0.00    -0.275 OA
HETATM    2  O5  UNK     1      20.933  -3.185  30.212  1.00  0.00    -0.260 OA
HETATM    3  C6  UNK     1      18.307   1.666  32.394  1.00  0.00     0.077 A 
HETATM    4  C7  UNK     1      18.477   2.474  31.272  1.00  0.00    -0.028 A 
HETATM    5  C8  UNK     1      18.774   0.356  32.397  1.00  0.00     0.075 A 
HETATM    6  C9  UNK     1      19.595   0.660  30.126  1.00  0.00    -0.001 A 
HETATM    7  C10 UNK     1      19.414  -0.130  31.259  1.00  0.00     0.092 A 
HETATM    8  C11 UNK     1      19.120   1.974  30.136  1.00  0.00     0.023 A 
HETATM    9  C12 UNK     1      17.977   3.882  31.262  1.00  0.00     0.051 C 
HETATM   10  C13 UNK     1      20.271   0.089  28.974  1.00  0.00     0.020 A 
HETATM   11  C14 UNK     1      20.708  -1.172  29.009  1.00  0.00     0.083 A 
HETATM   12  C15 UNK     1      20.528  -2.029  30.196  1.00  0.00     0.288 A 
ENDROOT
BRANCH   3  13
HETATM   13  O1  UNK     1      17.677   2.148  33.509  1.00  0.00    -0.348 OA
BRANCH  13  14
HETATM   14  C3  UNK     1      18.154   1.679  34.767  1.00  0.00     0.210 C 
BRANCH  14  15
HETATM   15  C2  UNK     1      17.056   0.870  35.463  1.00  0.00     0.175 C 
BRANCH  15  16
HETATM   16  C1  UNK     1      17.510  -0.508  35.998  1.00  0.00     0.078 C 
HETATM   17  C4  UNK     1      18.988  -0.766  35.674  1.00  0.00     0.048 C 
HETATM   18  C5  UNK     1      17.287  -0.632  37.509  1.00  0.00     0.048 C 
BRANCH  16  19
HETATM   19  O2  UNK     1      16.739  -1.524  35.350  1.00  0.00    -0.388 OA
HETATM   20  H10 UNK     1      17.287  -2.324  35.282  1.00  0.00     0.210 HD
ENDBRANCH  16  19
ENDBRANCH  15  16
BRANCH  15  21
HETATM   21  O3  UNK     1      15.997   0.686  34.514  1.00  0.00    -0.390 OA
HETATM   22  H11 UNK     1      16.034   1.418  33.875  1.00  0.00     0.210 HD
ENDBRANCH  15  21
ENDBRANCH  14  15
ENDBRANCH  13  14
ENDBRANCH   3  13
TORSDOF 6
ENDMDL
MODEL 9
REMARK VINA RESULT:      -7.0      2.696      7.086
REMARK  6 active torsions:
REMARK  status: ('A' for Active; 'I' for Inactive)
REMARK    1  A    between atoms: C3_8  and  O1_1 
REMARK    2  A    between atoms: C6_11  and  O1_1 
REMARK    3  A    between atoms: C1_6  and  O2_2 
REMARK    4  A    between atoms: C2_7  and  O3_3 
REMARK    5  A    between atoms: C1_6  and  C2_7 
REMARK    6  A    between atoms: C2_7  and  C3_8 
ROOT
HETATM    1  O4  UNK     1      17.825   5.894  34.215  1.00  0.00    -0.275 OA
HETATM    2  O5  UNK     1      17.581   8.059  34.919  1.00  0.00    -0.260 OA
HETATM    3  C6  UNK     1      18.304   2.723  32.431  1.00  0.00     0.077 A 
HETATM    4  C7  UNK     1      18.483   3.165  31.121  1.00  0.00    -0.028 A 
HETATM    5  C8  UNK     1      18.085   3.633  33.459  1.00  0.00     0.075 A 
HETATM    6  C9  UNK     1      18.225   5.457  31.853  1.00  0.00    -0.001 A 
HETATM    7  C10 UNK     1      18.048   4.992  33.154  1.00  0.00     0.092 A 
HETATM    8  C11 UNK     1      18.444   4.532  30.830  1.00  0.00     0.023 A 
HETATM    9  C12 UNK     1      18.719   2.193  30.012  1.00  0.00     0.051 C 
HETATM   10  C13 UNK     1      18.174   6.887  31.608  1.00  0.00     0.020 A 
HETATM   11  C14 UNK     1      17.962   7.736  32.617  1.00  0.00     0.083 A 
HETATM   12  C15 UNK     1      17.773   7.268  34.003  1.00  0.00     0.288 A 
ENDROOT
BRANCH   3  13
HETATM   13  O1  UNK     1      18.341   1.387  32.724  1.00  0.00    -0.348 OA
BRANCH  13  14
HETATM   14  C3  UNK     1      18.265   1.031  34.101  1.00  0.00     0.210 C 
BRANCH  14  15
HETATM   15  C2  UNK     1      18.029  -0.476  34.230  1.00  0.00     0.175 C 
BRANCH  15  16
HETATM   16  C1  UNK     1      16.925  -0.872  35.239  1.00  0.00     0.078 C 
HETATM   17  C4  UNK     1      17.527  -1.550  36.477  1.00  0.00     0.048 C 
HETATM   18  C5  UNK     1      16.091   0.338  35.672  1.00  0.00     0.048 C 
BRANCH  16  19
HETATM   19  O2  UNK     1      16.051  -1.813  34.610  1.00  0.00    -0.388 OA
HETATM   20  H10 UNK     1      15.143  -1.631  34.910  1.00  0.00     0.210 HD
ENDBRANCH  16  19
ENDBRANCH  15  16
BRANCH  15  21
HETATM   21  O3  UNK     1      19.272  -1.069  34.629  1.00  0.00    -0.390 OA
HETATM   22  H11 UNK     1      19.079  -1.763  35.282  1.00  0.00     0.210 HD
ENDBRANCH  15  21
ENDBRANCH  14  15
ENDBRANCH  13  14
ENDBRANCH   3  13
TORSDOF 6
ENDMDL
MODEL 10
REMARK VINA RESULT:      -7.0      3.147      6.435
REMARK  6 active torsions:
REMARK  status: ('A' for Active; 'I' for Inactive)
REMARK    1  A    between atoms: C3_8  and  O1_1 
REMARK    2  A    between atoms: C6_11  and  O1_1 
REMARK    3  A    between atoms: C1_6  and  O2_2 
REMARK    4  A    between atoms: C2_7  and  O3_3 
REMARK    5  A    between atoms: C1_6  and  C2_7 
REMARK    6  A    between atoms: C2_7  and  C3_8 
ROOT
HETATM    1  O4  UNK     1      17.926   5.554  32.636  1.00  0.00    -0.275 OA
HETATM    2  O5  UNK     1      17.771   7.819  32.334  1.00  0.00    -0.260 OA
HETATM    3  C6  UNK     1      18.418   1.923  32.436  1.00  0.00     0.077 A 
HETATM    4  C7  UNK     1      18.895   1.778  31.135  1.00  0.00    -0.028 A 
HETATM    5  C8  UNK     1      18.097   3.180  32.934  1.00  0.00     0.075 A 
HETATM    6  C9  UNK     1      18.734   4.170  30.803  1.00  0.00    -0.001 A 
HETATM    7  C10 UNK     1      18.259   4.290  32.107  1.00  0.00     0.092 A 
HETATM    8  C11 UNK     1      19.054   2.900  30.316  1.00  0.00     0.023 A 
HETATM    9  C12 UNK     1      19.243   0.430  30.594  1.00  0.00     0.051 C 
HETATM   10  C13 UNK     1      18.878   5.369  29.997  1.00  0.00     0.020 A 
HETATM   11  C14 UNK     1      18.560   6.563  30.505  1.00  0.00     0.083 A 
HETATM   12  C15 UNK     1      18.057   6.716  31.882  1.00  0.00     0.288 A 
ENDROOT
BRANCH   3  13
HETATM   13  O1  UNK     1      18.261   0.829  33.244  1.00  0.00    -0.348 OA
BRANCH  13  14
HETATM   14  C3  UNK     1      17.549   1.030  34.462  1.00  0.00     0.210 C 
BRANCH  14  15
HETATM   15  C2  UNK     1      18.426   0.608  35.644  1.00  0.00     0.175 C 
BRANCH  15  16
HETATM   16  C1  UNK     1      17.677   0.488  36.992  1.00  0.00     0.078 C 
HETATM   17  C4  UNK     1      16.175   0.749  36.814  1.00  0.00     0.048 C 
HETATM   18  C5  UNK     1      17.886  -0.886  37.636  1.00  0.00     0.048 C 
BRANCH  16  19
HETATM   19  O2  UNK     1      18.188   1.480  37.886  1.00  0.00    -0.388 OA
HETATM   20  H10 UNK     1      17.434   1.932  38.301  1.00  0.00     0.210 HD
ENDBRANCH  16  19
ENDBRANCH  15  16
BRANCH  15  21
HETATM   21  O3  UNK     1      19.472   1.581  35.766  1.00  0.00    -0.390 OA
HETATM   22  H11 UNK     1      19.706   1.654  36.707  1.00  0.00     0.210 HD
ENDBRANCH  15  21
ENDBRANCH  14  15
ENDBRANCH  13  14
ENDBRANCH   3  13
TORSDOF 6
ENDMDL
