MODEL 1
REMARK VINA RESULT:      -8.3      0.000      0.000
REMARK  3 active torsions:
REMARK  status: ('A' for Active; 'I' for Inactive)
REMARK    1  A    between atoms: C7_12  and  N1_4 
REMARK    2  A    between atoms: C1_6  and  C3_8 
REMARK    3  A    between atoms: C2_7  and  C4_9 
ROOT
HETATM    1  N2  UNK     1      20.152   9.272  34.719  1.00  0.00    -0.191 NA
HETATM    2  C3  UNK     1      19.808   6.544  32.613  1.00  0.00     0.034 C 
HETATM    3  C4  UNK     1      19.033   7.478  33.222  1.00  0.00     0.055 C 
HETATM    4  C15 UNK     1      19.652   8.468  34.047  1.00  0.00     0.100 C 
ENDROOT
BRANCH   3   5
HETATM    5  C2  UNK     1      17.567   7.522  33.060  1.00  0.00    -0.015 A 
HETATM    6  C10 UNK     1      16.758   7.256  34.150  1.00  0.00     0.014 A 
HETATM    7  C12 UNK     1      15.372   7.297  33.995  1.00  0.00     0.024 A 
HETATM    8  C14 UNK     1      14.817   7.603  32.752  1.00  0.00     0.034 A 
HETATM    9  C13 UNK     1      15.649   7.868  31.664  1.00  0.00     0.024 A 
HETATM   10 Cl1  UNK     1      13.108   7.653  32.560  1.00  0.00    -0.084 Cl
HETATM   11  C11 UNK     1      17.034   7.828  31.819  1.00  0.00     0.014 A 
ENDBRANCH   3   5
BRANCH   2  12
HETATM   12  C1  UNK     1      19.355   5.456  31.760  1.00  0.00    -0.035 A 
HETATM   13  C5  UNK     1      19.608   5.493  30.389  1.00  0.00     0.014 A 
HETATM   14  C8  UNK     1      19.176   4.448  29.572  1.00  0.00     0.037 A 
HETATM   15  C7  UNK     1      18.491   3.367  30.126  1.00  0.00     0.102 A 
HETATM   16  C9  UNK     1      18.238   3.331  31.497  1.00  0.00     0.037 A 
HETATM   17  C6  UNK     1      18.670   4.375  32.314  1.00  0.00     0.014 A 
BRANCH  15  18
HETATM   18  N1  UNK     1      18.050   2.304  29.294  1.00  0.00    -0.116 N 
HETATM   19  O1  UNK     1      17.853   1.174  29.804  1.00  0.00    -0.532 OA
HETATM   20  O2  UNK     1      17.868   2.523  28.071  1.00  0.00    -0.532 OA
ENDBRANCH  15  18
ENDBRANCH   2  12
TORSDOF 3
ENDMDL
MODEL 2
REMARK VINA RESULT:      -6.9     18.251     19.677
REMARK  3 active torsions:
REMARK  status: ('A' for Active; 'I' for Inactive)
REMARK    1  A    between atoms: C7_12  and  N1_4 
REMARK    2  A    between atoms: C1_6  and  C3_8 
REMARK    3  A    between atoms: C2_7  and  C4_9 
ROOT
HETATM    1  N2  UNK     1      29.263  -3.836  39.868  1.00  0.00    -0.191 NA
HETATM    2  C3  UNK     1      32.043  -4.513  37.917  1.00  0.00     0.034 C 
HETATM    3  C4  UNK     1      30.796  -5.003  38.137  1.00  0.00     0.055 C 
HETATM    4  C15 UNK     1      29.951  -4.357  39.092  1.00  0.00     0.100 C 
ENDROOT
BRANCH   3   5
HETATM    5  C2  UNK     1      30.268  -6.180  37.420  1.00  0.00    -0.015 A 
HETATM    6  C10 UNK     1      29.724  -6.015  36.158  1.00  0.00     0.014 A 
HETATM    7  C12 UNK     1      29.224  -7.127  35.482  1.00  0.00     0.024 A 
HETATM    8  C14 UNK     1      29.273  -8.388  36.078  1.00  0.00     0.034 A 
HETATM    9  C13 UNK     1      29.824  -8.535  37.351  1.00  0.00     0.024 A 
HETATM   10 Cl1  UNK     1      28.656  -9.760  35.244  1.00  0.00    -0.084 Cl
HETATM   11  C11 UNK     1      30.325  -7.422  38.027  1.00  0.00     0.014 A 
ENDBRANCH   3   5
BRANCH   2  12
HETATM   12  C1  UNK     1      33.043  -5.048  37.005  1.00  0.00    -0.035 A 
HETATM   13  C5  UNK     1      33.186  -4.505  35.729  1.00  0.00     0.014 A 
HETATM   14  C8  UNK     1      34.146  -5.017  34.856  1.00  0.00     0.037 A 
HETATM   15  C7  UNK     1      34.963  -6.072  35.260  1.00  0.00     0.102 A 
HETATM   16  C9  UNK     1      34.821  -6.615  36.536  1.00  0.00     0.037 A 
HETATM   17  C6  UNK     1      33.860  -6.103  37.409  1.00  0.00     0.014 A 
BRANCH  15  18
HETATM   18  N1  UNK     1      35.940  -6.593  34.371  1.00  0.00    -0.116 N 
HETATM   19  O1  UNK     1      35.725  -6.551  33.136  1.00  0.00    -0.532 OA
HETATM   20  O2  UNK     1      36.995  -7.083  34.847  1.00  0.00    -0.532 OA
ENDBRANCH  15  18
ENDBRANCH   2  12
TORSDOF 3
ENDMDL
MODEL 3
REMARK VINA RESULT:      -6.8      3.897      6.547
REMARK  3 active torsions:
REMARK  status: ('A' for Active; 'I' for Inactive)
REMARK    1  A    between atoms: C7_12  and  N1_4 
REMARK    2  A    between atoms: C1_6  and  C3_8 
REMARK    3  A    between atoms: C2_7  and  C4_9 
ROOT
HETATM    1  N2  UNK     1      17.984   1.857  27.976  1.00  0.00    -0.191 NA
HETATM    2  C3  UNK     1      18.726   4.520  30.063  1.00  0.00     0.034 C 
HETATM    3  C4  UNK     1      18.470   3.189  30.144  1.00  0.00     0.055 C 
HETATM    4  C15 UNK     1      18.203   2.456  28.947  1.00  0.00     0.100 C 
ENDROOT
BRANCH   3   5
HETATM    5  C2  UNK     1      18.465   2.458  31.426  1.00  0.00    -0.015 A 
HETATM    6  C10 UNK     1      18.900   1.145  31.458  1.00  0.00     0.014 A 
HETATM    7  C12 UNK     1      18.893   0.455  32.670  1.00  0.00     0.024 A 
HETATM    8  C14 UNK     1      18.451   1.088  33.832  1.00  0.00     0.034 A 
HETATM    9  C13 UNK     1      18.015   2.412  33.780  1.00  0.00     0.024 A 
HETATM   10 Cl1  UNK     1      18.443   0.237  35.327  1.00  0.00    -0.084 Cl
HETATM   11  C11 UNK     1      18.022   3.102  32.568  1.00  0.00     0.014 A 
ENDBRANCH   3   5
BRANCH   2  12
HETATM   12  C1  UNK     1      18.997   5.426  31.169  1.00  0.00    -0.035 A 
HETATM   13  C5  UNK     1      17.951   6.128  31.767  1.00  0.00     0.014 A 
HETATM   14  C8  UNK     1      18.211   6.996  32.829  1.00  0.00     0.037 A 
HETATM   15  C7  UNK     1      19.516   7.160  33.291  1.00  0.00     0.102 A 
HETATM   16  C9  UNK     1      20.561   6.457  32.693  1.00  0.00     0.037 A 
HETATM   17  C6  UNK     1      20.302   5.590  31.632  1.00  0.00     0.014 A 
BRANCH  15  18
HETATM   18  N1  UNK     1      19.781   8.043  34.372  1.00  0.00    -0.116 N 
HETATM   19  O1  UNK     1      19.226   7.835  35.477  1.00  0.00    -0.532 OA
HETATM   20  O2  UNK     1      20.565   9.007  34.191  1.00  0.00    -0.532 OA
ENDBRANCH  15  18
ENDBRANCH   2  12
TORSDOF 3
ENDMDL
MODEL 4
REMARK VINA RESULT:      -6.8     17.049     18.808
REMARK  3 active torsions:
REMARK  status: ('A' for Active; 'I' for Inactive)
REMARK    1  A    between atoms: C7_12  and  N1_4 
REMARK    2  A    between atoms: C1_6  and  C3_8 
REMARK    3  A    between atoms: C2_7  and  C4_9 
ROOT
HETATM    1  N2  UNK     1      35.558  -5.776  36.478  1.00  0.00    -0.191 NA
HETATM    2  C3  UNK     1      32.346  -5.708  37.772  1.00  0.00     0.034 C 
HETATM    3  C4  UNK     1      32.973  -5.910  36.585  1.00  0.00     0.055 C 
HETATM    4  C15 UNK     1      34.399  -5.836  36.528  1.00  0.00     0.100 C 
ENDROOT
BRANCH   3   5
HETATM    5  C2  UNK     1      32.239  -6.214  35.342  1.00  0.00    -0.015 A 
HETATM    6  C10 UNK     1      31.801  -5.173  34.543  1.00  0.00     0.014 A 
HETATM    7  C12 UNK     1      31.107  -5.462  33.368  1.00  0.00     0.024 A 
HETATM    8  C14 UNK     1      30.860  -6.788  33.010  1.00  0.00     0.034 A 
HETATM    9  C13 UNK     1      31.309  -7.825  33.829  1.00  0.00     0.024 A 
HETATM   10 Cl1  UNK     1      30.004  -7.145  31.562  1.00  0.00    -0.084 Cl
HETATM   11  C11 UNK     1      32.004  -7.536  35.003  1.00  0.00     0.014 A 
ENDBRANCH   3   5
BRANCH   2  12
HETATM   12  C1  UNK     1      30.912  -5.723  38.016  1.00  0.00    -0.035 A 
HETATM   13  C5  UNK     1      30.248  -6.936  38.200  1.00  0.00     0.014 A 
HETATM   14  C8  UNK     1      28.873  -6.950  38.435  1.00  0.00     0.037 A 
HETATM   15  C7  UNK     1      28.162  -5.752  38.487  1.00  0.00     0.102 A 
HETATM   16  C9  UNK     1      28.826  -4.539  38.303  1.00  0.00     0.037 A 
HETATM   17  C6  UNK     1      30.201  -4.525  38.068  1.00  0.00     0.014 A 
BRANCH  15  18
HETATM   18  N1  UNK     1      26.763  -5.765  38.726  1.00  0.00    -0.116 N 
HETATM   19  O1  UNK     1      26.134  -6.843  38.600  1.00  0.00    -0.532 OA
HETATM   20  O2  UNK     1      26.192  -4.697  39.058  1.00  0.00    -0.532 OA
ENDBRANCH  15  18
ENDBRANCH   2  12
TORSDOF 3
ENDMDL
MODEL 5
REMARK VINA RESULT:      -6.7     16.145     17.963
REMARK  3 active torsions:
REMARK  status: ('A' for Active; 'I' for Inactive)
REMARK    1  A    between atoms: C7_12  and  N1_4 
REMARK    2  A    between atoms: C1_6  and  C3_8 
REMARK    3  A    between atoms: C2_7  and  C4_9 
ROOT
HETATM    1  N2  UNK     1      30.144  -2.002  31.146  1.00  0.00    -0.191 NA
HETATM    2  C3  UNK     1      30.596  -5.247  30.021  1.00  0.00     0.034 C 
HETATM    3  C4  UNK     1      30.135  -4.592  31.118  1.00  0.00     0.055 C 
HETATM    4  C15 UNK     1      30.140  -3.163  31.131  1.00  0.00     0.100 C 
ENDROOT
BRANCH   3   5
HETATM    5  C2  UNK     1      29.615  -5.300  32.304  1.00  0.00    -0.015 A 
HETATM    6  C10 UNK     1      30.476  -5.593  33.347  1.00  0.00     0.014 A 
HETATM    7  C12 UNK     1      29.984  -6.263  34.468  1.00  0.00     0.024 A 
HETATM    8  C14 UNK     1      28.639  -6.629  34.528  1.00  0.00     0.034 A 
HETATM    9  C13 UNK     1      27.786  -6.325  33.466  1.00  0.00     0.024 A 
HETATM   10 Cl1  UNK     1      28.032  -7.455  35.910  1.00  0.00    -0.084 Cl
HETATM   11  C11 UNK     1      28.278  -5.655  32.346  1.00  0.00     0.014 A 
ENDBRANCH   3   5
BRANCH   2  12
HETATM   12  C1  UNK     1      30.686  -6.687  29.837  1.00  0.00    -0.035 A 
HETATM   13  C5  UNK     1      31.822  -7.375  30.263  1.00  0.00     0.014 A 
HETATM   14  C8  UNK     1      31.907  -8.757  30.088  1.00  0.00     0.037 A 
HETATM   15  C7  UNK     1      30.856  -9.449  29.488  1.00  0.00     0.102 A 
HETATM   16  C9  UNK     1      29.720  -8.762  29.063  1.00  0.00     0.037 A 
HETATM   17  C6  UNK     1      29.634  -7.380  29.238  1.00  0.00     0.014 A 
BRANCH  15  18
HETATM   18  N1  UNK     1      30.942 -10.856  29.310  1.00  0.00    -0.116 N 
HETATM   19  O1  UNK     1      29.884 -11.522  29.206  1.00  0.00    -0.532 OA
HETATM   20  O2  UNK     1      32.075 -11.395  29.261  1.00  0.00    -0.532 OA
ENDBRANCH  15  18
ENDBRANCH   2  12
TORSDOF 3
ENDMDL
MODEL 6
REMARK VINA RESULT:      -6.7     16.763     18.567
REMARK  3 active torsions:
REMARK  status: ('A' for Active; 'I' for Inactive)
REMARK    1  A    between atoms: C7_12  and  N1_4 
REMARK    2  A    between atoms: C1_6  and  C3_8 
REMARK    3  A    between atoms: C2_7  and  C4_9 
ROOT
HETATM    1  N2  UNK     1      34.736  -7.215  32.721  1.00  0.00    -0.191 NA
HETATM    2  C3  UNK     1      32.954  -6.050  35.453  1.00  0.00     0.034 C 
HETATM    3  C4  UNK     1      32.732  -6.462  34.178  1.00  0.00     0.055 C 
HETATM    4  C15 UNK     1      33.839  -6.878  33.376  1.00  0.00     0.100 C 
ENDROOT
BRANCH   3   5
HETATM    5  C2  UNK     1      31.382  -6.508  33.583  1.00  0.00    -0.015 A 
HETATM    6  C10 UNK     1      30.649  -7.679  33.660  1.00  0.00     0.014 A 
HETATM    7  C12 UNK     1      29.373  -7.721  33.096  1.00  0.00     0.024 A 
HETATM    8  C14 UNK     1      28.852  -6.593  32.463  1.00  0.00     0.034 A 
HETATM    9  C13 UNK     1      29.606  -5.421  32.395  1.00  0.00     0.024 A 
HETATM   10 Cl1  UNK     1      27.279  -6.645  31.768  1.00  0.00    -0.084 Cl
HETATM   11  C11 UNK     1      30.881  -5.378  32.959  1.00  0.00     0.014 A 
ENDBRANCH   3   5
BRANCH   2  12
HETATM   12  C1  UNK     1      31.960  -5.574  36.403  1.00  0.00    -0.035 A 
HETATM   13  C5  UNK     1      31.649  -4.216  36.466  1.00  0.00     0.014 A 
HETATM   14  C8  UNK     1      30.694  -3.761  37.376  1.00  0.00     0.037 A 
HETATM   15  C7  UNK     1      30.052  -4.664  38.222  1.00  0.00     0.102 A 
HETATM   16  C9  UNK     1      30.364  -6.022  38.159  1.00  0.00     0.037 A 
HETATM   17  C6  UNK     1      31.318  -6.477  37.249  1.00  0.00     0.014 A 
BRANCH  15  18
HETATM   18  N1  UNK     1      29.080  -4.201  39.149  1.00  0.00    -0.116 N 
HETATM   19  O1  UNK     1      29.458  -3.549  40.152  1.00  0.00    -0.532 OA
HETATM   20  O2  UNK     1      27.869  -4.457  38.939  1.00  0.00    -0.532 OA
ENDBRANCH  15  18
ENDBRANCH   2  12
TORSDOF 3
ENDMDL
MODEL 7
REMARK VINA RESULT:      -6.6     22.164     23.795
REMARK  3 active torsions:
REMARK  status: ('A' for Active; 'I' for Inactive)
REMARK    1  A    between atoms: C7_12  and  N1_4 
REMARK    2  A    between atoms: C1_6  and  C3_8 
REMARK    3  A    between atoms: C2_7  and  C4_9 
ROOT
HETATM    1  N2  UNK     1      17.816   7.077  10.366  1.00  0.00    -0.191 NA
HETATM    2  C3  UNK     1      14.806   6.251   8.867  1.00  0.00     0.034 C 
HETATM    3  C4  UNK     1      15.364   7.278   9.557  1.00  0.00     0.055 C 
HETATM    4  C15 UNK     1      16.718   7.166  10.002  1.00  0.00     0.100 C 
ENDROOT
BRANCH   3   5
HETATM    5  C2  UNK     1      14.630   8.522   9.862  1.00  0.00    -0.015 A 
HETATM    6  C10 UNK     1      13.703   8.525  10.888  1.00  0.00     0.014 A 
HETATM    7  C12 UNK     1      13.008   9.700  11.176  1.00  0.00     0.024 A 
HETATM    8  C14 UNK     1      13.252  10.855  10.431  1.00  0.00     0.034 A 
HETATM    9  C13 UNK     1      14.191  10.833   9.399  1.00  0.00     0.024 A 
HETATM   10 Cl1  UNK     1      12.396  12.304  10.784  1.00  0.00    -0.084 Cl
HETATM   11  C11 UNK     1      14.885   9.657   9.112  1.00  0.00     0.014 A 
ENDBRANCH   3   5
BRANCH   2  12
HETATM   12  C1  UNK     1      13.445   6.180   8.356  1.00  0.00    -0.035 A 
HETATM   13  C5  UNK     1      12.442   5.587   9.123  1.00  0.00     0.014 A 
HETATM   14  C8  UNK     1      11.138   5.520   8.634  1.00  0.00     0.037 A 
HETATM   15  C7  UNK     1      10.836   6.046   7.379  1.00  0.00     0.102 A 
HETATM   16  C9  UNK     1      11.839   6.639   6.611  1.00  0.00     0.037 A 
HETATM   17  C6  UNK     1      13.144   6.705   7.100  1.00  0.00     0.014 A 
BRANCH  15  18
HETATM   18  N1  UNK     1       9.508   5.978   6.880  1.00  0.00    -0.116 N 
HETATM   19  O1  UNK     1       9.245   6.508   5.774  1.00  0.00    -0.532 OA
HETATM   20  O2  UNK     1       8.632   5.388   7.560  1.00  0.00    -0.532 OA
ENDBRANCH  15  18
ENDBRANCH   2  12
TORSDOF 3
ENDMDL
MODEL 8
REMARK VINA RESULT:      -6.6     17.640     18.971
REMARK  3 active torsions:
REMARK  status: ('A' for Active; 'I' for Inactive)
REMARK    1  A    between atoms: C7_12  and  N1_4 
REMARK    2  A    between atoms: C1_6  and  C3_8 
REMARK    3  A    between atoms: C2_7  and  C4_9 
ROOT
HETATM    1  N2  UNK     1      29.456  -3.641  40.008  1.00  0.00    -0.191 NA
HETATM    2  C3  UNK     1      28.928  -6.032  37.558  1.00  0.00     0.034 C 
HETATM    3  C4  UNK     1      29.947  -5.305  38.084  1.00  0.00     0.055 C 
HETATM    4  C15 UNK     1      29.674  -4.388  39.146  1.00  0.00     0.100 C 
ENDROOT
BRANCH   3   5
HETATM    5  C2  UNK     1      31.338  -5.429  37.609  1.00  0.00    -0.015 A 
HETATM    6  C10 UNK     1      31.788  -4.591  36.605  1.00  0.00     0.014 A 
HETATM    7  C12 UNK     1      33.103  -4.709  36.156  1.00  0.00     0.024 A 
HETATM    8  C14 UNK     1      33.949  -5.666  36.718  1.00  0.00     0.034 A 
HETATM    9  C13 UNK     1      33.478  -6.504  37.729  1.00  0.00     0.024 A 
HETATM   10 Cl1  UNK     1      35.571  -5.814  36.164  1.00  0.00    -0.084 Cl
HETATM   11  C11 UNK     1      32.163  -6.384  38.179  1.00  0.00     0.014 A 
ENDBRANCH   3   5
BRANCH   2  12
HETATM   12  C1  UNK     1      29.012  -6.991  36.467  1.00  0.00    -0.035 A 
HETATM   13  C5  UNK     1      29.259  -8.336  36.739  1.00  0.00     0.014 A 
HETATM   14  C8  UNK     1      29.338  -9.256  35.694  1.00  0.00     0.037 A 
HETATM   15  C7  UNK     1      29.169  -8.831  34.377  1.00  0.00     0.102 A 
HETATM   16  C9  UNK     1      28.921  -7.485  34.105  1.00  0.00     0.037 A 
HETATM   17  C6  UNK     1      28.842  -6.565  35.151  1.00  0.00     0.014 A 
BRANCH  15  18
HETATM   18  N1  UNK     1      29.249  -9.766  33.311  1.00  0.00    -0.116 N 
HETATM   19  O1  UNK     1      28.664  -9.511  32.232  1.00  0.00    -0.532 OA
HETATM   20  O2  UNK     1      29.904 -10.825  33.480  1.00  0.00    -0.532 OA
ENDBRANCH  15  18
ENDBRANCH   2  12
TORSDOF 3
ENDMDL
MODEL 9
REMARK VINA RESULT:      -6.6     17.299     19.125
REMARK  3 active torsions:
REMARK  status: ('A' for Active; 'I' for Inactive)
REMARK    1  A    between atoms: C7_12  and  N1_4 
REMARK    2  A    between atoms: C1_6  and  C3_8 
REMARK    3  A    between atoms: C2_7  and  C4_9 
ROOT
HETATM    1  N2  UNK     1      35.653  -6.618  33.163  1.00  0.00    -0.191 NA
HETATM    2  C3  UNK     1      33.575  -5.537  35.714  1.00  0.00     0.034 C 
HETATM    3  C4  UNK     1      33.490  -6.175  34.518  1.00  0.00     0.055 C 
HETATM    4  C15 UNK     1      34.685  -6.419  33.772  1.00  0.00     0.100 C 
ENDROOT
BRANCH   3   5
HETATM    5  C2  UNK     1      32.208  -6.641  33.955  1.00  0.00    -0.015 A 
HETATM    6  C10 UNK     1      31.846  -7.968  34.103  1.00  0.00     0.014 A 
HETATM    7  C12 UNK     1      30.634  -8.407  33.569  1.00  0.00     0.024 A 
HETATM    8  C14 UNK     1      29.803  -7.511  32.895  1.00  0.00     0.034 A 
HETATM    9  C13 UNK     1      30.185  -6.177  32.756  1.00  0.00     0.024 A 
HETATM   10 Cl1  UNK     1      28.309  -8.052  32.237  1.00  0.00    -0.084 Cl
HETATM   11  C11 UNK     1      31.396  -5.738  33.290  1.00  0.00     0.014 A 
ENDBRANCH   3   5
BRANCH   2  12
HETATM   12  C1  UNK     1      32.472  -5.187  36.596  1.00  0.00    -0.035 A 
HETATM   13  C5  UNK     1      32.023  -6.101  37.549  1.00  0.00     0.014 A 
HETATM   14  C8  UNK     1      30.967  -5.763  38.396  1.00  0.00     0.037 A 
HETATM   15  C7  UNK     1      30.360  -4.513  38.289  1.00  0.00     0.102 A 
HETATM   16  C9  UNK     1      30.809  -3.599  37.336  1.00  0.00     0.037 A 
HETATM   17  C6  UNK     1      31.865  -3.936  36.489  1.00  0.00     0.014 A 
BRANCH  15  18
HETATM   18  N1  UNK     1      29.285  -4.169  39.151  1.00  0.00    -0.116 N 
HETATM   19  O1  UNK     1      29.529  -3.533  40.204  1.00  0.00    -0.532 OA
HETATM   20  O2  UNK     1      28.119  -4.510  38.834  1.00  0.00    -0.532 OA
ENDBRANCH  15  18
ENDBRANCH   2  12
TORSDOF 3
ENDMDL
MODEL 10
REMARK VINA RESULT:      -6.5     13.132     15.680
REMARK  3 active torsions:
REMARK  status: ('A' for Active; 'I' for Inactive)
REMARK    1  A    between atoms: C7_12  and  N1_4 
REMARK    2  A    between atoms: C1_6  and  C3_8 
REMARK    3  A    between atoms: C2_7  and  C4_9 
ROOT
HETATM    1  N2  UNK     1      19.395 -11.739  38.404  1.00  0.00    -0.191 NA
HETATM    2  C3  UNK     1      19.265  -8.524  37.121  1.00  0.00     0.034 C 
HETATM    3  C4  UNK     1      20.151  -9.356  37.726  1.00  0.00     0.055 C 
HETATM    4  C15 UNK     1      19.732 -10.671  38.098  1.00  0.00     0.100 C 
ENDROOT
BRANCH   3   5
HETATM    5  C2  UNK     1      21.545  -8.961  38.009  1.00  0.00    -0.015 A 
HETATM    6  C10 UNK     1      22.514  -9.160  37.041  1.00  0.00     0.014 A 
HETATM    7  C12 UNK     1      23.831  -8.787  37.310  1.00  0.00     0.024 A 
HETATM    8  C14 UNK     1      24.159  -8.222  38.543  1.00  0.00     0.034 A 
HETATM    9  C13 UNK     1      23.168  -8.029  39.506  1.00  0.00     0.024 A 
HETATM   10 Cl1  UNK     1      25.783  -7.762  38.875  1.00  0.00    -0.084 Cl
HETATM   11  C11 UNK     1      21.852  -8.402  39.237  1.00  0.00     0.014 A 
ENDBRANCH   3   5
BRANCH   2  12
HETATM   12  C1  UNK     1      19.504  -7.154  36.693  1.00  0.00    -0.035 A 
HETATM   13  C5  UNK     1      19.881  -6.891  35.377  1.00  0.00     0.014 A 
HETATM   14  C8  UNK     1      20.109  -5.577  34.966  1.00  0.00     0.037 A 
HETATM   15  C7  UNK     1      19.960  -4.528  35.872  1.00  0.00     0.102 A 
HETATM   16  C9  UNK     1      19.584  -4.792  37.189  1.00  0.00     0.037 A 
HETATM   17  C6  UNK     1      19.356  -6.105  37.600  1.00  0.00     0.014 A 
BRANCH  15  18
HETATM   18  N1  UNK     1      20.193  -3.190  35.455  1.00  0.00    -0.116 N 
HETATM   19  O1  UNK     1      20.428  -2.962  34.245  1.00  0.00    -0.532 OA
HETATM   20  O2  UNK     1      20.155  -2.271  36.311  1.00  0.00    -0.532 OA
ENDBRANCH  15  18
ENDBRANCH   2  12
TORSDOF 3
ENDMDL
