MODEL 1
REMARK VINA RESULT:      -8.2      0.000      0.000
REMARK  5 active torsions:
REMARK  status: ('A' for Active; 'I' for Inactive)
REMARK    1  A    between atoms: C9_15  and  O2_2 
REMARK    2  A    between atoms: C4_10  and  O3_3 
REMARK    3  A    between atoms: C10_16  and  O4_4 
REMARK    4  A    between atoms: C15_21  and  O6_6 
REMARK    5  A    between atoms: C3_9  and  C6_12 
ROOT
HETATM    1  O1  UNK     1      19.092  -1.055  16.689  1.00  0.00    -0.309 OA
HETATM    2  O5  UNK     1      19.335   2.929  15.876  1.00  0.00    -0.287 OA
HETATM    3  C1  UNK     1      19.219   1.227  17.510  1.00  0.00     0.084 A 
HETATM    4  C2  UNK     1      19.135  -0.149  17.718  1.00  0.00     0.096 A 
HETATM    5  C3  UNK     1      19.143  -0.580  15.387  1.00  0.00     0.090 A 
HETATM    6  C4  UNK     1      19.259   2.103  18.598  1.00  0.00     0.119 A 
HETATM    7  C5  UNK     1      19.264   1.735  16.131  1.00  0.00     0.190 A 
HETATM    8  C7  UNK     1      19.219   0.720  15.060  1.00  0.00     0.094 A 
HETATM    9  C8  UNK     1      19.089  -0.658  19.016  1.00  0.00     0.077 A 
HETATM   10  C9  UNK     1      19.213   1.592  19.895  1.00  0.00     0.135 A 
HETATM   11  C10 UNK     1      19.128   0.214  20.104  1.00  0.00     0.104 A 
ENDROOT
BRANCH   5  12
HETATM   12  C6  UNK     1      19.086  -1.638  14.359  1.00  0.00    -0.002 A 
HETATM   13  C11 UNK     1      18.713  -2.939  14.710  1.00  0.00     0.017 A 
HETATM   14  C13 UNK     1      18.661  -3.938  13.739  1.00  0.00     0.037 A 
HETATM   15  C15 UNK     1      18.980  -3.642  12.414  1.00  0.00     0.068 A 
HETATM   16  C14 UNK     1      19.353  -2.345  12.060  1.00  0.00     0.037 A 
HETATM   17  C12 UNK     1      19.405  -1.345  13.030  1.00  0.00     0.017 A 
BRANCH  15  18
HETATM   18  O6  UNK     1      18.929  -4.618  11.467  1.00  0.00    -0.356 OA
HETATM   19  C17 UNK     1      18.787  -4.200  10.111  1.00  0.00     0.210 C 
ENDBRANCH  15  18
ENDBRANCH   5  12
BRANCH   6  20
HETATM   20  O3  UNK     1      19.339   3.454  18.433  1.00  0.00    -0.357 OA
HETATM   21  H7  UNK     1      19.379   3.685  17.492  1.00  0.00     0.218 HD
ENDBRANCH   6  20
BRANCH  11  22
HETATM   22  O4  UNK     1      19.083  -0.293  21.368  1.00  0.00    -0.358 OA
HETATM   23  H8  UNK     1      19.262  -1.247  21.334  1.00  0.00     0.217 HD
ENDBRANCH  11  22
BRANCH  10  24
HETATM   24  O2  UNK     1      19.250   2.438  20.964  1.00  0.00    -0.351 OA
HETATM   25  C16 UNK     1      20.449   2.454  21.736  1.00  0.00     0.210 C 
ENDBRANCH  10  24
TORSDOF 5
ENDMDL
MODEL 2
REMARK VINA RESULT:      -8.0     16.342     19.208
REMARK  5 active torsions:
REMARK  status: ('A' for Active; 'I' for Inactive)
REMARK    1  A    between atoms: C9_15  and  O2_2 
REMARK    2  A    between atoms: C4_10  and  O3_3 
REMARK    3  A    between atoms: C10_16  and  O4_4 
REMARK    4  A    between atoms: C15_21  and  O6_6 
REMARK    5  A    between atoms: C3_9  and  C6_12 
ROOT
HETATM    1  O1  UNK     1      18.279   3.952  34.563  1.00  0.00    -0.309 OA
HETATM    2  O5  UNK     1      18.303   1.708  31.163  1.00  0.00    -0.287 OA
HETATM    3  C1  UNK     1      18.344   1.758  33.525  1.00  0.00     0.084 A 
HETATM    4  C2  UNK     1      18.334   2.584  34.647  1.00  0.00     0.096 A 
HETATM    5  C3  UNK     1      18.223   4.536  33.306  1.00  0.00     0.090 A 
HETATM    6  C4  UNK     1      18.402   0.370  33.672  1.00  0.00     0.119 A 
HETATM    7  C5  UNK     1      18.294   2.373  32.190  1.00  0.00     0.190 A 
HETATM    8  C7  UNK     1      18.232   3.848  32.153  1.00  0.00     0.094 A 
HETATM    9  C8  UNK     1      18.383   2.027  35.925  1.00  0.00     0.077 A 
HETATM   10  C9  UNK     1      18.450  -0.186  34.951  1.00  0.00     0.135 A 
HETATM   11  C10 UNK     1      18.441   0.641  36.075  1.00  0.00     0.104 A 
ENDROOT
BRANCH   5  12
HETATM   12  C6  UNK     1      18.171   6.010  33.330  1.00  0.00    -0.002 A 
HETATM   13  C11 UNK     1      19.132   6.736  34.040  1.00  0.00     0.017 A 
HETATM   14  C13 UNK     1      19.082   8.128  34.064  1.00  0.00     0.037 A 
HETATM   15  C15 UNK     1      18.071   8.803  33.379  1.00  0.00     0.068 A 
HETATM   16  C14 UNK     1      17.110   8.083  32.669  1.00  0.00     0.037 A 
HETATM   17  C12 UNK     1      17.160   6.690  32.645  1.00  0.00     0.017 A 
BRANCH  15  18
HETATM   18  O6  UNK     1      18.023  10.163  33.403  1.00  0.00    -0.356 OA
HETATM   19  C17 UNK     1      16.961  10.762  34.143  1.00  0.00     0.210 C 
ENDBRANCH  15  18
ENDBRANCH   5  12
BRANCH   6  20
HETATM   20  O3  UNK     1      18.416  -0.470  32.596  1.00  0.00    -0.357 OA
HETATM   21  H7  UNK     1      17.524  -0.579  32.234  1.00  0.00     0.218 HD
ENDBRANCH   6  20
BRANCH  11  22
HETATM   22  O4  UNK     1      18.487   0.107  37.328  1.00  0.00    -0.358 OA
HETATM   23  H8  UNK     1      17.685  -0.422  37.478  1.00  0.00     0.217 HD
ENDBRANCH  11  22
BRANCH  10  24
HETATM   24  O2  UNK     1      18.508  -1.539  35.106  1.00  0.00    -0.351 OA
HETATM   25  C16 UNK     1      19.802  -2.120  35.241  1.00  0.00     0.210 C 
ENDBRANCH  10  24
TORSDOF 5
ENDMDL
MODEL 3
REMARK VINA RESULT:      -7.9     15.853     19.317
REMARK  5 active torsions:
REMARK  status: ('A' for Active; 'I' for Inactive)
REMARK    1  A    between atoms: C9_15  and  O2_2 
REMARK    2  A    between atoms: C4_10  and  O3_3 
REMARK    3  A    between atoms: C10_16  and  O4_4 
REMARK    4  A    between atoms: C15_21  and  O6_6 
REMARK    5  A    between atoms: C3_9  and  C6_12 
ROOT
HETATM    1  O1  UNK     1      18.962   0.456  34.118  1.00  0.00    -0.309 OA
HETATM    2  O5  UNK     1      17.624   0.563  37.964  1.00  0.00    -0.287 OA
HETATM    3  C1  UNK     1      18.639  -0.688  36.236  1.00  0.00     0.084 A 
HETATM    4  C2  UNK     1      19.075  -0.657  34.912  1.00  0.00     0.096 A 
HETATM    5  C3  UNK     1      18.397   1.600  34.660  1.00  0.00     0.090 A 
HETATM    6  C4  UNK     1      18.779  -1.851  36.997  1.00  0.00     0.119 A 
HETATM    7  C5  UNK     1      18.031   0.521  36.811  1.00  0.00     0.190 A 
HETATM    8  C7  UNK     1      17.936   1.693  35.917  1.00  0.00     0.094 A 
HETATM    9  C8  UNK     1      19.654  -1.790  34.340  1.00  0.00     0.077 A 
HETATM   10  C9  UNK     1      19.359  -2.983  36.424  1.00  0.00     0.135 A 
HETATM   11  C10 UNK     1      19.795  -2.953  35.099  1.00  0.00     0.104 A 
ENDROOT
BRANCH   5  12
HETATM   12  C6  UNK     1      18.320   2.735  33.719  1.00  0.00    -0.002 A 
HETATM   13  C11 UNK     1      18.258   2.503  32.342  1.00  0.00     0.017 A 
HETATM   14  C13 UNK     1      18.187   3.575  31.454  1.00  0.00     0.037 A 
HETATM   15  C15 UNK     1      18.177   4.883  31.937  1.00  0.00     0.068 A 
HETATM   16  C14 UNK     1      18.239   5.119  33.311  1.00  0.00     0.037 A 
HETATM   17  C12 UNK     1      18.310   4.047  34.199  1.00  0.00     0.017 A 
BRANCH  15  18
HETATM   18  O6  UNK     1      18.108   5.929  31.069  1.00  0.00    -0.356 OA
HETATM   19  C17 UNK     1      19.102   5.994  30.049  1.00  0.00     0.210 C 
ENDBRANCH  15  18
ENDBRANCH   5  12
BRANCH   6  20
HETATM   20  O3  UNK     1      18.362  -1.918  38.294  1.00  0.00    -0.357 OA
HETATM   21  H7  UNK     1      17.890  -1.111  38.547  1.00  0.00     0.218 HD
ENDBRANCH   6  20
BRANCH  11  22
HETATM   22  O4  UNK     1      20.362  -4.055  34.531  1.00  0.00    -0.358 OA
HETATM   23  H8  UNK     1      21.320  -4.037  34.691  1.00  0.00     0.217 HD
ENDBRANCH  11  22
BRANCH  10  24
HETATM   24  O2  UNK     1      19.500  -4.124  37.158  1.00  0.00    -0.351 OA
HETATM   25  C16 UNK     1      20.802  -4.415  37.658  1.00  0.00     0.210 C 
ENDBRANCH  10  24
TORSDOF 5
ENDMDL
MODEL 4
REMARK VINA RESULT:      -7.9     14.900     18.179
REMARK  5 active torsions:
REMARK  status: ('A' for Active; 'I' for Inactive)
REMARK    1  A    between atoms: C9_15  and  O2_2 
REMARK    2  A    between atoms: C4_10  and  O3_3 
REMARK    3  A    between atoms: C10_16  and  O4_4 
REMARK    4  A    between atoms: C15_21  and  O6_6 
REMARK    5  A    between atoms: C3_9  and  C6_12 
ROOT
HETATM    1  O1  UNK     1      18.017   3.345  33.351  1.00  0.00    -0.309 OA
HETATM    2  O5  UNK     1      19.008   2.599  29.471  1.00  0.00    -0.287 OA
HETATM    3  C1  UNK     1      18.670   1.743  31.647  1.00  0.00     0.084 A 
HETATM    4  C2  UNK     1      18.324   2.068  32.958  1.00  0.00     0.096 A 
HETATM    5  C3  UNK     1      18.045   4.355  32.400  1.00  0.00     0.090 A 
HETATM    6  C4  UNK     1      18.974   0.423  31.304  1.00  0.00     0.119 A 
HETATM    7  C5  UNK     1      18.710   2.812  30.639  1.00  0.00     0.190 A 
HETATM    8  C7  UNK     1      18.367   4.169  31.111  1.00  0.00     0.094 A 
HETATM    9  C8  UNK     1      18.280   1.073  33.935  1.00  0.00     0.077 A 
HETATM   10  C9  UNK     1      18.929  -0.570  32.283  1.00  0.00     0.135 A 
HETATM   11  C10 UNK     1      18.583  -0.246  33.596  1.00  0.00     0.104 A 
ENDROOT
BRANCH   5  12
HETATM   12  C6  UNK     1      17.703   5.689  32.931  1.00  0.00    -0.002 A 
HETATM   13  C11 UNK     1      16.619   6.398  32.405  1.00  0.00     0.017 A 
HETATM   14  C13 UNK     1      16.297   7.658  32.906  1.00  0.00     0.037 A 
HETATM   15  C15 UNK     1      17.056   8.215  33.935  1.00  0.00     0.068 A 
HETATM   16  C14 UNK     1      18.138   7.510  34.464  1.00  0.00     0.037 A 
HETATM   17  C12 UNK     1      18.460   6.250  33.963  1.00  0.00     0.017 A 
BRANCH  15  18
HETATM   18  O6  UNK     1      16.741   9.446  34.424  1.00  0.00    -0.356 OA
HETATM   19  C17 UNK     1      15.391   9.655  34.835  1.00  0.00     0.210 C 
ENDBRANCH  15  18
ENDBRANCH   5  12
BRANCH   6  20
HETATM   20  O3  UNK     1      19.319   0.069  30.033  1.00  0.00    -0.357 OA
HETATM   21  H7  UNK     1      18.780   0.547  29.385  1.00  0.00     0.218 HD
ENDBRANCH   6  20
BRANCH  11  22
HETATM   22  O4  UNK     1      18.538  -1.210  34.558  1.00  0.00    -0.358 OA
HETATM   23  H8  UNK     1      18.263  -2.050  34.153  1.00  0.00     0.217 HD
ENDBRANCH  11  22
BRANCH  10  24
HETATM   24  O2  UNK     1      19.225  -1.861  31.960  1.00  0.00    -0.351 OA
HETATM   25  C16 UNK     1      20.589  -2.260  32.071  1.00  0.00     0.210 C 
ENDBRANCH  10  24
TORSDOF 5
ENDMDL
MODEL 5
REMARK VINA RESULT:      -7.8      1.456      8.182
REMARK  5 active torsions:
REMARK  status: ('A' for Active; 'I' for Inactive)
REMARK    1  A    between atoms: C9_15  and  O2_2 
REMARK    2  A    between atoms: C4_10  and  O3_3 
REMARK    3  A    between atoms: C10_16  and  O4_4 
REMARK    4  A    between atoms: C15_21  and  O6_6 
REMARK    5  A    between atoms: C3_9  and  C6_12 
ROOT
HETATM    1  O1  UNK     1      19.445  -0.732  15.108  1.00  0.00    -0.309 OA
HETATM    2  O5  UNK     1      17.608  -4.354  15.423  1.00  0.00    -0.287 OA
HETATM    3  C1  UNK     1      18.799  -2.829  14.067  1.00  0.00     0.084 A 
HETATM    4  C2  UNK     1      19.409  -1.576  14.027  1.00  0.00     0.096 A 
HETATM    5  C3  UNK     1      18.855  -1.148  16.292  1.00  0.00     0.090 A 
HETATM    6  C4  UNK     1      18.792  -3.646  12.934  1.00  0.00     0.119 A 
HETATM    7  C5  UNK     1      18.164  -3.269  15.318  1.00  0.00     0.190 A 
HETATM    8  C7  UNK     1      18.233  -2.327  16.453  1.00  0.00     0.094 A 
HETATM    9  C8  UNK     1      20.017  -1.133  12.853  1.00  0.00     0.077 A 
HETATM   10  C9  UNK     1      19.402  -3.201  11.761  1.00  0.00     0.135 A 
HETATM   11  C10 UNK     1      20.012  -1.947  11.720  1.00  0.00     0.104 A 
ENDROOT
BRANCH   5  12
HETATM   12  C6  UNK     1      18.947  -0.163  17.387  1.00  0.00    -0.002 A 
HETATM   13  C11 UNK     1      18.978   1.205  17.101  1.00  0.00     0.017 A 
HETATM   14  C13 UNK     1      19.067   2.136  18.135  1.00  0.00     0.037 A 
HETATM   15  C15 UNK     1      19.124   1.703  19.460  1.00  0.00     0.068 A 
HETATM   16  C14 UNK     1      19.093   0.339  19.750  1.00  0.00     0.037 A 
HETATM   17  C12 UNK     1      19.004  -0.592  18.716  1.00  0.00     0.017 A 
BRANCH  15  18
HETATM   18  O6  UNK     1      19.211   2.612  20.469  1.00  0.00    -0.356 OA
HETATM   19  C17 UNK     1      19.764   2.161  21.704  1.00  0.00     0.210 C 
ENDBRANCH  15  18
ENDBRANCH   5  12
BRANCH   6  20
HETATM   20  O3  UNK     1      18.203  -4.877  12.936  1.00  0.00    -0.357 OA
HETATM   21  H7  UNK     1      18.869  -5.577  12.870  1.00  0.00     0.218 HD
ENDBRANCH   6  20
BRANCH  11  22
HETATM   22  O4  UNK     1      20.609  -1.505  10.577  1.00  0.00    -0.358 OA
HETATM   23  H8  UNK     1      20.624  -0.533  10.583  1.00  0.00     0.217 HD
ENDBRANCH  11  22
BRANCH  10  24
HETATM   24  O2  UNK     1      19.400  -3.991  10.649  1.00  0.00    -0.351 OA
HETATM   25  C16 UNK     1      20.509  -4.870  10.478  1.00  0.00     0.210 C 
ENDBRANCH  10  24
TORSDOF 5
ENDMDL
MODEL 6
REMARK VINA RESULT:      -7.8     13.702     17.509
REMARK  5 active torsions:
REMARK  status: ('A' for Active; 'I' for Inactive)
REMARK    1  A    between atoms: C9_15  and  O2_2 
REMARK    2  A    between atoms: C4_10  and  O3_3 
REMARK    3  A    between atoms: C10_16  and  O4_4 
REMARK    4  A    between atoms: C15_21  and  O6_6 
REMARK    5  A    between atoms: C3_9  and  C6_12 
ROOT
HETATM    1  O1  UNK     1      16.765   5.459  32.028  1.00  0.00    -0.309 OA
HETATM    2  O5  UNK     1      19.487   7.959  33.741  1.00  0.00    -0.287 OA
HETATM    3  C1  UNK     1      17.251   7.600  33.066  1.00  0.00     0.084 A 
HETATM    4  C2  UNK     1      16.373   6.697  32.470  1.00  0.00     0.096 A 
HETATM    5  C3  UNK     1      18.092   5.089  32.190  1.00  0.00     0.090 A 
HETATM    6  C4  UNK     1      16.796   8.849  33.496  1.00  0.00     0.119 A 
HETATM    7  C5  UNK     1      18.661   7.215  33.230  1.00  0.00     0.190 A 
HETATM    8  C7  UNK     1      19.032   5.871  32.742  1.00  0.00     0.094 A 
HETATM    9  C8  UNK     1      15.030   7.037  32.301  1.00  0.00     0.077 A 
HETATM   10  C9  UNK     1      15.453   9.187  33.326  1.00  0.00     0.135 A 
HETATM   11  C10 UNK     1      14.572   8.284  32.729  1.00  0.00     0.104 A 
ENDROOT
BRANCH   5  12
HETATM   12  C6  UNK     1      18.405   3.741  31.677  1.00  0.00    -0.002 A 
HETATM   13  C11 UNK     1      18.395   2.641  32.539  1.00  0.00     0.017 A 
HETATM   14  C13 UNK     1      18.693   1.368  32.054  1.00  0.00     0.037 A 
HETATM   15  C15 UNK     1      19.001   1.190  30.705  1.00  0.00     0.068 A 
HETATM   16  C14 UNK     1      19.011   2.285  29.841  1.00  0.00     0.037 A 
HETATM   17  C12 UNK     1      18.714   3.557  30.326  1.00  0.00     0.017 A 
BRANCH  15  18
HETATM   18  O6  UNK     1      19.291  -0.054  30.232  1.00  0.00    -0.356 OA
HETATM   19  C17 UNK     1      20.221  -0.137  29.154  1.00  0.00     0.210 C 
ENDBRANCH  15  18
ENDBRANCH   5  12
BRANCH   6  20
HETATM   20  O3  UNK     1      17.627   9.758  34.081  1.00  0.00    -0.357 OA
HETATM   21  H7  UNK     1      17.125  10.389  34.617  1.00  0.00     0.218 HD
ENDBRANCH   6  20
BRANCH  11  22
HETATM   22  O4  UNK     1      13.259   8.607  32.559  1.00  0.00    -0.358 OA
HETATM   23  H8  UNK     1      12.988   8.370  31.656  1.00  0.00     0.217 HD
ENDBRANCH  11  22
BRANCH  10  24
HETATM   24  O2  UNK     1      14.997  10.403  33.741  1.00  0.00    -0.351 OA
HETATM   25  C16 UNK     1      14.437  10.472  35.051  1.00  0.00     0.210 C 
ENDBRANCH  10  24
TORSDOF 5
ENDMDL
MODEL 7
REMARK VINA RESULT:      -7.7     19.235     22.072
REMARK  5 active torsions:
REMARK  status: ('A' for Active; 'I' for Inactive)
REMARK    1  A    between atoms: C9_15  and  O2_2 
REMARK    2  A    between atoms: C4_10  and  O3_3 
REMARK    3  A    between atoms: C10_16  and  O4_4 
REMARK    4  A    between atoms: C15_21  and  O6_6 
REMARK    5  A    between atoms: C3_9  and  C6_12 
ROOT
HETATM    1  O1  UNK     1      19.007  -4.822  36.768  1.00  0.00    -0.309 OA
HETATM    2  O5  UNK     1      22.741  -5.260  38.335  1.00  0.00    -0.287 OA
HETATM    3  C1  UNK     1      20.749  -6.296  37.599  1.00  0.00     0.084 A 
HETATM    4  C2  UNK     1      19.482  -6.075  37.062  1.00  0.00     0.096 A 
HETATM    5  C3  UNK     1      19.828  -3.731  37.007  1.00  0.00     0.090 A 
HETATM    6  C4  UNK     1      21.180  -7.595  37.880  1.00  0.00     0.119 A 
HETATM    7  C5  UNK     1      21.619  -5.140  37.863  1.00  0.00     0.190 A 
HETATM    8  C7  UNK     1      21.064  -3.814  37.525  1.00  0.00     0.094 A 
HETATM    9  C8  UNK     1      18.635  -7.153  36.804  1.00  0.00     0.077 A 
HETATM   10  C9  UNK     1      20.332  -8.672  37.620  1.00  0.00     0.135 A 
HETATM   11  C10 UNK     1      19.062  -8.452  37.083  1.00  0.00     0.104 A 
ENDROOT
BRANCH   5  12
HETATM   12  C6  UNK     1      19.218  -2.433  36.659  1.00  0.00    -0.002 A 
HETATM   13  C11 UNK     1      19.436  -1.869  35.399  1.00  0.00     0.017 A 
HETATM   14  C13 UNK     1      18.860  -0.643  35.071  1.00  0.00     0.037 A 
HETATM   15  C15 UNK     1      18.063   0.025  36.000  1.00  0.00     0.068 A 
HETATM   16  C14 UNK     1      17.842  -0.534  37.259  1.00  0.00     0.037 A 
HETATM   17  C12 UNK     1      18.418  -1.761  37.587  1.00  0.00     0.017 A 
BRANCH  15  18
HETATM   18  O6  UNK     1      17.501   1.223  35.679  1.00  0.00    -0.356 OA
HETATM   19  C17 UNK     1      18.282   2.115  34.887  1.00  0.00     0.210 C 
ENDBRANCH  15  18
ENDBRANCH   5  12
BRANCH   6  20
HETATM   20  O3  UNK     1      22.412  -7.849  38.407  1.00  0.00    -0.357 OA
HETATM   21  H7  UNK     1      23.071  -7.233  38.053  1.00  0.00     0.218 HD
ENDBRANCH   6  20
BRANCH  11  22
HETATM   22  O4  UNK     1      18.228  -9.499  36.827  1.00  0.00    -0.358 OA
HETATM   23  H8  UNK     1      18.297  -9.737  35.887  1.00  0.00     0.217 HD
ENDBRANCH  11  22
BRANCH  10  24
HETATM   24  O2  UNK     1      20.741  -9.944  37.891  1.00  0.00    -0.351 OA
HETATM   25  C16 UNK     1      21.343 -10.672  36.824  1.00  0.00     0.210 C 
ENDBRANCH  10  24
TORSDOF 5
ENDMDL
MODEL 8
REMARK VINA RESULT:      -7.6     19.092     22.083
REMARK  5 active torsions:
REMARK  status: ('A' for Active; 'I' for Inactive)
REMARK    1  A    between atoms: C9_15  and  O2_2 
REMARK    2  A    between atoms: C4_10  and  O3_3 
REMARK    3  A    between atoms: C10_16  and  O4_4 
REMARK    4  A    between atoms: C15_21  and  O6_6 
REMARK    5  A    between atoms: C3_9  and  C6_12 
ROOT
HETATM    1  O1  UNK     1      20.458  -5.900  35.774  1.00  0.00    -0.309 OA
HETATM    2  O5  UNK     1      21.048  -7.198  39.590  1.00  0.00    -0.287 OA
HETATM    3  C1  UNK     1      21.083  -7.699  37.281  1.00  0.00     0.084 A 
HETATM    4  C2  UNK     1      20.863  -7.191  36.002  1.00  0.00     0.096 A 
HETATM    5  C3  UNK     1      20.270  -5.064  36.864  1.00  0.00     0.090 A 
HETATM    6  C4  UNK     1      21.494  -9.023  37.453  1.00  0.00     0.119 A 
HETATM    7  C5  UNK     1      20.876  -6.818  38.439  1.00  0.00     0.190 A 
HETATM    8  C7  UNK     1      20.445  -5.437  38.141  1.00  0.00     0.094 A 
HETATM    9  C8  UNK     1      21.051  -8.006  34.885  1.00  0.00     0.077 A 
HETATM   10  C9  UNK     1      21.682  -9.836  36.335  1.00  0.00     0.135 A 
HETATM   11  C10 UNK     1      21.460  -9.329  35.054  1.00  0.00     0.104 A 
ENDROOT
BRANCH   5  12
HETATM   12  C6  UNK     1      19.832  -3.701  36.505  1.00  0.00    -0.002 A 
HETATM   13  C11 UNK     1      19.106  -2.933  37.420  1.00  0.00     0.017 A 
HETATM   14  C13 UNK     1      18.692  -1.646  37.081  1.00  0.00     0.037 A 
HETATM   15  C15 UNK     1      19.000  -1.121  35.826  1.00  0.00     0.068 A 
HETATM   16  C14 UNK     1      19.725  -1.885  34.910  1.00  0.00     0.037 A 
HETATM   17  C12 UNK     1      20.139  -3.171  35.249  1.00  0.00     0.017 A 
BRANCH  15  18
HETATM   18  O6  UNK     1      18.595   0.136  35.495  1.00  0.00    -0.356 OA
HETATM   19  C17 UNK     1      18.053   0.940  36.542  1.00  0.00     0.210 C 
ENDBRANCH  15  18
ENDBRANCH   5  12
BRANCH   6  20
HETATM   20  O3  UNK     1      21.717  -9.555  38.689  1.00  0.00    -0.357 OA
HETATM   21  H7  UNK     1      22.055  -8.881  39.298  1.00  0.00     0.218 HD
ENDBRANCH   6  20
BRANCH  11  22
HETATM   22  O4  UNK     1      21.642 -10.117  33.957  1.00  0.00    -0.358 OA
HETATM   23  H8  UNK     1      22.552 -10.007  33.634  1.00  0.00     0.217 HD
ENDBRANCH  11  22
BRANCH  10  24
HETATM   24  O2  UNK     1      22.082 -11.131  36.491  1.00  0.00    -0.351 OA
HETATM   25  C16 UNK     1      23.399 -11.458  36.056  1.00  0.00     0.210 C 
ENDBRANCH  10  24
TORSDOF 5
ENDMDL
MODEL 9
REMARK VINA RESULT:      -7.5     13.631     18.030
REMARK  5 active torsions:
REMARK  status: ('A' for Active; 'I' for Inactive)
REMARK    1  A    between atoms: C9_15  and  O2_2 
REMARK    2  A    between atoms: C4_10  and  O3_3 
REMARK    3  A    between atoms: C10_16  and  O4_4 
REMARK    4  A    between atoms: C15_21  and  O6_6 
REMARK    5  A    between atoms: C3_9  and  C6_12 
ROOT
HETATM    1  O1  UNK     1      18.184   4.131  31.491  1.00  0.00    -0.309 OA
HETATM    2  O5  UNK     1      18.677   1.544  34.599  1.00  0.00    -0.287 OA
HETATM    3  C1  UNK     1      18.672   1.879  32.260  1.00  0.00     0.084 A 
HETATM    4  C2  UNK     1      18.489   2.817  31.244  1.00  0.00     0.096 A 
HETATM    5  C3  UNK     1      18.061   4.545  32.809  1.00  0.00     0.090 A 
HETATM    6  C4  UNK     1      18.980   0.553  31.949  1.00  0.00     0.119 A 
HETATM    7  C5  UNK     1      18.533   2.313  33.658  1.00  0.00     0.190 A 
HETATM    8  C7  UNK     1      18.208   3.738  33.871  1.00  0.00     0.094 A 
HETATM    9  C8  UNK     1      18.613   2.432  29.909  1.00  0.00     0.077 A 
HETATM   10  C9  UNK     1      19.105   0.171  30.613  1.00  0.00     0.135 A 
HETATM   11  C10 UNK     1      18.921   1.108  29.595  1.00  0.00     0.104 A 
ENDROOT
BRANCH   5  12
HETATM   12  C6  UNK     1      17.728   5.975  32.959  1.00  0.00    -0.002 A 
HETATM   13  C11 UNK     1      18.546   6.810  33.725  1.00  0.00     0.017 A 
HETATM   14  C13 UNK     1      18.230   8.161  33.868  1.00  0.00     0.037 A 
HETATM   15  C15 UNK     1      17.096   8.682  33.246  1.00  0.00     0.068 A 
HETATM   16  C14 UNK     1      16.277   7.852  32.480  1.00  0.00     0.037 A 
HETATM   17  C12 UNK     1      16.592   6.502  32.337  1.00  0.00     0.017 A 
BRANCH  15  18
HETATM   18  O6  UNK     1      16.788  10.001  33.386  1.00  0.00    -0.356 OA
HETATM   19  C17 UNK     1      15.969  10.362  34.497  1.00  0.00     0.210 C 
ENDBRANCH  15  18
ENDBRANCH   5  12
BRANCH   6  20
HETATM   20  O3  UNK     1      19.164  -0.391  32.916  1.00  0.00    -0.357 OA
HETATM   21  H7  UNK     1      20.101  -0.469  33.148  1.00  0.00     0.218 HD
ENDBRANCH   6  20
BRANCH  11  22
HETATM   22  O4  UNK     1      19.041   0.742  28.288  1.00  0.00    -0.358 OA
HETATM   23  H8  UNK     1      18.703   1.459  27.725  1.00  0.00     0.217 HD
ENDBRANCH  11  22
BRANCH  10  24
HETATM   24  O2  UNK     1      19.405  -1.122  30.298  1.00  0.00    -0.351 OA
HETATM   25  C16 UNK     1      20.774  -1.424  30.039  1.00  0.00     0.210 C 
ENDBRANCH  10  24
TORSDOF 5
ENDMDL
MODEL 10
REMARK VINA RESULT:      -7.5     13.514     18.537
REMARK  5 active torsions:
REMARK  status: ('A' for Active; 'I' for Inactive)
REMARK    1  A    between atoms: C9_15  and  O2_2 
REMARK    2  A    between atoms: C4_10  and  O3_3 
REMARK    3  A    between atoms: C10_16  and  O4_4 
REMARK    4  A    between atoms: C15_21  and  O6_6 
REMARK    5  A    between atoms: C3_9  and  C6_12 
ROOT
HETATM    1  O1  UNK     1      16.507   7.459  32.203  1.00  0.00    -0.309 OA
HETATM    2  O5  UNK     1      19.084   9.619  34.502  1.00  0.00    -0.287 OA
HETATM    3  C1  UNK     1      16.907   9.398  33.610  1.00  0.00     0.084 A 
HETATM    4  C2  UNK     1      16.079   8.612  32.810  1.00  0.00     0.096 A 
HETATM    5  C3  UNK     1      17.819   7.055  32.401  1.00  0.00     0.090 A 
HETATM    6  C4  UNK     1      16.417  10.563  34.203  1.00  0.00     0.119 A 
HETATM    7  C5  UNK     1      18.301   8.977  33.815  1.00  0.00     0.190 A 
HETATM    8  C7  UNK     1      18.712   7.727  33.144  1.00  0.00     0.094 A 
HETATM    9  C8  UNK     1      14.753   8.989  32.597  1.00  0.00     0.077 A 
HETATM   10  C9  UNK     1      15.090  10.938  33.990  1.00  0.00     0.135 A 
HETATM   11  C10 UNK     1      14.260  10.153  33.188  1.00  0.00     0.104 A 
ENDROOT
BRANCH   5  12
HETATM   12  C6  UNK     1      18.174   5.806  31.700  1.00  0.00    -0.002 A 
HETATM   13  C11 UNK     1      18.735   5.853  30.420  1.00  0.00     0.017 A 
HETATM   14  C13 UNK     1      19.069   4.674  29.758  1.00  0.00     0.037 A 
HETATM   15  C15 UNK     1      18.845   3.441  30.371  1.00  0.00     0.068 A 
HETATM   16  C14 UNK     1      18.285   3.389  31.648  1.00  0.00     0.037 A 
HETATM   17  C12 UNK     1      17.951   4.569  32.311  1.00  0.00     0.017 A 
BRANCH  15  18
HETATM   18  O6  UNK     1      19.172   2.289  29.723  1.00  0.00    -0.356 OA
HETATM   19  C17 UNK     1      18.211   1.763  28.809  1.00  0.00     0.210 C 
ENDBRANCH  15  18
ENDBRANCH   5  12
BRANCH   6  20
HETATM   20  O3  UNK     1      17.199  11.357  34.990  1.00  0.00    -0.357 OA
HETATM   21  H7  UNK     1      17.550  12.104  34.483  1.00  0.00     0.218 HD
ENDBRANCH   6  20
BRANCH  11  22
HETATM   22  O4  UNK     1      12.963  10.512  32.974  1.00  0.00    -0.358 OA
HETATM   23  H8  UNK     1      12.728  11.232  33.584  1.00  0.00     0.217 HD
ENDBRANCH  11  22
BRANCH  10  24
HETATM   24  O2  UNK     1      14.600  12.075  34.563  1.00  0.00    -0.351 OA
HETATM   25  C16 UNK     1      14.011  11.946  35.854  1.00  0.00     0.210 C 
ENDBRANCH  10  24
TORSDOF 5
ENDMDL
