MODEL 1
REMARK VINA RESULT:      -8.7      0.000      0.000
REMARK  11 active torsions:
REMARK  status: ('A' for Active; 'I' for Inactive)
REMARK    1  A    between atoms: C13_26  and  O2_7 
REMARK    2  A    between atoms: C19_32  and  O2_7 
REMARK    3  A    between atoms: C17_30  and  O3_8 
REMARK    4  A    between atoms: C20_33  and  O3_8 
REMARK    5  A    between atoms: C14_27  and  N1_12 
REMARK    6  A    between atoms: C4_17  and  N1_12 
REMARK    7  A    between atoms: C14_27  and  N2_13 
REMARK    8  A    between atoms: C7_20  and  N2_13 
REMARK    9  A    between atoms: C13_26  and  C2_15 
REMARK   10  A    between atoms: C17_30  and  C6_19 
REMARK   11  A    between atoms: C16_29  and  C8_21 
ROOT
HETATM    1  S2  UNK     1      19.783   5.465  31.259  1.00  0.00    -0.040 SA
HETATM    2  C14 UNK     1      18.706   5.191  32.524  1.00  0.00     0.177 C 
ENDROOT
BRANCH   2   3
HETATM    3  N1  UNK     1      17.858   4.120  32.450  1.00  0.00    -0.326 N 
HETATM    4  H4  UNK     1      16.874   4.344  32.325  1.00  0.00     0.169 HD
BRANCH   3   5
HETATM    5  C4  UNK     1      18.126   2.798  32.823  1.00  0.00     0.094 A 
HETATM    6  C2  UNK     1      18.402   1.677  32.071  1.00  0.00     0.080 A 
HETATM    7  C1  UNK     1      18.611   0.525  32.883  1.00  0.00    -0.020 A 
HETATM    8  C6  UNK     1      18.487   0.810  34.225  1.00  0.00     0.089 A 
HETATM    9  C12 UNK     1      18.927  -0.823  32.346  1.00  0.00     0.051 C 
HETATM   10  S1  UNK     1      18.119   2.459  34.501  1.00  0.00    -0.065 SA
BRANCH   6  11
HETATM   11  C13 UNK     1      18.462   1.707  30.630  1.00  0.00     0.296 C 
HETATM   12  O4  UNK     1      17.542   2.119  29.909  1.00  0.00    -0.259 OA
BRANCH  11  13
HETATM   13  O2  UNK     1      19.647   1.232  30.111  1.00  0.00    -0.318 OA
BRANCH  13  14
HETATM   14  C19 UNK     1      19.554   0.392  28.954  1.00  0.00     0.174 C 
HETATM   15  C21 UNK     1      20.632  -0.669  29.028  1.00  0.00     0.034 C 
ENDBRANCH  13  14
ENDBRANCH  11  13
ENDBRANCH   6  11
BRANCH   8  16
HETATM   16  C17 UNK     1      18.622  -0.060  35.350  1.00  0.00     0.300 C 
HETATM   17  O5  UNK     1      19.689  -0.605  35.695  1.00  0.00    -0.259 OA
BRANCH  16  18
HETATM   18  O3  UNK     1      17.451  -0.267  36.057  1.00  0.00    -0.317 OA
BRANCH  18  19
HETATM   19  C20 UNK     1      17.543  -0.310  37.486  1.00  0.00     0.174 C 
HETATM   20  C22 UNK     1      17.565   1.105  38.021  1.00  0.00     0.034 C 
ENDBRANCH  18  19
ENDBRANCH  16  18
ENDBRANCH   8  16
ENDBRANCH   3   5
ENDBRANCH   2   3
BRANCH   2  21
HETATM   21  N2  UNK     1      18.719   6.035  33.621  1.00  0.00    -0.333 N 
HETATM   22  H8  UNK     1      19.561   5.957  34.185  1.00  0.00     0.168 HD
BRANCH  21  23
HETATM   23  C7  UNK     1      18.007   7.209  33.867  1.00  0.00     0.036 A 
HETATM   24  C11 UNK     1      16.690   7.146  34.317  1.00  0.00     0.030 A 
HETATM   25  C10 UNK     1      15.969   8.320  34.565  1.00  0.00     0.017 A 
HETATM   26  C3  UNK     1      16.557   9.576  34.366  1.00  0.00     0.013 A 
HETATM   27  C5  UNK     1      17.877   9.609  33.915  1.00  0.00     0.092 A 
HETATM   28  C8  UNK     1      15.864  10.849  34.605  1.00  0.00     0.066 A 
HETATM   29  O1  UNK     1      18.541  10.832  33.690  1.00  0.00    -0.275 OA
HETATM   30  C9  UNK     1      18.609   8.446  33.664  1.00  0.00     0.067 A 
HETATM   31  C18 UNK     1      17.911  12.048  33.906  1.00  0.00     0.289 A 
HETATM   32  C15 UNK     1      16.520  11.997  34.382  1.00  0.00     0.099 A 
HETATM   33  O6  UNK     1      18.479  13.117  33.714  1.00  0.00    -0.260 OA
BRANCH  28  34
HETATM   34  C16 UNK     1      14.444  10.848  35.091  1.00  0.00     0.418 C 
HETATM   35  F1  UNK     1      13.665  10.094  34.291  1.00  0.00    -0.166 F 
HETATM   36  F2  UNK     1      14.363  10.349  36.340  1.00  0.00    -0.166 F 
HETATM   37  F3  UNK     1      13.938  12.097  35.108  1.00  0.00    -0.166 F 
ENDBRANCH  28  34
ENDBRANCH  21  23
ENDBRANCH   2  21
TORSDOF 11
ENDMDL
MODEL 2
REMARK VINA RESULT:      -8.7      8.445     13.707
REMARK  11 active torsions:
REMARK  status: ('A' for Active; 'I' for Inactive)
REMARK    1  A    between atoms: C13_26  and  O2_7 
REMARK    2  A    between atoms: C19_32  and  O2_7 
REMARK    3  A    between atoms: C17_30  and  O3_8 
REMARK    4  A    between atoms: C20_33  and  O3_8 
REMARK    5  A    between atoms: C14_27  and  N1_12 
REMARK    6  A    between atoms: C4_17  and  N1_12 
REMARK    7  A    between atoms: C14_27  and  N2_13 
REMARK    8  A    between atoms: C7_20  and  N2_13 
REMARK    9  A    between atoms: C13_26  and  C2_15 
REMARK   10  A    between atoms: C17_30  and  C6_19 
REMARK   11  A    between atoms: C16_29  and  C8_21 
ROOT
HETATM    1  S2  UNK     1      20.596  -2.211  36.452  1.00  0.00    -0.040 SA
HETATM    2  C14 UNK     1      19.056  -2.854  36.226  1.00  0.00     0.177 C 
ENDROOT
BRANCH   2   3
HETATM    3  N1  UNK     1      18.101  -2.084  35.621  1.00  0.00    -0.326 N 
HETATM    4  H4  UNK     1      17.143  -2.416  35.709  1.00  0.00     0.169 HD
BRANCH   3   5
HETATM    5  C4  UNK     1      18.299  -1.089  34.656  1.00  0.00     0.094 A 
HETATM    6  C2  UNK     1      17.927   0.238  34.626  1.00  0.00     0.080 A 
HETATM    7  C1  UNK     1      18.345   0.883  33.426  1.00  0.00    -0.020 A 
HETATM    8  C6  UNK     1      19.019   0.026  32.586  1.00  0.00     0.089 A 
HETATM    9  C12 UNK     1      18.083   2.313  33.120  1.00  0.00     0.051 C 
HETATM   10  S1  UNK     1      19.146  -1.550  33.242  1.00  0.00    -0.065 SA
BRANCH   6  11
HETATM   11  C13 UNK     1      17.201   0.862  35.704  1.00  0.00     0.296 C 
HETATM   12  O4  UNK     1      15.965   0.844  35.806  1.00  0.00    -0.259 OA
BRANCH  11  13
HETATM   13  O2  UNK     1      18.005   1.493  36.628  1.00  0.00    -0.318 OA
BRANCH  13  14
HETATM   14  C19 UNK     1      17.638   1.355  38.006  1.00  0.00     0.174 C 
HETATM   15  C21 UNK     1      17.900  -0.070  38.445  1.00  0.00     0.034 C 
ENDBRANCH  13  14
ENDBRANCH  11  13
ENDBRANCH   6  11
BRANCH   8  16
HETATM   16  C17 UNK     1      19.592   0.283  31.303  1.00  0.00     0.300 C 
HETATM   17  O5  UNK     1      20.812   0.223  31.051  1.00  0.00    -0.259 OA
BRANCH  16  18
HETATM   18  O3  UNK     1      18.674   0.614  30.322  1.00  0.00    -0.317 OA
BRANCH  18  19
HETATM   19  C20 UNK     1      18.959   1.763  29.515  1.00  0.00     0.174 C 
HETATM   20  C22 UNK     1      17.813   1.986  28.553  1.00  0.00     0.034 C 
ENDBRANCH  18  19
ENDBRANCH  16  18
ENDBRANCH   8  16
ENDBRANCH   3   5
ENDBRANCH   2   3
BRANCH   2  21
HETATM   21  N2  UNK     1      18.796  -4.151  36.633  1.00  0.00    -0.333 N 
HETATM   22  H8  UNK     1      17.805  -4.362  36.710  1.00  0.00     0.168 HD
BRANCH  21  23
HETATM   23  C7  UNK     1      19.593  -5.295  36.573  1.00  0.00     0.036 A 
HETATM   24  C11 UNK     1      19.328  -6.282  35.626  1.00  0.00     0.030 A 
HETATM   25  C10 UNK     1      20.123  -7.431  35.560  1.00  0.00     0.017 A 
HETATM   26  C3  UNK     1      21.197  -7.610  36.443  1.00  0.00     0.013 A 
HETATM   27  C5  UNK     1      21.439  -6.606  37.380  1.00  0.00     0.092 A 
HETATM   28  C8  UNK     1      22.073  -8.789  36.433  1.00  0.00     0.066 A 
HETATM   29  O1  UNK     1      22.499  -6.709  38.303  1.00  0.00    -0.275 OA
HETATM   30  C9  UNK     1      20.654  -5.453  37.457  1.00  0.00     0.067 A 
HETATM   31  C18 UNK     1      23.342  -7.810  38.318  1.00  0.00     0.289 A 
HETATM   32  C15 UNK     1      23.074  -8.861  37.323  1.00  0.00     0.099 A 
HETATM   33  O6  UNK     1      24.267  -7.910  39.116  1.00  0.00    -0.260 OA
BRANCH  28  34
HETATM   34  C16 UNK     1      21.840  -9.887  35.437  1.00  0.00     0.418 C 
HETATM   35  F1  UNK     1      22.866 -10.759  35.437  1.00  0.00    -0.166 F 
HETATM   36  F2  UNK     1      20.714 -10.569  35.726  1.00  0.00    -0.166 F 
HETATM   37  F3  UNK     1      21.717  -9.390  34.190  1.00  0.00    -0.166 F 
ENDBRANCH  28  34
ENDBRANCH  21  23
ENDBRANCH   2  21
TORSDOF 11
ENDMDL
MODEL 3
REMARK VINA RESULT:      -8.7      1.461      3.934
REMARK  11 active torsions:
REMARK  status: ('A' for Active; 'I' for Inactive)
REMARK    1  A    between atoms: C13_26  and  O2_7 
REMARK    2  A    between atoms: C19_32  and  O2_7 
REMARK    3  A    between atoms: C17_30  and  O3_8 
REMARK    4  A    between atoms: C20_33  and  O3_8 
REMARK    5  A    between atoms: C14_27  and  N1_12 
REMARK    6  A    between atoms: C4_17  and  N1_12 
REMARK    7  A    between atoms: C14_27  and  N2_13 
REMARK    8  A    between atoms: C7_20  and  N2_13 
REMARK    9  A    between atoms: C13_26  and  C2_15 
REMARK   10  A    between atoms: C17_30  and  C6_19 
REMARK   11  A    between atoms: C16_29  and  C8_21 
ROOT
HETATM    1  S2  UNK     1      19.971   6.012  31.960  1.00  0.00    -0.040 SA
HETATM    2  C14 UNK     1      18.545   5.596  32.753  1.00  0.00     0.177 C 
ENDROOT
BRANCH   2   3
HETATM    3  N1  UNK     1      17.761   4.605  32.228  1.00  0.00    -0.326 N 
HETATM    4  H4  UNK     1      16.759   4.719  32.357  1.00  0.00     0.169 HD
BRANCH   3   5
HETATM    5  C4  UNK     1      18.168   3.330  31.818  1.00  0.00     0.094 A 
HETATM    6  C2  UNK     1      18.295   2.147  32.512  1.00  0.00     0.080 A 
HETATM    7  C1  UNK     1      18.750   1.084  31.679  1.00  0.00    -0.020 A 
HETATM    8  C6  UNK     1      18.952   1.495  30.381  1.00  0.00     0.089 A 
HETATM    9  C12 UNK     1      18.977  -0.304  32.156  1.00  0.00     0.051 C 
HETATM   10  S1  UNK     1      18.597   3.156  30.169  1.00  0.00    -0.065 SA
BRANCH   6  11
HETATM   11  C13 UNK     1      17.993   2.039  33.918  1.00  0.00     0.296 C 
HETATM   12  O4  UNK     1      18.663   2.576  34.812  1.00  0.00    -0.259 OA
BRANCH  11  13
HETATM   13  O2  UNK     1      16.880   1.274  34.193  1.00  0.00    -0.318 OA
BRANCH  13  14
HETATM   14  C19 UNK     1      16.975   0.371  35.301  1.00  0.00     0.174 C 
HETATM   15  C21 UNK     1      16.312  -0.938  34.927  1.00  0.00     0.034 C 
ENDBRANCH  13  14
ENDBRANCH  11  13
ENDBRANCH   6  11
BRANCH   8  16
HETATM   16  C17 UNK     1      19.400   0.741  29.253  1.00  0.00     0.300 C 
HETATM   17  O5  UNK     1      18.754   0.607  28.194  1.00  0.00    -0.259 OA
BRANCH  16  18
HETATM   18  O3  UNK     1      20.639   0.147  29.416  1.00  0.00    -0.317 OA
BRANCH  18  19
HETATM   19  C20 UNK     1      20.822  -1.158  28.856  1.00  0.00     0.174 C 
HETATM   20  C22 UNK     1      20.558  -2.195  29.926  1.00  0.00     0.034 C 
ENDBRANCH  18  19
ENDBRANCH  16  18
ENDBRANCH   8  16
ENDBRANCH   3   5
ENDBRANCH   2   3
BRANCH   2  21
HETATM   21  N2  UNK     1      18.209   6.245  33.929  1.00  0.00    -0.333 N 
HETATM   22  H8  UNK     1      18.757   5.944  34.731  1.00  0.00     0.168 HD
BRANCH  21  23
HETATM   23  C7  UNK     1      17.566   7.465  34.137  1.00  0.00     0.036 A 
HETATM   24  C11 UNK     1      16.261   7.493  34.624  1.00  0.00     0.030 A 
HETATM   25  C10 UNK     1      15.610   8.714  34.834  1.00  0.00     0.017 A 
HETATM   26  C3  UNK     1      16.256   9.926  34.559  1.00  0.00     0.013 A 
HETATM   27  C5  UNK     1      17.562   9.868  34.071  1.00  0.00     0.092 A 
HETATM   28  C8  UNK     1      15.636  11.244  34.754  1.00  0.00     0.066 A 
HETATM   29  O1  UNK     1      18.281  11.042  33.769  1.00  0.00    -0.275 OA
HETATM   30  C9  UNK     1      18.224   8.658  33.857  1.00  0.00     0.067 A 
HETATM   31  C18 UNK     1      17.721  12.299  33.943  1.00  0.00     0.289 A 
HETATM   32  C15 UNK     1      16.343  12.344  34.458  1.00  0.00     0.099 A 
HETATM   33  O6  UNK     1      18.337  13.326  33.684  1.00  0.00    -0.260 OA
BRANCH  28  34
HETATM   34  C16 UNK     1      14.233  11.341  35.277  1.00  0.00     0.418 C 
HETATM   35  F1  UNK     1      14.124  10.730  36.472  1.00  0.00    -0.166 F 
HETATM   36  F2  UNK     1      13.865  12.628  35.433  1.00  0.00    -0.166 F 
HETATM   37  F3  UNK     1      13.360  10.759  34.431  1.00  0.00    -0.166 F 
ENDBRANCH  28  34
ENDBRANCH  21  23
ENDBRANCH   2  21
TORSDOF 11
ENDMDL
MODEL 4
REMARK VINA RESULT:      -8.7      6.624     11.598
REMARK  11 active torsions:
REMARK  status: ('A' for Active; 'I' for Inactive)
REMARK    1  A    between atoms: C13_26  and  O2_7 
REMARK    2  A    between atoms: C19_32  and  O2_7 
REMARK    3  A    between atoms: C17_30  and  O3_8 
REMARK    4  A    between atoms: C20_33  and  O3_8 
REMARK    5  A    between atoms: C14_27  and  N1_12 
REMARK    6  A    between atoms: C4_17  and  N1_12 
REMARK    7  A    between atoms: C14_27  and  N2_13 
REMARK    8  A    between atoms: C7_20  and  N2_13 
REMARK    9  A    between atoms: C13_26  and  C2_15 
REMARK   10  A    between atoms: C17_30  and  C6_19 
REMARK   11  A    between atoms: C16_29  and  C8_21 
ROOT
HETATM    1  S2  UNK     1      16.837  -0.634  34.846  1.00  0.00    -0.040 SA
HETATM    2  C14 UNK     1      18.433  -0.602  34.309  1.00  0.00     0.177 C 
ENDROOT
BRANCH   2   3
HETATM    3  N1  UNK     1      18.695  -0.153  33.044  1.00  0.00    -0.326 N 
HETATM    4  H4  UNK     1      19.211  -0.794  32.445  1.00  0.00     0.169 HD
BRANCH   3   5
HETATM    5  C4  UNK     1      18.617   1.165  32.577  1.00  0.00     0.094 A 
HETATM    6  C2  UNK     1      18.853   1.706  31.332  1.00  0.00     0.080 A 
HETATM    7  C1  UNK     1      18.649   3.116  31.315  1.00  0.00    -0.020 A 
HETATM    8  C6  UNK     1      18.264   3.598  32.546  1.00  0.00     0.089 A 
HETATM    9  C12 UNK     1      18.828   3.964  30.109  1.00  0.00     0.051 C 
HETATM   10  S1  UNK     1      18.152   2.355  33.717  1.00  0.00    -0.065 SA
BRANCH   6  11
HETATM   11  C13 UNK     1      19.259   0.904  30.204  1.00  0.00     0.296 C 
HETATM   12  O4  UNK     1      18.638   0.855  29.133  1.00  0.00    -0.259 OA
BRANCH  11  13
HETATM   13  O2  UNK     1      20.413   0.182  30.418  1.00  0.00    -0.318 OA
BRANCH  13  14
HETATM   14  C19 UNK     1      20.679  -0.896  29.513  1.00  0.00     0.174 C 
HETATM   15  C21 UNK     1      20.371  -2.207  30.204  1.00  0.00     0.034 C 
ENDBRANCH  13  14
ENDBRANCH  11  13
ENDBRANCH   6  11
BRANCH   8  16
HETATM   16  C17 UNK     1      17.966   4.939  32.939  1.00  0.00     0.300 C 
HETATM   17  O5  UNK     1      16.912   5.540  32.648  1.00  0.00    -0.259 OA
BRANCH  16  18
HETATM   18  O3  UNK     1      18.956   5.550  33.687  1.00  0.00    -0.317 OA
BRANCH  18  19
HETATM   19  C20 UNK     1      19.582   6.710  33.128  1.00  0.00     0.174 C 
HETATM   20  C22 UNK     1      21.004   6.365  32.742  1.00  0.00     0.034 C 
ENDBRANCH  18  19
ENDBRANCH  16  18
ENDBRANCH   8  16
ENDBRANCH   3   5
ENDBRANCH   2   3
BRANCH   2  21
HETATM   21  N2  UNK     1      19.444  -1.004  35.165  1.00  0.00    -0.333 N 
HETATM   22  H8  UNK     1      19.830  -0.247  35.722  1.00  0.00     0.168 HD
BRANCH  21  23
HETATM   23  C7  UNK     1      19.749  -2.266  35.675  1.00  0.00     0.036 A 
HETATM   24  C11 UNK     1      19.910  -2.444  37.048  1.00  0.00     0.030 A 
HETATM   25  C10 UNK     1      20.215  -3.707  37.566  1.00  0.00     0.017 A 
HETATM   26  C3  UNK     1      20.365  -4.812  36.717  1.00  0.00     0.013 A 
HETATM   27  C5  UNK     1      20.199  -4.604  35.348  1.00  0.00     0.092 A 
HETATM   28  C8  UNK     1      20.686  -6.166  37.189  1.00  0.00     0.066 A 
HETATM   29  O1  UNK     1      20.333  -5.663  34.428  1.00  0.00    -0.275 OA
HETATM   30  C9  UNK     1      19.893  -3.350  34.816  1.00  0.00     0.067 A 
HETATM   31  C18 UNK     1      20.635  -6.951  34.844  1.00  0.00     0.289 A 
HETATM   32  C15 UNK     1      20.808  -7.155  36.291  1.00  0.00     0.099 A 
HETATM   33  O6  UNK     1      20.754  -7.879  34.052  1.00  0.00    -0.260 OA
BRANCH  28  34
HETATM   34  C16 UNK     1      20.870  -6.423  38.656  1.00  0.00     0.418 C 
HETATM   35  F1  UNK     1      21.038  -7.738  38.894  1.00  0.00    -0.166 F 
HETATM   36  F2  UNK     1      21.954  -5.774  39.126  1.00  0.00    -0.166 F 
HETATM   37  F3  UNK     1      19.798  -6.006  39.359  1.00  0.00    -0.166 F 
ENDBRANCH  28  34
ENDBRANCH  21  23
ENDBRANCH   2  21
TORSDOF 11
ENDMDL
MODEL 5
REMARK VINA RESULT:      -8.4      8.249     11.637
REMARK  11 active torsions:
REMARK  status: ('A' for Active; 'I' for Inactive)
REMARK    1  A    between atoms: C13_26  and  O2_7 
REMARK    2  A    between atoms: C19_32  and  O2_7 
REMARK    3  A    between atoms: C17_30  and  O3_8 
REMARK    4  A    between atoms: C20_33  and  O3_8 
REMARK    5  A    between atoms: C14_27  and  N1_12 
REMARK    6  A    between atoms: C4_17  and  N1_12 
REMARK    7  A    between atoms: C14_27  and  N2_13 
REMARK    8  A    between atoms: C7_20  and  N2_13 
REMARK    9  A    between atoms: C13_26  and  C2_15 
REMARK   10  A    between atoms: C17_30  and  C6_19 
REMARK   11  A    between atoms: C16_29  and  C8_21 
ROOT
HETATM    1  S2  UNK     1      18.314  -6.335  36.508  1.00  0.00    -0.040 SA
HETATM    2  C14 UNK     1      19.772  -5.848  37.195  1.00  0.00     0.177 C 
ENDROOT
BRANCH   2   3
HETATM    3  N1  UNK     1      20.386  -6.672  38.097  1.00  0.00    -0.326 N 
HETATM    4  H4  UNK     1      20.036  -6.621  39.051  1.00  0.00     0.169 HD
BRANCH   3   5
HETATM    5  C4  UNK     1      21.609  -7.335  37.946  1.00  0.00     0.094 A 
HETATM    6  C2  UNK     1      22.000  -8.343  37.092  1.00  0.00     0.080 A 
HETATM    7  C1  UNK     1      23.359  -8.718  37.292  1.00  0.00    -0.020 A 
HETATM    8  C6  UNK     1      23.956  -7.983  38.292  1.00  0.00     0.089 A 
HETATM    9  C12 UNK     1      24.051  -9.777  36.514  1.00  0.00     0.051 C 
HETATM   10  S1  UNK     1      22.879  -6.847  38.985  1.00  0.00    -0.065 SA
BRANCH   6  11
HETATM   11  C13 UNK     1      21.105  -8.924  36.121  1.00  0.00     0.296 C 
HETATM   12  O4  UNK     1      21.302  -8.898  34.897  1.00  0.00    -0.259 OA
BRANCH  11  13
HETATM   13  O2  UNK     1      19.993  -9.521  36.673  1.00  0.00    -0.318 OA
BRANCH  13  14
HETATM   14  C19 UNK     1      20.207 -10.733  37.407  1.00  0.00     0.174 C 
HETATM   15  C21 UNK     1      19.397 -10.685  38.685  1.00  0.00     0.034 C 
ENDBRANCH  13  14
ENDBRANCH  11  13
ENDBRANCH   6  11
BRANCH   8  16
HETATM   16  C17 UNK     1      25.293  -8.053  38.792  1.00  0.00     0.300 C 
HETATM   17  O5  UNK     1      25.727  -8.973  39.514  1.00  0.00    -0.259 OA
BRANCH  16  18
HETATM   18  O3  UNK     1      26.103  -6.999  38.411  1.00  0.00    -0.317 OA
BRANCH  18  19
HETATM   19  C20 UNK     1      27.504  -7.263  38.269  1.00  0.00     0.174 C 
HETATM   20  C22 UNK     1      28.259  -6.499  39.336  1.00  0.00     0.034 C 
ENDBRANCH  18  19
ENDBRANCH  16  18
ENDBRANCH   8  16
ENDBRANCH   3   5
ENDBRANCH   2   3
BRANCH   2  21
HETATM   21  N2  UNK     1      20.331  -4.639  36.814  1.00  0.00    -0.333 N 
HETATM   22  H8  UNK     1      21.220  -4.737  36.330  1.00  0.00     0.168 HD
BRANCH  21  23
HETATM   23  C7  UNK     1      19.741  -3.391  36.620  1.00  0.00     0.036 A 
HETATM   24  C11 UNK     1      19.111  -2.744  37.682  1.00  0.00     0.030 A 
HETATM   25  C10 UNK     1      18.516  -1.491  37.495  1.00  0.00     0.017 A 
HETATM   26  C3  UNK     1      18.542  -0.867  36.241  1.00  0.00     0.013 A 
HETATM   27  C5  UNK     1      19.179  -1.538  35.196  1.00  0.00     0.092 A 
HETATM   28  C8  UNK     1      17.940   0.445  35.970  1.00  0.00     0.066 A 
HETATM   29  O1  UNK     1      19.248  -0.978  33.905  1.00  0.00    -0.275 OA
HETATM   30  C9  UNK     1      19.778  -2.788  35.368  1.00  0.00     0.067 A 
HETATM   31  C18 UNK     1      18.688   0.258  33.620  1.00  0.00     0.289 A 
HETATM   32  C15 UNK     1      18.020   0.954  34.732  1.00  0.00     0.099 A 
HETATM   33  O6  UNK     1      18.743   0.754  32.500  1.00  0.00    -0.260 OA
BRANCH  28  34
HETATM   34  C16 UNK     1      17.248   1.193  37.072  1.00  0.00     0.418 C 
HETATM   35  F1  UNK     1      16.030   0.671  37.314  1.00  0.00    -0.166 F 
HETATM   36  F2  UNK     1      17.960   1.135  38.215  1.00  0.00    -0.166 F 
HETATM   37  F3  UNK     1      17.086   2.492  36.748  1.00  0.00    -0.166 F 
ENDBRANCH  28  34
ENDBRANCH  21  23
ENDBRANCH   2  21
TORSDOF 11
ENDMDL
MODEL 6
REMARK VINA RESULT:      -8.4      7.725     12.821
REMARK  11 active torsions:
REMARK  status: ('A' for Active; 'I' for Inactive)
REMARK    1  A    between atoms: C13_26  and  O2_7 
REMARK    2  A    between atoms: C19_32  and  O2_7 
REMARK    3  A    between atoms: C17_30  and  O3_8 
REMARK    4  A    between atoms: C20_33  and  O3_8 
REMARK    5  A    between atoms: C14_27  and  N1_12 
REMARK    6  A    between atoms: C4_17  and  N1_12 
REMARK    7  A    between atoms: C14_27  and  N2_13 
REMARK    8  A    between atoms: C7_20  and  N2_13 
REMARK    9  A    between atoms: C13_26  and  C2_15 
REMARK   10  A    between atoms: C17_30  and  C6_19 
REMARK   11  A    between atoms: C16_29  and  C8_21 
ROOT
HETATM    1  S2  UNK     1      18.229  -1.329  37.754  1.00  0.00    -0.040 SA
HETATM    2  C14 UNK     1      18.733  -1.904  36.254  1.00  0.00     0.177 C 
ENDROOT
BRANCH   2   3
HETATM    3  N1  UNK     1      17.994  -1.594  35.146  1.00  0.00    -0.326 N 
HETATM    4  H4  UNK     1      17.335  -2.306  34.840  1.00  0.00     0.169 HD
BRANCH   3   5
HETATM    5  C4  UNK     1      18.243  -0.575  34.218  1.00  0.00     0.094 A 
HETATM    6  C2  UNK     1      18.964  -0.567  33.044  1.00  0.00     0.080 A 
HETATM    7  C1  UNK     1      18.948   0.711  32.415  1.00  0.00    -0.020 A 
HETATM    8  C6  UNK     1      18.215   1.631  33.131  1.00  0.00     0.089 A 
HETATM    9  C12 UNK     1      19.640   1.015  31.136  1.00  0.00     0.051 C 
HETATM   10  S1  UNK     1      17.551   0.955  34.557  1.00  0.00    -0.065 SA
BRANCH   6  11
HETATM   11  C13 UNK     1      19.643  -1.738  32.546  1.00  0.00     0.296 C 
HETATM   12  O4  UNK     1      20.439  -2.412  33.215  1.00  0.00    -0.259 OA
BRANCH  11  13
HETATM   13  O2  UNK     1      19.329  -2.052  31.241  1.00  0.00    -0.318 OA
BRANCH  13  14
HETATM   14  C19 UNK     1      20.418  -2.421  30.386  1.00  0.00     0.174 C 
HETATM   15  C21 UNK     1      20.453  -1.482  29.199  1.00  0.00     0.034 C 
ENDBRANCH  13  14
ENDBRANCH  11  13
ENDBRANCH   6  11
BRANCH   8  16
HETATM   16  C17 UNK     1      17.959   3.006  32.841  1.00  0.00     0.300 C 
HETATM   17  O5  UNK     1      17.489   3.423  31.763  1.00  0.00    -0.259 OA
BRANCH  16  18
HETATM   18  O3  UNK     1      18.277   3.877  33.868  1.00  0.00    -0.317 OA
BRANCH  18  19
HETATM   19  C20 UNK     1      18.096   5.277  33.624  1.00  0.00     0.174 C 
HETATM   20  C22 UNK     1      19.452   5.946  33.563  1.00  0.00     0.034 C 
ENDBRANCH  18  19
ENDBRANCH  16  18
ENDBRANCH   8  16
ENDBRANCH   3   5
ENDBRANCH   2   3
BRANCH   2  21
HETATM   21  N2  UNK     1      19.894  -2.654  36.170  1.00  0.00    -0.333 N 
HETATM   22  H8  UNK     1      20.714  -2.107  35.920  1.00  0.00     0.168 HD
BRANCH  21  23
HETATM   23  C7  UNK     1      20.215  -3.890  36.730  1.00  0.00     0.036 A 
HETATM   24  C11 UNK     1      21.308  -4.007  37.587  1.00  0.00     0.030 A 
HETATM   25  C10 UNK     1      21.635  -5.245  38.151  1.00  0.00     0.017 A 
HETATM   26  C3  UNK     1      20.872  -6.385  37.867  1.00  0.00     0.013 A 
HETATM   27  C5  UNK     1      19.784  -6.239  37.006  1.00  0.00     0.092 A 
HETATM   28  C8  UNK     1      21.156  -7.716  38.422  1.00  0.00     0.066 A 
HETATM   29  O1  UNK     1      18.968  -7.337  36.669  1.00  0.00    -0.275 OA
HETATM   30  C9  UNK     1      19.445  -5.010  36.435  1.00  0.00     0.067 A 
HETATM   31  C18 UNK     1      19.212  -8.604  37.177  1.00  0.00     0.289 A 
HETATM   32  C15 UNK     1      20.362  -8.743  38.084  1.00  0.00     0.099 A 
HETATM   33  O6  UNK     1      18.508  -9.566  36.891  1.00  0.00    -0.260 OA
BRANCH  28  34
HETATM   34  C16 UNK     1      22.319  -7.907  39.352  1.00  0.00     0.418 C 
HETATM   35  F1  UNK     1      22.178  -9.039  40.068  1.00  0.00    -0.166 F 
HETATM   36  F2  UNK     1      23.475  -7.990  38.665  1.00  0.00    -0.166 F 
HETATM   37  F3  UNK     1      22.421  -6.877  40.216  1.00  0.00    -0.166 F 
ENDBRANCH  28  34
ENDBRANCH  21  23
ENDBRANCH   2  21
TORSDOF 11
ENDMDL
MODEL 7
REMARK VINA RESULT:      -8.3     16.837     18.997
REMARK  11 active torsions:
REMARK  status: ('A' for Active; 'I' for Inactive)
REMARK    1  A    between atoms: C13_26  and  O2_7 
REMARK    2  A    between atoms: C19_32  and  O2_7 
REMARK    3  A    between atoms: C17_30  and  O3_8 
REMARK    4  A    between atoms: C20_33  and  O3_8 
REMARK    5  A    between atoms: C14_27  and  N1_12 
REMARK    6  A    between atoms: C4_17  and  N1_12 
REMARK    7  A    between atoms: C14_27  and  N2_13 
REMARK    8  A    between atoms: C7_20  and  N2_13 
REMARK    9  A    between atoms: C13_26  and  C2_15 
REMARK   10  A    between atoms: C17_30  and  C6_19 
REMARK   11  A    between atoms: C16_29  and  C8_21 
ROOT
HETATM    1  S2  UNK     1      31.421 -11.579  34.729  1.00  0.00    -0.040 SA
HETATM    2  C14 UNK     1      30.279 -10.557  34.030  1.00  0.00     0.177 C 
ENDROOT
BRANCH   2   3
HETATM    3  N1  UNK     1      30.030 -10.663  32.690  1.00  0.00    -0.326 N 
HETATM    4  H4  UNK     1      29.747 -11.584  32.364  1.00  0.00     0.169 HD
BRANCH   3   5
HETATM    5  C4  UNK     1      30.405  -9.765  31.683  1.00  0.00     0.094 A 
HETATM    6  C2  UNK     1      29.696  -8.778  31.033  1.00  0.00     0.080 A 
HETATM    7  C1  UNK     1      30.491  -8.100  30.063  1.00  0.00    -0.020 A 
HETATM    8  C6  UNK     1      31.775  -8.593  30.011  1.00  0.00     0.089 A 
HETATM    9  C12 UNK     1      29.991  -6.990  29.212  1.00  0.00     0.051 C 
HETATM   10  S1  UNK     1      32.020  -9.870  31.125  1.00  0.00    -0.065 SA
BRANCH   6  11
HETATM   11  C13 UNK     1      28.313  -8.497  31.327  1.00  0.00     0.296 C 
HETATM   12  O4  UNK     1      27.373  -8.793  30.576  1.00  0.00    -0.259 OA
BRANCH  11  13
HETATM   13  O2  UNK     1      28.118  -7.859  32.533  1.00  0.00    -0.318 OA
BRANCH  13  14
HETATM   14  C19 UNK     1      27.695  -6.492  32.481  1.00  0.00     0.174 C 
HETATM   15  C21 UNK     1      28.909  -5.595  32.594  1.00  0.00     0.034 C 
ENDBRANCH  13  14
ENDBRANCH  11  13
ENDBRANCH   6  11
BRANCH   8  16
HETATM   16  C17 UNK     1      32.866  -8.189  29.181  1.00  0.00     0.300 C 
HETATM   17  O5  UNK     1      33.182  -8.747  28.111  1.00  0.00    -0.259 OA
BRANCH  16  18
HETATM   18  O3  UNK     1      33.575  -7.100  29.658  1.00  0.00    -0.317 OA
BRANCH  18  19
HETATM   19  C20 UNK     1      34.930  -7.324  30.063  1.00  0.00     0.174 C 
HETATM   20  C22 UNK     1      35.011  -7.252  31.573  1.00  0.00     0.034 C 
ENDBRANCH  18  19
ENDBRANCH  16  18
ENDBRANCH   8  16
ENDBRANCH   3   5
ENDBRANCH   2   3
BRANCH   2  21
HETATM   21  N2  UNK     1      29.601  -9.652  34.828  1.00  0.00    -0.333 N 
HETATM   22  H8  UNK     1      28.870 -10.076  35.394  1.00  0.00     0.168 HD
BRANCH  21  23
HETATM   23  C7  UNK     1      29.977  -8.388  35.284  1.00  0.00     0.036 A 
HETATM   24  C11 UNK     1      31.080  -7.745  34.726  1.00  0.00     0.030 A 
HETATM   25  C10 UNK     1      31.463  -6.477  35.179  1.00  0.00     0.017 A 
HETATM   26  C3  UNK     1      30.748  -5.834  36.198  1.00  0.00     0.013 A 
HETATM   27  C5  UNK     1      29.648  -6.503  36.738  1.00  0.00     0.092 A 
HETATM   28  C8  UNK     1      31.091  -4.506  36.723  1.00  0.00     0.066 A 
HETATM   29  O1  UNK     1      28.877  -5.925  37.766  1.00  0.00    -0.275 OA
HETATM   30  C9  UNK     1      29.254  -7.767  36.296  1.00  0.00     0.067 A 
HETATM   31  C18 UNK     1      29.177  -4.673  38.282  1.00  0.00     0.289 A 
HETATM   32  C15 UNK     1      30.339  -3.981  37.702  1.00  0.00     0.099 A 
HETATM   33  O6  UNK     1      28.513  -4.162  39.175  1.00  0.00    -0.260 OA
BRANCH  28  34
HETATM   34  C16 UNK     1      32.268  -3.761  36.164  1.00  0.00     0.418 C 
HETATM   35  F1  UNK     1      32.238  -3.761  34.817  1.00  0.00    -0.166 F 
HETATM   36  F2  UNK     1      32.268  -2.480  36.580  1.00  0.00    -0.166 F 
HETATM   37  F3  UNK     1      33.428  -4.326  36.554  1.00  0.00    -0.166 F 
ENDBRANCH  28  34
ENDBRANCH  21  23
ENDBRANCH   2  21
TORSDOF 11
ENDMDL
MODEL 8
REMARK VINA RESULT:      -8.1     17.228     19.429
REMARK  11 active torsions:
REMARK  status: ('A' for Active; 'I' for Inactive)
REMARK    1  A    between atoms: C13_26  and  O2_7 
REMARK    2  A    between atoms: C19_32  and  O2_7 
REMARK    3  A    between atoms: C17_30  and  O3_8 
REMARK    4  A    between atoms: C20_33  and  O3_8 
REMARK    5  A    between atoms: C14_27  and  N1_12 
REMARK    6  A    between atoms: C4_17  and  N1_12 
REMARK    7  A    between atoms: C14_27  and  N2_13 
REMARK    8  A    between atoms: C7_20  and  N2_13 
REMARK    9  A    between atoms: C13_26  and  C2_15 
REMARK   10  A    between atoms: C17_30  and  C6_19 
REMARK   11  A    between atoms: C16_29  and  C8_21 
ROOT
HETATM    1  S2  UNK     1      35.103  -8.138  33.778  1.00  0.00    -0.040 SA
HETATM    2  C14 UNK     1      33.698  -8.687  34.526  1.00  0.00     0.177 C 
ENDROOT
BRANCH   2   3
HETATM    3  N1  UNK     1      32.784  -9.384  33.785  1.00  0.00    -0.326 N 
HETATM    4  H4  UNK     1      32.632 -10.350  34.064  1.00  0.00     0.169 HD
BRANCH   3   5
HETATM    5  C4  UNK     1      32.270  -9.039  32.529  1.00  0.00     0.094 A 
HETATM    6  C2  UNK     1      31.479  -7.985  32.127  1.00  0.00     0.080 A 
HETATM    7  C1  UNK     1      31.193  -8.033  30.732  1.00  0.00    -0.020 A 
HETATM    8  C6  UNK     1      31.776  -9.121  30.121  1.00  0.00     0.089 A 
HETATM    9  C12 UNK     1      30.363  -7.027  30.020  1.00  0.00     0.051 C 
HETATM   10  S1  UNK     1      32.664 -10.080  31.228  1.00  0.00    -0.065 SA
BRANCH   6  11
HETATM   11  C13 UNK     1      31.014  -6.972  33.043  1.00  0.00     0.296 C 
HETATM   12  O4  UNK     1      31.443  -5.810  33.062  1.00  0.00    -0.259 OA
BRANCH  11  13
HETATM   13  O2  UNK     1      30.038  -7.410  33.911  1.00  0.00    -0.318 OA
BRANCH  13  14
HETATM   14  C19 UNK     1      29.114  -6.427  34.393  1.00  0.00     0.174 C 
HETATM   15  C21 UNK     1      28.002  -7.124  35.148  1.00  0.00     0.034 C 
ENDBRANCH  13  14
ENDBRANCH  11  13
ENDBRANCH   6  11
BRANCH   8  16
HETATM   16  C17 UNK     1      31.730  -9.521  28.751  1.00  0.00     0.300 C 
HETATM   17  O5  UNK     1      32.325  -8.933  27.825  1.00  0.00    -0.259 OA
BRANCH  16  18
HETATM   18  O3  UNK     1      30.956 -10.641  28.507  1.00  0.00    -0.317 OA
BRANCH  18  19
HETATM   19  C20 UNK     1      29.678 -10.711  29.152  1.00  0.00     0.174 C 
HETATM   20  C22 UNK     1      28.623 -10.169  28.212  1.00  0.00     0.034 C 
ENDBRANCH  18  19
ENDBRANCH  16  18
ENDBRANCH   8  16
ENDBRANCH   3   5
ENDBRANCH   2   3
BRANCH   2  21
HETATM   21  N2  UNK     1      33.510  -8.446  35.877  1.00  0.00    -0.333 N 
HETATM   22  H8  UNK     1      34.370  -8.473  36.418  1.00  0.00     0.168 HD
BRANCH  21  23
HETATM   23  C7  UNK     1      32.466  -7.805  36.544  1.00  0.00     0.036 A 
HETATM   24  C11 UNK     1      32.436  -6.414  36.619  1.00  0.00     0.030 A 
HETATM   25  C10 UNK     1      31.391  -5.765  37.288  1.00  0.00     0.017 A 
HETATM   26  C3  UNK     1      30.361  -6.499  37.891  1.00  0.00     0.013 A 
HETATM   27  C5  UNK     1      30.419  -7.890  37.800  1.00  0.00     0.092 A 
HETATM   28  C8  UNK     1      29.235  -5.887  38.609  1.00  0.00     0.066 A 
HETATM   29  O1  UNK     1      29.422  -8.701  38.380  1.00  0.00    -0.275 OA
HETATM   30  C9  UNK     1      31.454  -8.552  37.136  1.00  0.00     0.067 A 
HETATM   31  C18 UNK     1      28.348  -8.151  39.064  1.00  0.00     0.289 A 
HETATM   32  C15 UNK     1      28.302  -6.683  39.151  1.00  0.00     0.099 A 
HETATM   33  O6  UNK     1      27.476  -8.847  39.572  1.00  0.00    -0.260 OA
BRANCH  28  34
HETATM   34  C16 UNK     1      29.144  -4.394  38.725  1.00  0.00     0.418 C 
HETATM   35  F1  UNK     1      27.863  -4.001  38.861  1.00  0.00    -0.166 F 
HETATM   36  F2  UNK     1      29.831  -3.951  39.796  1.00  0.00    -0.166 F 
HETATM   37  F3  UNK     1      29.650  -3.792  37.629  1.00  0.00    -0.166 F 
ENDBRANCH  28  34
ENDBRANCH  21  23
ENDBRANCH   2  21
TORSDOF 11
ENDMDL
MODEL 9
REMARK VINA RESULT:      -8.1     16.909     19.703
REMARK  11 active torsions:
REMARK  status: ('A' for Active; 'I' for Inactive)
REMARK    1  A    between atoms: C13_26  and  O2_7 
REMARK    2  A    between atoms: C19_32  and  O2_7 
REMARK    3  A    between atoms: C17_30  and  O3_8 
REMARK    4  A    between atoms: C20_33  and  O3_8 
REMARK    5  A    between atoms: C14_27  and  N1_12 
REMARK    6  A    between atoms: C4_17  and  N1_12 
REMARK    7  A    between atoms: C14_27  and  N2_13 
REMARK    8  A    between atoms: C7_20  and  N2_13 
REMARK    9  A    between atoms: C13_26  and  C2_15 
REMARK   10  A    between atoms: C17_30  and  C6_19 
REMARK   11  A    between atoms: C16_29  and  C8_21 
ROOT
HETATM    1  S2  UNK     1      35.176  -6.699  34.344  1.00  0.00    -0.040 SA
HETATM    2  C14 UNK     1      33.996  -7.871  34.608  1.00  0.00     0.177 C 
ENDROOT
BRANCH   2   3
HETATM    3  N1  UNK     1      33.368  -8.431  33.530  1.00  0.00    -0.326 N 
HETATM    4  H4  UNK     1      33.683  -9.362  33.269  1.00  0.00     0.169 HD
BRANCH   3   5
HETATM    5  C4  UNK     1      32.582  -7.778  32.573  1.00  0.00     0.094 A 
HETATM    6  C2  UNK     1      32.634  -7.780  31.196  1.00  0.00     0.080 A 
HETATM    7  C1  UNK     1      31.622  -6.957  30.622  1.00  0.00    -0.020 A 
HETATM    8  C6  UNK     1      30.836  -6.358  31.581  1.00  0.00     0.089 A 
HETATM    9  C12 UNK     1      31.437  -6.769  29.160  1.00  0.00     0.051 C 
HETATM   10  S1  UNK     1      31.318  -6.787  33.166  1.00  0.00    -0.065 SA
BRANCH   6  11
HETATM   11  C13 UNK     1      33.614  -8.539  30.460  1.00  0.00     0.296 C 
HETATM   12  O4  UNK     1      33.330  -9.444  29.662  1.00  0.00    -0.259 OA
BRANCH  11  13
HETATM   13  O2  UNK     1      34.916  -8.172  30.721  1.00  0.00    -0.318 OA
BRANCH  13  14
HETATM   14  C19 UNK     1      35.906  -9.206  30.652  1.00  0.00     0.174 C 
HETATM   15  C21 UNK     1      36.609  -9.305  31.988  1.00  0.00     0.034 C 
ENDBRANCH  13  14
ENDBRANCH  11  13
ENDBRANCH   6  11
BRANCH   8  16
HETATM   16  C17 UNK     1      29.729  -5.471  31.417  1.00  0.00     0.300 C 
HETATM   17  O5  UNK     1      29.831  -4.236  31.273  1.00  0.00    -0.259 OA
BRANCH  16  18
HETATM   18  O3  UNK     1      28.491  -6.091  31.430  1.00  0.00    -0.317 OA
BRANCH  18  19
HETATM   19  C20 UNK     1      27.881  -6.367  30.164  1.00  0.00     0.174 C 
HETATM   20  C22 UNK     1      26.463  -6.844  30.395  1.00  0.00     0.034 C 
ENDBRANCH  18  19
ENDBRANCH  16  18
ENDBRANCH   8  16
ENDBRANCH   3   5
ENDBRANCH   2   3
BRANCH   2  21
HETATM   21  N2  UNK     1      33.706  -8.261  35.905  1.00  0.00    -0.333 N 
HETATM   22  H8  UNK     1      34.520  -8.290  36.513  1.00  0.00     0.168 HD
BRANCH  21  23
HETATM   23  C7  UNK     1      32.501  -8.236  36.608  1.00  0.00     0.036 A 
HETATM   24  C11 UNK     1      31.797  -9.419  36.828  1.00  0.00     0.030 A 
HETATM   25  C10 UNK     1      30.588  -9.400  37.532  1.00  0.00     0.017 A 
HETATM   26  C3  UNK     1      30.065  -8.198  38.027  1.00  0.00     0.013 A 
HETATM   27  C5  UNK     1      30.792  -7.031  37.792  1.00  0.00     0.092 A 
HETATM   28  C8  UNK     1      28.804  -8.103  38.774  1.00  0.00     0.066 A 
HETATM   29  O1  UNK     1      30.335  -5.781  38.256  1.00  0.00    -0.275 OA
HETATM   30  C9  UNK     1      32.000  -7.033  37.091  1.00  0.00     0.067 A 
HETATM   31  C18 UNK     1      29.148  -5.661  38.963  1.00  0.00     0.289 A 
HETATM   32  C15 UNK     1      28.393  -6.901  39.204  1.00  0.00     0.099 A 
HETATM   33  O6  UNK     1      28.741  -4.579  39.371  1.00  0.00    -0.260 OA
BRANCH  28  34
HETATM   34  C16 UNK     1      27.999  -9.340  39.045  1.00  0.00     0.418 C 
HETATM   35  F1  UNK     1      27.572  -9.895  37.894  1.00  0.00    -0.166 F 
HETATM   36  F2  UNK     1      28.733 -10.259  39.702  1.00  0.00    -0.166 F 
HETATM   37  F3  UNK     1      26.916  -9.058  39.796  1.00  0.00    -0.166 F 
ENDBRANCH  28  34
ENDBRANCH  21  23
ENDBRANCH   2  21
TORSDOF 11
ENDMDL
MODEL 10
REMARK VINA RESULT:      -8.1     17.615     19.826
REMARK  11 active torsions:
REMARK  status: ('A' for Active; 'I' for Inactive)
REMARK    1  A    between atoms: C13_26  and  O2_7 
REMARK    2  A    between atoms: C19_32  and  O2_7 
REMARK    3  A    between atoms: C17_30  and  O3_8 
REMARK    4  A    between atoms: C20_33  and  O3_8 
REMARK    5  A    between atoms: C14_27  and  N1_12 
REMARK    6  A    between atoms: C4_17  and  N1_12 
REMARK    7  A    between atoms: C14_27  and  N2_13 
REMARK    8  A    between atoms: C7_20  and  N2_13 
REMARK    9  A    between atoms: C13_26  and  C2_15 
REMARK   10  A    between atoms: C17_30  and  C6_19 
REMARK   11  A    between atoms: C16_29  and  C8_21 
ROOT
HETATM    1  S2  UNK     1      35.877  -6.902  35.017  1.00  0.00    -0.040 SA
HETATM    2  C14 UNK     1      34.228  -7.233  34.927  1.00  0.00     0.177 C 
ENDROOT
BRANCH   2   3
HETATM    3  N1  UNK     1      33.469  -6.563  34.008  1.00  0.00    -0.326 N 
HETATM    4  H4  UNK     1      33.114  -5.656  34.304  1.00  0.00     0.169 HD
BRANCH   3   5
HETATM    5  C4  UNK     1      32.875  -7.087  32.854  1.00  0.00     0.094 A 
HETATM    6  C2  UNK     1      31.650  -6.846  32.270  1.00  0.00     0.080 A 
HETATM    7  C1  UNK     1      31.461  -7.616  31.086  1.00  0.00    -0.020 A 
HETATM    8  C6  UNK     1      32.548  -8.417  30.811  1.00  0.00     0.089 A 
HETATM    9  C12 UNK     1      30.237  -7.562  30.248  1.00  0.00     0.051 C 
HETATM   10  S1  UNK     1      33.789  -8.239  31.977  1.00  0.00    -0.065 SA
BRANCH   6  11
HETATM   11  C13 UNK     1      30.699  -5.914  32.823  1.00  0.00     0.296 C 
HETATM   12  O4  UNK     1      30.270  -4.922  32.216  1.00  0.00    -0.259 OA
BRANCH  11  13
HETATM   13  O2  UNK     1      30.299  -6.220  34.106  1.00  0.00    -0.318 OA
BRANCH  13  14
HETATM   14  C19 UNK     1      29.446  -7.361  34.262  1.00  0.00     0.174 C 
HETATM   15  C21 UNK     1      28.235  -6.963  35.078  1.00  0.00     0.034 C 
ENDBRANCH  13  14
ENDBRANCH  11  13
ENDBRANCH   6  11
BRANCH   8  16
HETATM   16  C17 UNK     1      32.749  -9.327  29.729  1.00  0.00     0.300 C 
HETATM   17  O5  UNK     1      32.961  -8.983  28.549  1.00  0.00    -0.259 OA
BRANCH  16  18
HETATM   18  O3  UNK     1      32.692 -10.663  30.086  1.00  0.00    -0.317 OA
BRANCH  18  19
HETATM   19  C20 UNK     1      31.436 -11.163  30.561  1.00  0.00     0.174 C 
HETATM   20  C22 UNK     1      30.464 -11.233  29.403  1.00  0.00     0.034 C 
ENDBRANCH  18  19
ENDBRANCH  16  18
ENDBRANCH   8  16
ENDBRANCH   3   5
ENDBRANCH   2   3
BRANCH   2  21
HETATM   21  N2  UNK     1      33.682  -8.190  35.765  1.00  0.00    -0.333 N 
HETATM   22  H8  UNK     1      34.365  -8.848  36.131  1.00  0.00     0.168 HD
BRANCH  21  23
HETATM   23  C7  UNK     1      32.490  -8.184  36.490  1.00  0.00     0.036 A 
HETATM   24  C11 UNK     1      31.778  -9.368  36.673  1.00  0.00     0.030 A 
HETATM   25  C10 UNK     1      30.581  -9.368  37.399  1.00  0.00     0.017 A 
HETATM   26  C3  UNK     1      30.079  -8.183  37.952  1.00  0.00     0.013 A 
HETATM   27  C5  UNK     1      30.812  -7.013  37.751  1.00  0.00     0.092 A 
HETATM   28  C8  UNK     1      28.831  -8.107  38.724  1.00  0.00     0.066 A 
HETATM   29  O1  UNK     1      30.375  -5.780  38.274  1.00  0.00    -0.275 OA
HETATM   30  C9  UNK     1      32.008  -6.997  37.030  1.00  0.00     0.067 A 
HETATM   31  C18 UNK     1      29.201  -5.678  39.006  1.00  0.00     0.289 A 
HETATM   32  C15 UNK     1      28.439  -6.920  39.209  1.00  0.00     0.099 A 
HETATM   33  O6  UNK     1      28.812  -4.610  39.465  1.00  0.00    -0.260 OA
BRANCH  28  34
HETATM   34  C16 UNK     1      28.019  -9.348  38.958  1.00  0.00     0.418 C 
HETATM   35  F1  UNK     1      26.944  -9.079  39.723  1.00  0.00    -0.166 F 
HETATM   36  F2  UNK     1      27.582  -9.864  37.792  1.00  0.00    -0.166 F 
HETATM   37  F3  UNK     1      28.749 -10.293  39.583  1.00  0.00    -0.166 F 
ENDBRANCH  28  34
ENDBRANCH  21  23
ENDBRANCH   2  21
TORSDOF 11
ENDMDL
