MODEL 1
REMARK VINA RESULT:      -8.3      0.000      0.000
REMARK  4 active torsions:
REMARK  status: ('A' for Active; 'I' for Inactive)
REMARK    1  A    between atoms: C1_5  and  N1_4 
REMARK       I    between atoms: C6_10  and  N1_4 
REMARK    2  A    between atoms: C1_5  and  C2_6 
REMARK    3  A    between atoms: C1_5  and  C3_7 
REMARK    4  A    between atoms: C6_10  and  C8_12 
ROOT
HETATM    1  C1  UNK     1      18.988  -6.496  36.768  1.00  0.00     0.095 C 
HETATM    2  C7  UNK     1      19.911  -7.114  35.790  1.00  0.00    -0.086 C 
HETATM    3  C14 UNK     1      20.659  -7.616  34.996  1.00  0.00     0.015 C 
ENDROOT
BRANCH   1   4
HETATM    4  N1  UNK     1      18.877  -5.075  36.497  1.00  0.00    -0.337 N 
HETATM    5  C6  UNK     1      19.947  -4.214  36.602  1.00  0.00     0.259 C 
HETATM    6  O2  UNK     1      21.095  -4.501  36.924  1.00  0.00    -0.267 OA
HETATM    7  H5  UNK     1      17.977  -4.725  36.183  1.00  0.00     0.164 HD
BRANCH   5   8
HETATM    8  C8  UNK     1      19.585  -2.824  36.274  1.00  0.00     0.108 A 
HETATM    9  C12 UNK     1      19.988  -2.187  34.999  1.00  0.00     0.304 A 
HETATM   10  O1  UNK     1      19.586  -0.869  34.804  1.00  0.00    -0.274 OA
HETATM   11  O3  UNK     1      20.641  -2.788  34.153  1.00  0.00    -0.259 OA
HETATM   12  C11 UNK     1      18.833  -0.171  35.768  1.00  0.00     0.089 A 
HETATM   13  C10 UNK     1      18.466  -0.787  36.959  1.00  0.00    -0.001 A 
HETATM   14  C15 UNK     1      18.478   1.146  35.483  1.00  0.00     0.038 A 
HETATM   15  C9  UNK     1      18.870  -2.164  37.194  1.00  0.00     0.037 A 
HETATM   16  C13 UNK     1      17.720  -0.061  37.893  1.00  0.00     0.014 A 
HETATM   17  C16 UNK     1      17.356   1.261  37.620  1.00  0.00     0.001 A 
HETATM   18  C17 UNK     1      17.734   1.862  36.417  1.00  0.00     0.003 A 
ENDBRANCH   5   8
ENDBRANCH   1   4
BRANCH   1  19
HETATM   19  C2  UNK     1      19.519  -6.711  38.209  1.00  0.00     0.040 C 
HETATM   20  C4  UNK     1      19.511  -8.160  38.693  1.00  0.00     0.009 C 
ENDBRANCH   1  19
BRANCH   1  21
HETATM   21  C3  UNK     1      17.589  -7.160  36.663  1.00  0.00     0.040 C 
HETATM   22  C5  UNK     1      17.115  -7.443  35.239  1.00  0.00     0.009 C 
ENDBRANCH   1  21
TORSDOF 4
ENDMDL
MODEL 2
REMARK VINA RESULT:      -8.3      0.502      1.856
REMARK  4 active torsions:
REMARK  status: ('A' for Active; 'I' for Inactive)
REMARK    1  A    between atoms: C1_5  and  N1_4 
REMARK       I    between atoms: C6_10  and  N1_4 
REMARK    2  A    between atoms: C1_5  and  C2_6 
REMARK    3  A    between atoms: C1_5  and  C3_7 
REMARK    4  A    between atoms: C6_10  and  C8_12 
ROOT
HETATM    1  C1  UNK     1      19.267  -6.532  36.914  1.00  0.00     0.095 C 
HETATM    2  C7  UNK     1      19.755  -6.663  38.305  1.00  0.00    -0.086 C 
HETATM    3  C14 UNK     1      20.150  -6.770  39.434  1.00  0.00     0.015 C 
ENDROOT
BRANCH   1   4
HETATM    4  N1  UNK     1      19.076  -5.128  36.599  1.00  0.00    -0.337 N 
HETATM    5  C6  UNK     1      20.097  -4.207  36.672  1.00  0.00     0.259 C 
HETATM    6  O2  UNK     1      21.261  -4.420  36.996  1.00  0.00    -0.267 OA
HETATM    7  H5  UNK     1      18.157  -4.838  36.279  1.00  0.00     0.164 HD
BRANCH   5   8
HETATM    8  C8  UNK     1      19.658  -2.849  36.302  1.00  0.00     0.108 A 
HETATM    9  C12 UNK     1      19.978  -2.252  34.986  1.00  0.00     0.304 A 
HETATM   10  O1  UNK     1      19.508  -0.962  34.754  1.00  0.00    -0.274 OA
HETATM   11  O3  UNK     1      20.622  -2.859  34.138  1.00  0.00    -0.259 OA
HETATM   12  C11 UNK     1      18.764  -0.257  35.721  1.00  0.00     0.089 A 
HETATM   13  C10 UNK     1      18.476  -0.837  36.951  1.00  0.00    -0.001 A 
HETATM   14  C15 UNK     1      18.337   1.029  35.397  1.00  0.00     0.038 A 
HETATM   15  C9  UNK     1      18.953  -2.183  37.224  1.00  0.00     0.037 A 
HETATM   16  C13 UNK     1      17.736  -0.105  37.885  1.00  0.00     0.014 A 
HETATM   17  C16 UNK     1      17.301   1.186  37.574  1.00  0.00     0.001 A 
HETATM   18  C17 UNK     1      17.600   1.751  36.332  1.00  0.00     0.003 A 
ENDBRANCH   5   8
ENDBRANCH   1   4
BRANCH   1  19
HETATM   19  C2  UNK     1      17.925  -7.290  36.747  1.00  0.00     0.040 C 
HETATM   20  C4  UNK     1      17.401  -7.371  35.315  1.00  0.00     0.009 C 
ENDBRANCH   1  19
BRANCH   1  21
HETATM   21  C3  UNK     1      20.299  -7.152  35.935  1.00  0.00     0.040 C 
HETATM   22  C5  UNK     1      20.720  -8.583  36.262  1.00  0.00     0.009 C 
ENDBRANCH   1  21
TORSDOF 4
ENDMDL
MODEL 3
REMARK VINA RESULT:      -8.1      4.694      9.315
REMARK  4 active torsions:
REMARK  status: ('A' for Active; 'I' for Inactive)
REMARK    1  A    between atoms: C1_5  and  N1_4 
REMARK       I    between atoms: C6_10  and  N1_4 
REMARK    2  A    between atoms: C1_5  and  C2_6 
REMARK    3  A    between atoms: C1_5  and  C3_7 
REMARK    4  A    between atoms: C6_10  and  C8_12 
ROOT
HETATM    1  C1  UNK     1      18.612   5.441  32.211  1.00  0.00     0.095 C 
HETATM    2  C7  UNK     1      17.276   6.075  32.272  1.00  0.00    -0.086 C 
HETATM    3  C14 UNK     1      16.192   6.589  32.320  1.00  0.00     0.015 C 
ENDROOT
BRANCH   1   4
HETATM    4  N1  UNK     1      18.609   4.228  33.006  1.00  0.00    -0.337 N 
HETATM    5  C6  UNK     1      18.059   3.048  32.557  1.00  0.00     0.259 C 
HETATM    6  O2  UNK     1      17.517   2.853  31.474  1.00  0.00    -0.267 OA
HETATM    7  H5  UNK     1      19.066   4.258  33.913  1.00  0.00     0.164 HD
BRANCH   5   8
HETATM    8  C8  UNK     1      18.180   1.959  33.542  1.00  0.00     0.108 A 
HETATM    9  C12 UNK     1      18.663   0.611  33.167  1.00  0.00     0.304 A 
HETATM   10  O1  UNK     1      18.734  -0.334  34.187  1.00  0.00    -0.274 OA
HETATM   11  O3  UNK     1      18.989   0.336  32.018  1.00  0.00    -0.259 OA
HETATM   12  C11 UNK     1      18.364  -0.028  35.511  1.00  0.00     0.089 A 
HETATM   13  C10 UNK     1      17.912   1.245  35.842  1.00  0.00    -0.001 A 
HETATM   14  C15 UNK     1      18.468  -1.040  36.463  1.00  0.00     0.038 A 
HETATM   15  C9  UNK     1      17.827   2.255  34.799  1.00  0.00     0.037 A 
HETATM   16  C13 UNK     1      17.553   1.511  37.167  1.00  0.00     0.014 A 
HETATM   17  C16 UNK     1      17.653   0.505  38.132  1.00  0.00     0.001 A 
HETATM   18  C17 UNK     1      18.110  -0.767  37.781  1.00  0.00     0.003 A 
ENDBRANCH   5   8
ENDBRANCH   1   4
BRANCH   1  19
HETATM   19  C2  UNK     1      19.689   6.417  32.753  1.00  0.00     0.040 C 
HETATM   20  C4  UNK     1      19.376   7.033  34.116  1.00  0.00     0.009 C 
ENDBRANCH   1  19
BRANCH   1  21
HETATM   21  C3  UNK     1      18.965   5.100  30.738  1.00  0.00     0.040 C 
HETATM   22  C5  UNK     1      20.132   5.893  30.153  1.00  0.00     0.009 C 
ENDBRANCH   1  21
TORSDOF 4
ENDMDL
MODEL 4
REMARK VINA RESULT:      -8.1      6.035     10.510
REMARK  4 active torsions:
REMARK  status: ('A' for Active; 'I' for Inactive)
REMARK    1  A    between atoms: C1_5  and  N1_4 
REMARK       I    between atoms: C6_10  and  N1_4 
REMARK    2  A    between atoms: C1_5  and  C2_6 
REMARK    3  A    between atoms: C1_5  and  C3_7 
REMARK    4  A    between atoms: C6_10  and  C8_12 
ROOT
HETATM    1  C1  UNK     1      18.487   5.829  31.957  1.00  0.00     0.095 C 
HETATM    2  C7  UNK     1      19.430   6.537  32.852  1.00  0.00    -0.086 C 
HETATM    3  C14 UNK     1      20.194   7.112  33.578  1.00  0.00     0.015 C 
ENDROOT
BRANCH   1   4
HETATM    4  N1  UNK     1      18.771   4.407  31.983  1.00  0.00    -0.337 N 
HETATM    5  C6  UNK     1      17.992   3.483  31.323  1.00  0.00     0.259 C 
HETATM    6  O2  UNK     1      16.993   3.708  30.650  1.00  0.00    -0.267 OA
HETATM    7  H5  UNK     1      19.602   4.102  32.482  1.00  0.00     0.164 HD
BRANCH   5   8
HETATM    8  C8  UNK     1      18.484   2.104  31.498  1.00  0.00     0.108 A 
HETATM    9  C12 UNK     1      18.318   1.366  32.770  1.00  0.00     0.304 A 
HETATM   10  O1  UNK     1      18.824   0.070  32.813  1.00  0.00    -0.274 OA
HETATM   11  O3  UNK     1      17.760   1.866  33.741  1.00  0.00    -0.259 OA
HETATM   12  C11 UNK     1      19.465  -0.514  31.703  1.00  0.00     0.089 A 
HETATM   13  C10 UNK     1      19.612   0.198  30.517  1.00  0.00    -0.001 A 
HETATM   14  C15 UNK     1      19.940  -1.816  31.841  1.00  0.00     0.038 A 
HETATM   15  C9  UNK     1      19.093   1.554  30.440  1.00  0.00     0.037 A 
HETATM   16  C13 UNK     1      20.254  -0.416  29.437  1.00  0.00     0.014 A 
HETATM   17  C16 UNK     1      20.736  -1.722  29.561  1.00  0.00     0.001 A 
HETATM   18  C17 UNK     1      20.578  -2.421  30.760  1.00  0.00     0.003 A 
ENDBRANCH   5   8
ENDBRANCH   1   4
BRANCH   1  19
HETATM   19  C2  UNK     1      18.628   6.362  30.507  1.00  0.00     0.040 C 
HETATM   20  C4  UNK     1      19.924   5.972  29.798  1.00  0.00     0.009 C 
ENDBRANCH   1  19
BRANCH   1  21
HETATM   21  C3  UNK     1      17.029   6.080  32.425  1.00  0.00     0.040 C 
HETATM   22  C5  UNK     1      16.683   7.541  32.706  1.00  0.00     0.009 C 
ENDBRANCH   1  21
TORSDOF 4
ENDMDL
MODEL 5
REMARK VINA RESULT:      -8.0      7.092     10.771
REMARK  4 active torsions:
REMARK  status: ('A' for Active; 'I' for Inactive)
REMARK    1  A    between atoms: C1_5  and  N1_4 
REMARK       I    between atoms: C6_10  and  N1_4 
REMARK    2  A    between atoms: C1_5  and  C2_6 
REMARK    3  A    between atoms: C1_5  and  C3_7 
REMARK    4  A    between atoms: C6_10  and  C8_12 
ROOT
HETATM    1  C1  UNK     1      18.363   6.000  31.869  1.00  0.00     0.095 C 
HETATM    2  C7  UNK     1      19.568   6.495  32.573  1.00  0.00    -0.086 C 
HETATM    3  C14 UNK     1      20.545   6.897  33.144  1.00  0.00     0.015 C 
ENDROOT
BRANCH   1   4
HETATM    4  N1  UNK     1      18.670   4.742  31.213  1.00  0.00    -0.337 N 
HETATM    5  C6  UNK     1      18.272   3.526  31.721  1.00  0.00     0.259 C 
HETATM    6  O2  UNK     1      17.634   3.329  32.750  1.00  0.00    -0.267 OA
HETATM    7  H5  UNK     1      19.165   4.782  30.327  1.00  0.00     0.164 HD
BRANCH   5   8
HETATM    8  C8  UNK     1      18.700   2.396  30.876  1.00  0.00     0.108 A 
HETATM    9  C12 UNK     1      18.644   2.457  29.398  1.00  0.00     0.304 A 
HETATM   10  O1  UNK     1      19.075   1.326  28.708  1.00  0.00    -0.274 OA
HETATM   11  O3  UNK     1      18.241   3.451  28.804  1.00  0.00    -0.259 OA
HETATM   12  C11 UNK     1      19.542   0.180  29.380  1.00  0.00     0.089 A 
HETATM   13  C10 UNK     1      19.585   0.144  30.770  1.00  0.00    -0.001 A 
HETATM   14  C15 UNK     1      19.952  -0.903  28.605  1.00  0.00     0.038 A 
HETATM   15  C9  UNK     1      19.141   1.309  31.519  1.00  0.00     0.037 A 
HETATM   16  C13 UNK     1      20.053  -1.013  31.401  1.00  0.00     0.014 A 
HETATM   17  C16 UNK     1      20.468  -2.107  30.635  1.00  0.00     0.001 A 
HETATM   18  C17 UNK     1      20.418  -2.051  29.240  1.00  0.00     0.003 A 
ENDBRANCH   5   8
ENDBRANCH   1   4
BRANCH   1  19
HETATM   19  C2  UNK     1      17.899   7.038  30.815  1.00  0.00     0.040 C 
HETATM   20  C4  UNK     1      16.637   7.816  31.184  1.00  0.00     0.009 C 
ENDBRANCH   1  19
BRANCH   1  21
HETATM   21  C3  UNK     1      17.209   5.792  32.886  1.00  0.00     0.040 C 
HETATM   22  C5  UNK     1      17.380   6.525  34.215  1.00  0.00     0.009 C 
ENDBRANCH   1  21
TORSDOF 4
ENDMDL
MODEL 6
REMARK VINA RESULT:      -7.9      6.197     10.428
REMARK  4 active torsions:
REMARK  status: ('A' for Active; 'I' for Inactive)
REMARK    1  A    between atoms: C1_5  and  N1_4 
REMARK       I    between atoms: C6_10  and  N1_4 
REMARK    2  A    between atoms: C1_5  and  C2_6 
REMARK    3  A    between atoms: C1_5  and  C3_7 
REMARK    4  A    between atoms: C6_10  and  C8_12 
ROOT
HETATM    1  C1  UNK     1      18.942   6.138  32.514  1.00  0.00     0.095 C 
HETATM    2  C7  UNK     1      17.799   6.424  33.411  1.00  0.00    -0.086 C 
HETATM    3  C14 UNK     1      16.873   6.658  34.138  1.00  0.00     0.015 C 
ENDROOT
BRANCH   1   4
HETATM    4  N1  UNK     1      19.108   4.702  32.387  1.00  0.00    -0.337 N 
HETATM    5  C6  UNK     1      18.132   3.887  31.858  1.00  0.00     0.259 C 
HETATM    6  O2  UNK     1      17.033   4.231  31.436  1.00  0.00    -0.267 OA
HETATM    7  H5  UNK     1      19.998   4.305  32.671  1.00  0.00     0.164 HD
BRANCH   5   8
HETATM    8  C8  UNK     1      18.536   2.469  31.832  1.00  0.00     0.108 A 
HETATM    9  C12 UNK     1      18.390   1.590  33.014  1.00  0.00     0.304 A 
HETATM   10  O1  UNK     1      18.807   0.270  32.867  1.00  0.00    -0.274 OA
HETATM   11  O3  UNK     1      17.924   1.999  34.073  1.00  0.00    -0.259 OA
HETATM   12  C11 UNK     1      19.341  -0.210  31.656  1.00  0.00     0.089 A 
HETATM   13  C10 UNK     1      19.470   0.633  30.557  1.00  0.00    -0.001 A 
HETATM   14  C15 UNK     1      19.731  -1.547  31.604  1.00  0.00     0.038 A 
HETATM   15  C9  UNK     1      19.044   2.018  30.679  1.00  0.00     0.037 A 
HETATM   16  C13 UNK     1      20.006   0.121  29.372  1.00  0.00     0.014 A 
HETATM   17  C16 UNK     1      20.401  -1.219  29.306  1.00  0.00     0.001 A 
HETATM   18  C17 UNK     1      20.263  -2.050  30.420  1.00  0.00     0.003 A 
ENDBRANCH   5   8
ENDBRANCH   1   4
BRANCH   1  19
HETATM   19  C2  UNK     1      20.239   6.763  33.088  1.00  0.00     0.040 C 
HETATM   20  C4  UNK     1      21.537   6.120  32.605  1.00  0.00     0.009 C 
ENDBRANCH   1  19
BRANCH   1  21
HETATM   21  C3  UNK     1      18.681   6.760  31.116  1.00  0.00     0.040 C 
HETATM   22  C5  UNK     1      19.449   6.110  29.967  1.00  0.00     0.009 C 
ENDBRANCH   1  21
TORSDOF 4
ENDMDL
MODEL 7
REMARK VINA RESULT:      -7.9      4.711      9.457
REMARK  4 active torsions:
REMARK  status: ('A' for Active; 'I' for Inactive)
REMARK    1  A    between atoms: C1_5  and  N1_4 
REMARK       I    between atoms: C6_10  and  N1_4 
REMARK    2  A    between atoms: C1_5  and  C2_6 
REMARK    3  A    between atoms: C1_5  and  C3_7 
REMARK    4  A    between atoms: C6_10  and  C8_12 
ROOT
HETATM    1  C1  UNK     1      18.404   5.663  32.444  1.00  0.00     0.095 C 
HETATM    2  C7  UNK     1      19.219   6.667  33.165  1.00  0.00    -0.086 C 
HETATM    3  C14 UNK     1      19.880   7.481  33.749  1.00  0.00     0.015 C 
ENDROOT
BRANCH   1   4
HETATM    4  N1  UNK     1      18.435   4.406  33.167  1.00  0.00    -0.337 N 
HETATM    5  C6  UNK     1      17.992   3.224  32.617  1.00  0.00     0.259 C 
HETATM    6  O2  UNK     1      17.528   3.061  31.494  1.00  0.00    -0.267 OA
HETATM    7  H5  UNK     1      18.837   4.409  34.100  1.00  0.00     0.164 HD
BRANCH   5   8
HETATM    8  C8  UNK     1      18.128   2.086  33.544  1.00  0.00     0.108 A 
HETATM    9  C12 UNK     1      18.581   0.752  33.089  1.00  0.00     0.304 A 
HETATM   10  O1  UNK     1      18.669  -0.243  34.059  1.00  0.00    -0.274 OA
HETATM   11  O3  UNK     1      18.868   0.529  31.918  1.00  0.00    -0.259 OA
HETATM   12  C11 UNK     1      18.345   0.003  35.408  1.00  0.00     0.089 A 
HETATM   13  C10 UNK     1      17.920   1.263  35.813  1.00  0.00    -0.001 A 
HETATM   14  C15 UNK     1      18.464  -1.056  36.305  1.00  0.00     0.038 A 
HETATM   15  C9  UNK     1      17.817   2.324  34.824  1.00  0.00     0.037 A 
HETATM   16  C13 UNK     1      17.606   1.468  37.160  1.00  0.00     0.014 A 
HETATM   17  C16 UNK     1      17.721   0.415  38.072  1.00  0.00     0.001 A 
HETATM   18  C17 UNK     1      18.150  -0.844  37.646  1.00  0.00     0.003 A 
ENDBRANCH   5   8
ENDBRANCH   1   4
BRANCH   1  19
HETATM   19  C2  UNK     1      18.962   5.455  31.012  1.00  0.00     0.040 C 
HETATM   20  C4  UNK     1      20.459   5.715  30.856  1.00  0.00     0.009 C 
ENDBRANCH   1  19
BRANCH   1  21
HETATM   21  C3  UNK     1      16.939   6.163  32.325  1.00  0.00     0.040 C 
HETATM   22  C5  UNK     1      16.765   7.481  31.573  1.00  0.00     0.009 C 
ENDBRANCH   1  21
TORSDOF 4
ENDMDL
MODEL 8
REMARK VINA RESULT:      -7.9      1.514      1.954
REMARK  4 active torsions:
REMARK  status: ('A' for Active; 'I' for Inactive)
REMARK    1  A    between atoms: C1_5  and  N1_4 
REMARK       I    between atoms: C6_10  and  N1_4 
REMARK    2  A    between atoms: C1_5  and  C2_6 
REMARK    3  A    between atoms: C1_5  and  C3_7 
REMARK    4  A    between atoms: C6_10  and  C8_12 
ROOT
HETATM    1  C1  UNK     1      21.164  -6.011  38.012  1.00  0.00     0.095 C 
HETATM    2  C7  UNK     1      21.148  -6.970  36.885  1.00  0.00    -0.086 C 
HETATM    3  C14 UNK     1      21.134  -7.749  35.971  1.00  0.00     0.015 C 
ENDROOT
BRANCH   1   4
HETATM    4  N1  UNK     1      20.767  -4.699  37.536  1.00  0.00    -0.337 N 
HETATM    5  C6  UNK     1      19.568  -4.474  36.898  1.00  0.00     0.259 C 
HETATM    6  O2  UNK     1      18.699  -5.303  36.648  1.00  0.00    -0.267 OA
HETATM    7  H5  UNK     1      21.394  -3.922  37.722  1.00  0.00     0.164 HD
BRANCH   5   8
HETATM    8  C8  UNK     1      19.391  -3.062  36.513  1.00  0.00     0.108 A 
HETATM    9  C12 UNK     1      20.018  -2.497  35.297  1.00  0.00     0.304 A 
HETATM   10  O1  UNK     1      19.778  -1.150  35.038  1.00  0.00    -0.274 OA
HETATM   11  O3  UNK     1      20.714  -3.176  34.550  1.00  0.00    -0.259 OA
HETATM   12  C11 UNK     1      18.979  -0.361  35.889  1.00  0.00     0.089 A 
HETATM   13  C10 UNK     1      18.400  -0.913  37.026  1.00  0.00    -0.001 A 
HETATM   14  C15 UNK     1      18.796   0.978  35.547  1.00  0.00     0.038 A 
HETATM   15  C9  UNK     1      18.632  -2.317  37.324  1.00  0.00     0.037 A 
HETATM   16  C13 UNK     1      17.614  -0.097  37.846  1.00  0.00     0.014 A 
HETATM   17  C16 UNK     1      17.422   1.247  37.516  1.00  0.00     0.001 A 
HETATM   18  C17 UNK     1      18.011   1.783  36.368  1.00  0.00     0.003 A 
ENDBRANCH   5   8
ENDBRANCH   1   4
BRANCH   1  19
HETATM   19  C2  UNK     1      22.587  -5.935  38.624  1.00  0.00     0.040 C 
HETATM   20  C4  UNK     1      23.021  -7.170  39.411  1.00  0.00     0.009 C 
ENDBRANCH   1  19
BRANCH   1  21
HETATM   21  C3  UNK     1      20.185  -6.485  39.119  1.00  0.00     0.040 C 
HETATM   22  C5  UNK     1      19.585  -7.872  38.900  1.00  0.00     0.009 C 
ENDBRANCH   1  21
TORSDOF 4
ENDMDL
MODEL 9
REMARK VINA RESULT:      -7.4      5.112      9.945
REMARK  4 active torsions:
REMARK  status: ('A' for Active; 'I' for Inactive)
REMARK    1  A    between atoms: C1_5  and  N1_4 
REMARK       I    between atoms: C6_10  and  N1_4 
REMARK    2  A    between atoms: C1_5  and  C2_6 
REMARK    3  A    between atoms: C1_5  and  C3_7 
REMARK    4  A    between atoms: C6_10  and  C8_12 
ROOT
HETATM    1  C1  UNK     1      17.960   6.532  32.510  1.00  0.00     0.095 C 
HETATM    2  C7  UNK     1      18.067   7.426  33.685  1.00  0.00    -0.086 C 
HETATM    3  C14 UNK     1      18.154   8.152  34.637  1.00  0.00     0.015 C 
ENDROOT
BRANCH   1   4
HETATM    4  N1  UNK     1      17.813   5.160  32.959  1.00  0.00    -0.337 N 
HETATM    5  C6  UNK     1      18.706   4.562  33.820  1.00  0.00     0.259 C 
HETATM    6  O2  UNK     1      19.708   5.070  34.313  1.00  0.00    -0.267 OA
HETATM    7  H5  UNK     1      16.994   4.647  32.645  1.00  0.00     0.164 HD
BRANCH   5   8
HETATM    8  C8  UNK     1      18.342   3.168  34.131  1.00  0.00     0.108 A 
HETATM    9  C12 UNK     1      17.980   2.198  33.073  1.00  0.00     0.304 A 
HETATM   10  O1  UNK     1      17.655   0.910  33.491  1.00  0.00    -0.274 OA
HETATM   11  O3  UNK     1      17.966   2.506  31.887  1.00  0.00    -0.259 OA
HETATM   12  C11 UNK     1      17.669   0.544  34.851  1.00  0.00     0.089 A 
HETATM   13  C10 UNK     1      18.012   1.472  35.829  1.00  0.00    -0.001 A 
HETATM   14  C15 UNK     1      17.329  -0.768  35.172  1.00  0.00     0.038 A 
HETATM   15  C9  UNK     1      18.357   2.826  35.425  1.00  0.00     0.037 A 
HETATM   16  C13 UNK     1      18.014   1.072  37.168  1.00  0.00     0.014 A 
HETATM   17  C16 UNK     1      17.675  -0.242  37.505  1.00  0.00     0.001 A 
HETATM   18  C17 UNK     1      17.334  -1.160  36.509  1.00  0.00     0.003 A 
ENDBRANCH   5   8
ENDBRANCH   1   4
BRANCH   1  19
HETATM   19  C2  UNK     1      19.228   6.658  31.627  1.00  0.00     0.040 C 
HETATM   20  C4  UNK     1      19.194   5.858  30.327  1.00  0.00     0.009 C 
ENDBRANCH   1  19
BRANCH   1  21
HETATM   21  C3  UNK     1      16.730   6.936  31.653  1.00  0.00     0.040 C 
HETATM   22  C5  UNK     1      15.418   7.059  32.424  1.00  0.00     0.009 C 
ENDBRANCH   1  21
TORSDOF 4
ENDMDL
MODEL 10
REMARK VINA RESULT:      -7.4      4.279      6.752
REMARK  4 active torsions:
REMARK  status: ('A' for Active; 'I' for Inactive)
REMARK    1  A    between atoms: C1_5  and  N1_4 
REMARK       I    between atoms: C6_10  and  N1_4 
REMARK    2  A    between atoms: C1_5  and  C2_6 
REMARK    3  A    between atoms: C1_5  and  C3_7 
REMARK    4  A    between atoms: C6_10  and  C8_12 
ROOT
HETATM    1  C1  UNK     1      18.172  -0.347  35.423  1.00  0.00     0.095 C 
HETATM    2  C7  UNK     1      19.218  -1.386  35.290  1.00  0.00    -0.086 C 
HETATM    3  C14 UNK     1      20.065  -2.230  35.183  1.00  0.00     0.015 C 
ENDROOT
BRANCH   1   4
HETATM    4  N1  UNK     1      18.349   0.652  34.386  1.00  0.00    -0.337 N 
HETATM    5  C6  UNK     1      18.351   0.336  33.045  1.00  0.00     0.259 C 
HETATM    6  O2  UNK     1      18.212  -0.778  32.550  1.00  0.00    -0.267 OA
HETATM    7  H5  UNK     1      18.436   1.621  34.676  1.00  0.00     0.164 HD
BRANCH   5   8
HETATM    8  C8  UNK     1      18.545   1.519  32.188  1.00  0.00     0.108 A 
HETATM    9  C12 UNK     1      19.085   1.413  30.814  1.00  0.00     0.304 A 
HETATM   10  O1  UNK     1      19.223   2.602  30.103  1.00  0.00    -0.274 OA
HETATM   11  O3  UNK     1      19.396   0.334  30.321  1.00  0.00    -0.259 OA
HETATM   12  C11 UNK     1      18.867   3.846  30.659  1.00  0.00     0.089 A 
HETATM   13  C10 UNK     1      18.362   3.923  31.952  1.00  0.00    -0.001 A 
HETATM   14  C15 UNK     1      19.041   4.981  29.870  1.00  0.00     0.038 A 
HETATM   15  C9  UNK     1      18.206   2.699  32.722  1.00  0.00     0.037 A 
HETATM   16  C13 UNK     1      18.020   5.176  32.470  1.00  0.00     0.014 A 
HETATM   17  C16 UNK     1      18.189   6.324  31.689  1.00  0.00     0.001 A 
HETATM   18  C17 UNK     1      18.697   6.226  30.392  1.00  0.00     0.003 A 
ENDBRANCH   5   8
ENDBRANCH   1   4
BRANCH   1  19
HETATM   19  C2  UNK     1      18.266   0.327  36.816  1.00  0.00     0.040 C 
HETATM   20  C4  UNK     1      18.329   1.853  36.794  1.00  0.00     0.009 C 
ENDBRANCH   1  19
BRANCH   1  21
HETATM   21  C3  UNK     1      16.768  -0.995  35.291  1.00  0.00     0.040 C 
HETATM   22  C5  UNK     1      15.596  -0.019  35.368  1.00  0.00     0.009 C 
ENDBRANCH   1  21
TORSDOF 4
ENDMDL
