MODEL 1
REMARK VINA RESULT:      -7.4      0.000      0.000
REMARK  1 active torsions:
REMARK  status: ('A' for Active; 'I' for Inactive)
REMARK    1  A    between atoms: C12_17  and  C8_13 
ROOT
HETATM    1  O1  UNK     1      18.883  -0.048  33.352  1.00  0.00    -0.309 OA
HETATM    2  O2  UNK     1      17.791   3.709  32.210  1.00  0.00    -0.287 OA
HETATM    3  C1  UNK     1      18.748   1.619  31.589  1.00  0.00     0.054 A 
HETATM    4  C2  UNK     1      18.984   1.970  30.257  1.00  0.00    -0.044 A 
HETATM    5  C3  UNK     1      19.093   0.351  32.056  1.00  0.00     0.091 A 
HETATM    6  C4  UNK     1      19.916  -0.227  29.861  1.00  0.00    -0.059 A 
HETATM    7  C5  UNK     1      19.569   1.042  29.395  1.00  0.00     0.014 A 
HETATM    8  C6  UNK     1      19.678  -0.575  31.192  1.00  0.00     0.045 A 
HETATM    9  C7  UNK     1      18.130   2.575  32.521  1.00  0.00     0.188 A 
HETATM   10  C8  UNK     1      18.301   0.852  34.232  1.00  0.00     0.111 A 
HETATM   11  C9  UNK     1      17.927   2.096  33.902  1.00  0.00     0.093 A 
HETATM   12  C10 UNK     1      18.646   3.308  29.684  1.00  0.00     0.049 C 
HETATM   13  C11 UNK     1      20.542  -1.215  28.936  1.00  0.00     0.048 C 
ENDROOT
BRANCH  10  14
HETATM   14  C12 UNK     1      18.123   0.305  35.613  1.00  0.00     0.237 C 
HETATM   15 Cl1  UNK     1      16.474  -0.347  35.763  1.00  0.00    -0.076 Cl
HETATM   16 Cl2  UNK     1      19.309  -0.991  35.905  1.00  0.00    -0.076 Cl
HETATM   17 Cl3  UNK     1      18.365   1.603  36.807  1.00  0.00    -0.076 Cl
ENDBRANCH  10  14
TORSDOF 1
ENDMDL
MODEL 2
REMARK VINA RESULT:      -7.3      2.006      3.676
REMARK  1 active torsions:
REMARK  status: ('A' for Active; 'I' for Inactive)
REMARK    1  A    between atoms: C12_17  and  C8_13 
ROOT
HETATM    1  O1  UNK     1      18.537   0.114  33.250  1.00  0.00    -0.309 OA
HETATM    2  O2  UNK     1      20.435  -3.315  34.364  1.00  0.00    -0.287 OA
HETATM    3  C1  UNK     1      19.906  -1.790  32.615  1.00  0.00     0.054 A 
HETATM    4  C2  UNK     1      20.598  -2.483  31.619  1.00  0.00    -0.044 A 
HETATM    5  C3  UNK     1      19.231  -0.607  32.313  1.00  0.00     0.091 A 
HETATM    6  C4  UNK     1      19.936  -0.800  30.012  1.00  0.00    -0.059 A 
HETATM    7  C5  UNK     1      20.611  -1.983  30.315  1.00  0.00     0.014 A 
HETATM    8  C6  UNK     1      19.246  -0.110  31.009  1.00  0.00     0.045 A 
HETATM    9  C7  UNK     1      19.876  -2.291  33.998  1.00  0.00     0.188 A 
HETATM   10  C8  UNK     1      18.507  -0.356  34.554  1.00  0.00     0.111 A 
HETATM   11  C9  UNK     1      19.115  -1.478  34.966  1.00  0.00     0.093 A 
HETATM   12  C10 UNK     1      21.341  -3.756  31.862  1.00  0.00     0.049 C 
HETATM   13  C11 UNK     1      19.952  -0.270  28.617  1.00  0.00     0.048 C 
ENDROOT
BRANCH  10  14
HETATM   14  C12 UNK     1      17.721   0.513  35.485  1.00  0.00     0.237 C 
HETATM   15 Cl1  UNK     1      15.994   0.374  35.077  1.00  0.00    -0.076 Cl
HETATM   16 Cl2  UNK     1      17.984  -0.013  37.166  1.00  0.00    -0.076 Cl
HETATM   17 Cl3  UNK     1      18.244   2.205  35.310  1.00  0.00    -0.076 Cl
ENDBRANCH  10  14
TORSDOF 1
ENDMDL
MODEL 3
REMARK VINA RESULT:      -7.1      1.201      2.937
REMARK  1 active torsions:
REMARK  status: ('A' for Active; 'I' for Inactive)
REMARK    1  A    between atoms: C12_17  and  C8_13 
ROOT
HETATM    1  O1  UNK     1      17.932   1.364  33.570  1.00  0.00    -0.309 OA
HETATM    2  O2  UNK     1      19.590  -1.862  31.714  1.00  0.00    -0.287 OA
HETATM    3  C1  UNK     1      19.001   0.441  31.593  1.00  0.00     0.054 A 
HETATM    4  C2  UNK     1      19.483   0.635  30.296  1.00  0.00    -0.044 A 
HETATM    5  C3  UNK     1      18.420   1.497  32.295  1.00  0.00     0.091 A 
HETATM    6  C4  UNK     1      18.797   2.952  30.406  1.00  0.00    -0.059 A 
HETATM    7  C5  UNK     1      19.379   1.895  29.705  1.00  0.00     0.014 A 
HETATM    8  C6  UNK     1      18.318   2.756  31.701  1.00  0.00     0.045 A 
HETATM    9  C7  UNK     1      19.098  -0.875  32.243  1.00  0.00     0.188 A 
HETATM   10  C8  UNK     1      18.022   0.125  34.185  1.00  0.00     0.111 A 
HETATM   11  C9  UNK     1      18.558  -0.964  33.614  1.00  0.00     0.093 A 
HETATM   12  C10 UNK     1      20.114  -0.445  29.480  1.00  0.00     0.049 C 
HETATM   13  C11 UNK     1      18.688   4.298  29.769  1.00  0.00     0.048 C 
ENDROOT
BRANCH  10  14
HETATM   14  C12 UNK     1      17.458   0.103  35.570  1.00  0.00     0.237 C 
HETATM   15 Cl1  UNK     1      15.683   0.195  35.468  1.00  0.00    -0.076 Cl
HETATM   16 Cl2  UNK     1      17.933  -1.406  36.389  1.00  0.00    -0.076 Cl
HETATM   17 Cl3  UNK     1      18.079   1.493  36.492  1.00  0.00    -0.076 Cl
ENDBRANCH  10  14
TORSDOF 1
ENDMDL
MODEL 4
REMARK VINA RESULT:      -7.0      3.582      5.484
REMARK  1 active torsions:
REMARK  status: ('A' for Active; 'I' for Inactive)
REMARK    1  A    between atoms: C12_17  and  C8_13 
ROOT
HETATM    1  O1  UNK     1      18.185   3.908  33.657  1.00  0.00    -0.309 OA
HETATM    2  O2  UNK     1      18.691   1.017  30.831  1.00  0.00    -0.287 OA
HETATM    3  C1  UNK     1      18.384   1.545  33.132  1.00  0.00     0.054 A 
HETATM    4  C2  UNK     1      18.405   0.221  33.577  1.00  0.00    -0.044 A 
HETATM    5  C3  UNK     1      18.215   2.591  34.038  1.00  0.00     0.091 A 
HETATM    6  C4  UNK     1      18.085   0.996  35.846  1.00  0.00    -0.059 A 
HETATM    7  C5  UNK     1      18.254  -0.050  34.938  1.00  0.00     0.014 A 
HETATM    8  C6  UNK     1      18.064   2.318  35.398  1.00  0.00     0.045 A 
HETATM    9  C7  UNK     1      18.539   1.861  31.703  1.00  0.00     0.188 A 
HETATM   10  C8  UNK     1      18.331   4.209  32.311  1.00  0.00     0.111 A 
HETATM   11  C9  UNK     1      18.500   3.293  31.347  1.00  0.00     0.093 A 
HETATM   12  C10 UNK     1      18.585  -0.953  32.670  1.00  0.00     0.049 C 
HETATM   13  C11 UNK     1      17.926   0.702  37.300  1.00  0.00     0.048 C 
ENDROOT
BRANCH  10  14
HETATM   14  C12 UNK     1      18.282   5.675  32.018  1.00  0.00     0.237 C 
HETATM   15 Cl1  UNK     1      16.626   6.262  32.300  1.00  0.00    -0.076 Cl
HETATM   16 Cl2  UNK     1      19.414   6.540  33.087  1.00  0.00    -0.076 Cl
HETATM   17 Cl3  UNK     1      18.740   5.962  30.322  1.00  0.00    -0.076 Cl
ENDBRANCH  10  14
TORSDOF 1
ENDMDL
MODEL 5
REMARK VINA RESULT:      -7.0      2.785      4.794
REMARK  1 active torsions:
REMARK  status: ('A' for Active; 'I' for Inactive)
REMARK    1  A    between atoms: C12_17  and  C8_13 
ROOT
HETATM    1  O1  UNK     1      18.233   3.270  34.144  1.00  0.00    -0.309 OA
HETATM    2  O2  UNK     1      18.596   3.161  30.086  1.00  0.00    -0.287 OA
HETATM    3  C1  UNK     1      18.538   4.487  32.063  1.00  0.00     0.054 A 
HETATM    4  C2  UNK     1      18.714   5.709  31.410  1.00  0.00    -0.044 A 
HETATM    5  C3  UNK     1      18.406   4.441  33.450  1.00  0.00     0.091 A 
HETATM    6  C4  UNK     1      18.626   6.843  33.545  1.00  0.00    -0.059 A 
HETATM    7  C5  UNK     1      18.758   6.888  32.156  1.00  0.00     0.014 A 
HETATM    8  C6  UNK     1      18.451   5.621  34.194  1.00  0.00     0.045 A 
HETATM    9  C7  UNK     1      18.489   3.228  31.303  1.00  0.00     0.188 A 
HETATM   10  C8  UNK     1      18.186   2.082  33.430  1.00  0.00     0.111 A 
HETATM   11  C9  UNK     1      18.300   1.998  32.097  1.00  0.00     0.093 A 
HETATM   12  C10 UNK     1      18.859   5.840  29.929  1.00  0.00     0.049 C 
HETATM   13  C11 UNK     1      18.673   8.106  34.338  1.00  0.00     0.048 C 
ENDROOT
BRANCH  10  14
HETATM   14  C12 UNK     1      17.993   0.875  34.292  1.00  0.00     0.237 C 
HETATM   15 Cl1  UNK     1      18.935   1.082  35.788  1.00  0.00    -0.076 Cl
HETATM   16 Cl2  UNK     1      16.267   0.689  34.691  1.00  0.00    -0.076 Cl
HETATM   17 Cl3  UNK     1      18.555  -0.576  33.426  1.00  0.00    -0.076 Cl
ENDBRANCH  10  14
TORSDOF 1
ENDMDL
MODEL 6
REMARK VINA RESULT:      -6.9      1.266      1.532
REMARK  1 active torsions:
REMARK  status: ('A' for Active; 'I' for Inactive)
REMARK    1  A    between atoms: C12_17  and  C8_13 
ROOT
HETATM    1  O1  UNK     1      18.353  -0.646  34.423  1.00  0.00    -0.309 OA
HETATM    2  O2  UNK     1      17.925   2.826  32.333  1.00  0.00    -0.287 OA
HETATM    3  C1  UNK     1      18.755   0.595  32.373  1.00  0.00     0.054 A 
HETATM    4  C2  UNK     1      19.289   0.628  31.083  1.00  0.00    -0.044 A 
HETATM    5  C3  UNK     1      18.860  -0.557  33.152  1.00  0.00     0.091 A 
HETATM    6  C4  UNK     1      20.039  -1.656  31.354  1.00  0.00    -0.059 A 
HETATM    7  C5  UNK     1      19.932  -0.503  30.576  1.00  0.00     0.014 A 
HETATM    8  C6  UNK     1      19.503  -1.686  32.642  1.00  0.00     0.045 A 
HETATM    9  C7  UNK     1      18.070   1.771  32.934  1.00  0.00     0.188 A 
HETATM   10  C8  UNK     1      17.708   0.460  34.954  1.00  0.00     0.111 A 
HETATM   11  C9  UNK     1      17.544   1.622  34.305  1.00  0.00     0.093 A 
HETATM   12  C10 UNK     1      19.220   1.824  30.190  1.00  0.00     0.049 C 
HETATM   13  C11 UNK     1      20.727  -2.862  30.807  1.00  0.00     0.048 C 
ENDROOT
BRANCH  10  14
HETATM   14  C12 UNK     1      17.198   0.245  36.344  1.00  0.00     0.237 C 
HETATM   15 Cl1  UNK     1      15.428   0.431  36.341  1.00  0.00    -0.076 Cl
HETATM   16 Cl2  UNK     1      17.627  -1.394  36.894  1.00  0.00    -0.076 Cl
HETATM   17 Cl3  UNK     1      17.926   1.443  37.441  1.00  0.00    -0.076 Cl
ENDBRANCH  10  14
TORSDOF 1
ENDMDL
MODEL 7
REMARK VINA RESULT:      -6.8      4.107      5.640
REMARK  1 active torsions:
REMARK  status: ('A' for Active; 'I' for Inactive)
REMARK    1  A    between atoms: C12_17  and  C8_13 
ROOT
HETATM    1  O1  UNK     1      18.150   5.686  33.969  1.00  0.00    -0.309 OA
HETATM    2  O2  UNK     1      18.667   5.756  29.928  1.00  0.00    -0.287 OA
HETATM    3  C1  UNK     1      18.409   4.444  31.898  1.00  0.00     0.054 A 
HETATM    4  C2  UNK     1      18.484   3.210  31.247  1.00  0.00    -0.044 A 
HETATM    5  C3  UNK     1      18.232   4.504  33.279  1.00  0.00     0.091 A 
HETATM    6  C4  UNK     1      18.205   2.091  33.374  1.00  0.00    -0.059 A 
HETATM    7  C5  UNK     1      18.380   2.033  31.991  1.00  0.00     0.014 A 
HETATM    8  C6  UNK     1      18.129   3.325  34.020  1.00  0.00     0.045 A 
HETATM    9  C7  UNK     1      18.512   5.701  31.140  1.00  0.00     0.188 A 
HETATM   10  C8  UNK     1      18.248   6.872  33.258  1.00  0.00     0.111 A 
HETATM   11  C9  UNK     1      18.418   6.945  31.930  1.00  0.00     0.093 A 
HETATM   12  C10 UNK     1      18.675   3.064  29.772  1.00  0.00     0.049 C 
HETATM   13  C11 UNK     1      18.096   0.831  34.164  1.00  0.00     0.048 C 
ENDROOT
BRANCH  10  14
HETATM   14  C12 UNK     1      18.144   8.094  34.116  1.00  0.00     0.237 C 
HETATM   15 Cl1  UNK     1      17.070   7.740  35.490  1.00  0.00    -0.076 Cl
HETATM   16 Cl2  UNK     1      19.759   8.544  34.719  1.00  0.00    -0.076 Cl
HETATM   17 Cl3  UNK     1      17.476   9.441  33.163  1.00  0.00    -0.076 Cl
ENDBRANCH  10  14
TORSDOF 1
ENDMDL
MODEL 8
REMARK VINA RESULT:      -6.8     24.444     26.372
REMARK  1 active torsions:
REMARK  status: ('A' for Active; 'I' for Inactive)
REMARK    1  A    between atoms: C12_17  and  C8_13 
ROOT
HETATM    1  O1  UNK     1      11.668   7.886   9.576  1.00  0.00    -0.309 OA
HETATM    2  O2  UNK     1      12.139   6.364   5.825  1.00  0.00    -0.287 OA
HETATM    3  C1  UNK     1      10.640   6.984   7.568  1.00  0.00     0.054 A 
HETATM    4  C2  UNK     1       9.479   6.622   6.881  1.00  0.00    -0.044 A 
HETATM    5  C3  UNK     1      10.562   7.512   8.856  1.00  0.00     0.091 A 
HETATM    6  C4  UNK     1       8.156   7.321   8.782  1.00  0.00    -0.059 A 
HETATM    7  C5  UNK     1       8.236   6.793   7.493  1.00  0.00     0.014 A 
HETATM    8  C6  UNK     1       9.318   7.683   9.465  1.00  0.00     0.045 A 
HETATM    9  C7  UNK     1      11.964   6.817   6.948  1.00  0.00     0.188 A 
HETATM   10  C8  UNK     1      12.917   7.730   8.994  1.00  0.00     0.111 A 
HETATM   11  C9  UNK     1      13.120   7.234   7.765  1.00  0.00     0.093 A 
HETATM   12  C10 UNK     1       9.480   6.046   5.502  1.00  0.00     0.049 C 
HETATM   13  C11 UNK     1       6.825   7.501   9.432  1.00  0.00     0.048 C 
ENDROOT
BRANCH  10  14
HETATM   14  C12 UNK     1      14.044   8.171   9.873  1.00  0.00     0.237 C 
HETATM   15 Cl1  UNK     1      13.370   8.967  11.315  1.00  0.00    -0.076 Cl
HETATM   16 Cl2  UNK     1      15.011   6.758  10.366  1.00  0.00    -0.076 Cl
HETATM   17 Cl3  UNK     1      15.083   9.313   8.987  1.00  0.00    -0.076 Cl
ENDBRANCH  10  14
TORSDOF 1
ENDMDL
MODEL 9
REMARK VINA RESULT:      -6.8      3.372      4.487
REMARK  1 active torsions:
REMARK  status: ('A' for Active; 'I' for Inactive)
REMARK    1  A    between atoms: C12_17  and  C8_13 
ROOT
HETATM    1  O1  UNK     1      18.839   3.597  30.847  1.00  0.00    -0.309 OA
HETATM    2  O2  UNK     1      17.977   1.787  34.395  1.00  0.00    -0.287 OA
HETATM    3  C1  UNK     1      18.695   1.544  32.138  1.00  0.00     0.054 A 
HETATM    4  C2  UNK     1      18.850   0.156  32.196  1.00  0.00    -0.044 A 
HETATM    5  C3  UNK     1      18.971   2.236  30.960  1.00  0.00     0.091 A 
HETATM    6  C4  UNK     1      19.558   0.156  29.883  1.00  0.00    -0.059 A 
HETATM    7  C5  UNK     1      19.282  -0.535  31.063  1.00  0.00     0.014 A 
HETATM    8  C6  UNK     1      19.404   1.542  29.829  1.00  0.00     0.045 A 
HETATM    9  C7  UNK     1      18.243   2.300  33.317  1.00  0.00     0.188 A 
HETATM   10  C8  UNK     1      18.412   4.311  31.956  1.00  0.00     0.111 A 
HETATM   11  C9  UNK     1      18.117   3.760  33.142  1.00  0.00     0.093 A 
HETATM   12  C10 UNK     1      18.571  -0.656  33.419  1.00  0.00     0.049 C 
HETATM   13  C11 UNK     1      20.019  -0.587  28.674  1.00  0.00     0.048 C 
ENDROOT
BRANCH  10  14
HETATM   14  C12 UNK     1      18.305   5.784  31.713  1.00  0.00     0.237 C 
HETATM   15 Cl1  UNK     1      16.659   6.316  32.129  1.00  0.00    -0.076 Cl
HETATM   16 Cl2  UNK     1      19.489   6.647  32.726  1.00  0.00    -0.076 Cl
HETATM   17 Cl3  UNK     1      18.633   6.133  29.998  1.00  0.00    -0.076 Cl
ENDBRANCH  10  14
TORSDOF 1
ENDMDL
MODEL 10
REMARK VINA RESULT:      -6.7      7.008      9.107
REMARK  1 active torsions:
REMARK  status: ('A' for Active; 'I' for Inactive)
REMARK    1  A    between atoms: C12_17  and  C8_13 
ROOT
HETATM    1  O1  UNK     1      18.518   8.203  33.070  1.00  0.00    -0.309 OA
HETATM    2  O2  UNK     1      14.571   7.510  33.810  1.00  0.00    -0.287 OA
HETATM    3  C1  UNK     1      16.389   9.047  33.880  1.00  0.00     0.054 A 
HETATM    4  C2  UNK     1      15.649  10.104  34.417  1.00  0.00    -0.044 A 
HETATM    5  C3  UNK     1      17.745   9.205  33.599  1.00  0.00     0.091 A 
HETATM    6  C4  UNK     1      17.637  11.483  34.391  1.00  0.00    -0.059 A 
HETATM    7  C5  UNK     1      16.279  11.323  34.671  1.00  0.00     0.014 A 
HETATM    8  C6  UNK     1      18.372  10.426  33.854  1.00  0.00     0.045 A 
HETATM    9  C7  UNK     1      15.752   7.750  33.600  1.00  0.00     0.188 A 
HETATM   10  C8  UNK     1      17.921   6.980  32.806  1.00  0.00     0.111 A 
HETATM   11  C9  UNK     1      16.628   6.706  33.033  1.00  0.00     0.093 A 
HETATM   12  C10 UNK     1      14.196  10.010  34.749  1.00  0.00     0.049 C 
HETATM   13  C11 UNK     1      18.305  12.789  34.665  1.00  0.00     0.048 C 
ENDROOT
BRANCH  10  14
HETATM   14  C12 UNK     1      18.862   5.968  32.232  1.00  0.00     0.237 C 
HETATM   15 Cl1  UNK     1      20.481   6.233  32.923  1.00  0.00    -0.076 Cl
HETATM   16 Cl2  UNK     1      18.299   4.327  32.637  1.00  0.00    -0.076 Cl
HETATM   17 Cl3  UNK     1      18.928   6.146  30.462  1.00  0.00    -0.076 Cl
ENDBRANCH  10  14
TORSDOF 1
ENDMDL
