MODEL 1
REMARK VINA RESULT:      -8.2      0.000      0.000
REMARK  5 active torsions:
REMARK  status: ('A' for Active; 'I' for Inactive)
REMARK    1  A    between atoms: C7_12  and  N1_4 
REMARK    2  A    between atoms: C1_6  and  C3_8 
REMARK    3  A    between atoms: C2_7  and  C6_11 
REMARK    4  A    between atoms: C5_10  and  C8_13 
REMARK    5  A    between atoms: C11_16  and  C6_11 
ROOT
HETATM    1  O1  UNK     1      31.149  -6.607  38.331  1.00  0.00    -0.292 OA
HETATM    2  N2  UNK     1      33.620  -3.525  35.573  1.00  0.00    -0.191 NA
HETATM    3  C1  UNK     1      31.017  -5.975  35.532  1.00  0.00     0.108 C 
HETATM    4  C2  UNK     1      29.988  -6.823  36.249  1.00  0.00     0.041 C 
HETATM    5  C4  UNK     1      32.005  -5.330  36.497  1.00  0.00     0.086 C 
HETATM    6  C5  UNK     1      30.107  -7.102  37.560  1.00  0.00     0.099 C 
HETATM    7  C7  UNK     1      32.035  -5.665  37.807  1.00  0.00     0.159 C 
HETATM    8  C16 UNK     1      32.897  -4.333  35.987  1.00  0.00     0.100 C 
ENDROOT
BRANCH   3   9
HETATM    9  C3  UNK     1      31.737  -6.762  34.439  1.00  0.00    -0.022 A 
HETATM   10  C10 UNK     1      32.587  -7.794  34.826  1.00  0.00     0.010 A 
HETATM   11  C13 UNK     1      33.262  -8.535  33.856  1.00  0.00     0.001 A 
HETATM   12  C17 UNK     1      33.085  -8.241  32.505  1.00  0.00     0.002 A 
HETATM   13  C12 UNK     1      32.232  -7.205  32.122  1.00  0.00     0.024 A 
HETATM   14  C9  UNK     1      31.557  -6.464  33.093  1.00  0.00     0.041 A 
HETATM   15 Cl1  UNK     1      30.511  -5.189  32.581  1.00  0.00    -0.084 Cl
ENDBRANCH   3   9
BRANCH   7  16
HETATM   16  N1  UNK     1      32.896  -5.146  38.734  1.00  0.00    -0.379 N 
HETATM   17  H8  UNK     1      33.456  -4.330  38.525  1.00  0.00     0.158 HD
HETATM   18  H9  UNK     1      32.966  -5.594  39.639  1.00  0.00     0.158 HD
ENDBRANCH   7  16
BRANCH   4  19
HETATM   19  C6  UNK     1      28.835  -7.291  35.460  1.00  0.00     0.192 C 
HETATM   20  O2  UNK     1      27.746  -6.745  35.665  1.00  0.00    -0.287 OA
BRANCH  19  21
HETATM   21  C11 UNK     1      28.999  -8.387  34.492  1.00  0.00     0.015 A 
HETATM   22  C18 UNK     1      28.566  -8.214  33.187  1.00  0.00     0.015 A 
HETATM   23  C23 UNK     1      28.724  -9.252  32.269  1.00  0.00     0.001 A 
HETATM   24  C25 UNK     1      29.314 -10.451  32.668  1.00  0.00     0.000 A 
HETATM   25  C24 UNK     1      29.746 -10.613  33.984  1.00  0.00     0.001 A 
HETATM   26  C19 UNK     1      29.587  -9.574  34.902  1.00  0.00     0.015 A 
ENDBRANCH  19  21
ENDBRANCH   4  19
BRANCH   6  27
HETATM   27  C8  UNK     1      29.186  -7.938  38.336  1.00  0.00    -0.002 A 
HETATM   28  C14 UNK     1      29.419  -9.310  38.459  1.00  0.00     0.014 A 
HETATM   29  C20 UNK     1      28.542 -10.103  39.198  1.00  0.00     0.001 A 
HETATM   30  C22 UNK     1      27.432  -9.527  39.816  1.00  0.00     0.000 A 
HETATM   31  C21 UNK     1      27.197  -8.158  39.694  1.00  0.00     0.001 A 
HETATM   32  C15 UNK     1      28.074  -7.364  38.953  1.00  0.00     0.014 A 
ENDBRANCH   6  27
TORSDOF 5
ENDMDL
MODEL 2
REMARK VINA RESULT:      -8.0      2.612      5.216
REMARK  5 active torsions:
REMARK  status: ('A' for Active; 'I' for Inactive)
REMARK    1  A    between atoms: C7_12  and  N1_4 
REMARK    2  A    between atoms: C1_6  and  C3_8 
REMARK    3  A    between atoms: C2_7  and  C6_11 
REMARK    4  A    between atoms: C5_10  and  C8_13 
REMARK    5  A    between atoms: C11_16  and  C6_11 
ROOT
HETATM    1  O1  UNK     1      28.062  -7.549  34.737  1.00  0.00    -0.292 OA
HETATM    2  N2  UNK     1      29.868  -5.554  38.733  1.00  0.00    -0.191 NA
HETATM    3  C1  UNK     1      30.346  -5.872  35.204  1.00  0.00     0.108 C 
HETATM    4  C2  UNK     1      29.823  -6.209  33.824  1.00  0.00     0.041 C 
HETATM    5  C4  UNK     1      29.408  -6.347  36.308  1.00  0.00     0.086 C 
HETATM    6  C5  UNK     1      28.758  -7.015  33.662  1.00  0.00     0.099 C 
HETATM    7  C7  UNK     1      28.348  -7.143  36.040  1.00  0.00     0.159 C 
HETATM    8  C16 UNK     1      29.662  -5.909  37.647  1.00  0.00     0.100 C 
ENDROOT
BRANCH   3   9
HETATM    9  C3  UNK     1      31.766  -6.393  35.416  1.00  0.00    -0.022 A 
HETATM   10  C10 UNK     1      31.963  -7.771  35.431  1.00  0.00     0.010 A 
HETATM   11  C13 UNK     1      33.245  -8.284  35.622  1.00  0.00     0.001 A 
HETATM   12  C17 UNK     1      34.324  -7.419  35.797  1.00  0.00     0.002 A 
HETATM   13  C12 UNK     1      34.122  -6.038  35.781  1.00  0.00     0.024 A 
HETATM   14  C9  UNK     1      32.838  -5.525  35.591  1.00  0.00     0.041 A 
HETATM   15 Cl1  UNK     1      32.626  -3.812  35.578  1.00  0.00    -0.084 Cl
ENDBRANCH   3   9
BRANCH   7  16
HETATM   16  N1  UNK     1      27.468  -7.623  36.970  1.00  0.00    -0.379 N 
HETATM   17  H8  UNK     1      26.722  -8.253  36.705  1.00  0.00     0.158 HD
HETATM   18  H9  UNK     1      27.572  -7.335  37.935  1.00  0.00     0.158 HD
ENDBRANCH   7  16
BRANCH   4  19
HETATM   19  C6  UNK     1      30.505  -5.588  32.676  1.00  0.00     0.192 C 
HETATM   20  O2  UNK     1      30.527  -4.353  32.628  1.00  0.00    -0.287 OA
BRANCH  19  21
HETATM   21  C11 UNK     1      31.105  -6.430  31.629  1.00  0.00     0.015 A 
HETATM   22  C18 UNK     1      31.999  -7.428  31.986  1.00  0.00     0.015 A 
HETATM   23  C23 UNK     1      32.566  -8.227  30.994  1.00  0.00     0.001 A 
HETATM   24  C25 UNK     1      32.233  -8.018  29.656  1.00  0.00     0.000 A 
HETATM   25  C24 UNK     1      31.332  -7.011  29.310  1.00  0.00     0.001 A 
HETATM   26  C19 UNK     1      30.765  -6.211  30.303  1.00  0.00     0.015 A 
ENDBRANCH  19  21
ENDBRANCH   4  19
BRANCH   6  27
HETATM   27  C8  UNK     1      28.197  -7.429  32.371  1.00  0.00    -0.002 A 
HETATM   28  C14 UNK     1      27.316  -6.589  31.689  1.00  0.00     0.014 A 
HETATM   29  C20 UNK     1      26.784  -6.983  30.461  1.00  0.00     0.001 A 
HETATM   30  C22 UNK     1      27.132  -8.219  29.915  1.00  0.00     0.000 A 
HETATM   31  C21 UNK     1      28.012  -9.060  30.596  1.00  0.00     0.001 A 
HETATM   32  C15 UNK     1      28.544  -8.665  31.824  1.00  0.00     0.014 A 
ENDBRANCH   6  27
TORSDOF 5
ENDMDL
MODEL 3
REMARK VINA RESULT:      -7.7      1.783      2.383
REMARK  5 active torsions:
REMARK  status: ('A' for Active; 'I' for Inactive)
REMARK    1  A    between atoms: C7_12  and  N1_4 
REMARK    2  A    between atoms: C1_6  and  C3_8 
REMARK    3  A    between atoms: C2_7  and  C6_11 
REMARK    4  A    between atoms: C5_10  and  C8_13 
REMARK    5  A    between atoms: C11_16  and  C6_11 
ROOT
HETATM    1  O1  UNK     1      29.053  -5.714  39.043  1.00  0.00    -0.292 OA
HETATM    2  N2  UNK     1      31.575  -2.313  36.743  1.00  0.00    -0.191 NA
HETATM    3  C1  UNK     1      30.290  -5.638  36.452  1.00  0.00     0.108 C 
HETATM    4  C2  UNK     1      29.346  -6.733  36.897  1.00  0.00     0.041 C 
HETATM    5  C4  UNK     1      30.344  -4.483  37.447  1.00  0.00     0.086 C 
HETATM    6  C5  UNK     1      28.807  -6.729  38.129  1.00  0.00     0.099 C 
HETATM    7  C7  UNK     1      29.751  -4.569  38.660  1.00  0.00     0.159 C 
HETATM    8  C16 UNK     1      31.023  -3.285  37.058  1.00  0.00     0.100 C 
ENDROOT
BRANCH   3   9
HETATM    9  C3  UNK     1      31.686  -6.179  36.150  1.00  0.00    -0.022 A 
HETATM   10  C10 UNK     1      32.421  -6.718  37.202  1.00  0.00     0.010 A 
HETATM   11  C13 UNK     1      33.700  -7.223  36.965  1.00  0.00     0.001 A 
HETATM   12  C17 UNK     1      34.236  -7.187  35.679  1.00  0.00     0.002 A 
HETATM   13  C12 UNK     1      33.496  -6.646  34.628  1.00  0.00     0.024 A 
HETATM   14  C9  UNK     1      32.217  -6.141  34.865  1.00  0.00     0.041 A 
HETATM   15 Cl1  UNK     1      31.330  -5.479  33.541  1.00  0.00    -0.084 Cl
ENDBRANCH   3   9
BRANCH   7  16
HETATM   16  N1  UNK     1      29.763  -3.589  39.614  1.00  0.00    -0.379 N 
HETATM   17  H8  UNK     1      30.505  -3.539  40.300  1.00  0.00     0.158 HD
HETATM   18  H9  UNK     1      29.013  -2.910  39.625  1.00  0.00     0.158 HD
ENDBRANCH   7  16
BRANCH   4  19
HETATM   19  C6  UNK     1      29.014  -7.777  35.911  1.00  0.00     0.192 C 
HETATM   20  O2  UNK     1      27.899  -7.725  35.381  1.00  0.00    -0.287 OA
BRANCH  19  21
HETATM   21  C11 UNK     1      29.984  -8.841  35.608  1.00  0.00     0.015 A 
HETATM   22  C18 UNK     1      30.555  -9.560  36.647  1.00  0.00     0.015 A 
HETATM   23  C23 UNK     1      31.473 -10.569  36.360  1.00  0.00     0.001 A 
HETATM   24  C25 UNK     1      31.810 -10.848  35.035  1.00  0.00     0.000 A 
HETATM   25  C24 UNK     1      31.229 -10.118  33.999  1.00  0.00     0.001 A 
HETATM   26  C19 UNK     1      30.311  -9.108  34.287  1.00  0.00     0.015 A 
ENDBRANCH  19  21
ENDBRANCH   4  19
BRANCH   6  27
HETATM   27  C8  UNK     1      27.910  -7.759  38.667  1.00  0.00    -0.002 A 
HETATM   28  C14 UNK     1      28.439  -8.902  39.269  1.00  0.00     0.014 A 
HETATM   29  C20 UNK     1      27.585  -9.879  39.780  1.00  0.00     0.001 A 
HETATM   30  C22 UNK     1      26.203  -9.715  39.690  1.00  0.00     0.000 A 
HETATM   31  C21 UNK     1      25.674  -8.574  39.088  1.00  0.00     0.001 A 
HETATM   32  C15 UNK     1      26.528  -7.596  38.576  1.00  0.00     0.014 A 
ENDBRANCH   6  27
TORSDOF 5
ENDMDL
MODEL 4
REMARK VINA RESULT:      -7.7      2.506      4.477
REMARK  5 active torsions:
REMARK  status: ('A' for Active; 'I' for Inactive)
REMARK    1  A    between atoms: C7_12  and  N1_4 
REMARK    2  A    between atoms: C1_6  and  C3_8 
REMARK    3  A    between atoms: C2_7  and  C6_11 
REMARK    4  A    between atoms: C5_10  and  C8_13 
REMARK    5  A    between atoms: C11_16  and  C6_11 
ROOT
HETATM    1  O1  UNK     1      30.389 -10.219  35.551  1.00  0.00    -0.292 OA
HETATM    2  N2  UNK     1      33.258  -8.651  32.012  1.00  0.00    -0.191 NA
HETATM    3  C1  UNK     1      30.414  -7.799  34.004  1.00  0.00     0.108 C 
HETATM    4  C2  UNK     1      29.553  -7.999  35.233  1.00  0.00     0.041 C 
HETATM    5  C4  UNK     1      31.409  -8.937  33.807  1.00  0.00     0.086 C 
HETATM    6  C5  UNK     1      29.568  -9.160  35.911  1.00  0.00     0.099 C 
HETATM    7  C7  UNK     1      31.353 -10.062  34.556  1.00  0.00     0.159 C 
HETATM    8  C16 UNK     1      32.430  -8.779  32.816  1.00  0.00     0.100 C 
ENDROOT
BRANCH   3   9
HETATM    9  C3  UNK     1      29.571  -7.572  32.751  1.00  0.00    -0.022 A 
HETATM   10  C10 UNK     1      28.787  -8.625  32.289  1.00  0.00     0.010 A 
HETATM   11  C13 UNK     1      28.004  -8.455  31.147  1.00  0.00     0.001 A 
HETATM   12  C17 UNK     1      28.007  -7.234  30.475  1.00  0.00     0.002 A 
HETATM   13  C12 UNK     1      28.794  -6.182  30.942  1.00  0.00     0.024 A 
HETATM   14  C9  UNK     1      29.578  -6.352  32.084  1.00  0.00     0.041 A 
HETATM   15 Cl1  UNK     1      30.539  -5.027  32.632  1.00  0.00    -0.084 Cl
ENDBRANCH   3   9
BRANCH   7  16
HETATM   16  N1  UNK     1      32.196 -11.132  34.434  1.00  0.00    -0.379 N 
HETATM   17  H8  UNK     1      32.283 -11.814  35.177  1.00  0.00     0.158 HD
HETATM   18  H9  UNK     1      32.738 -11.232  33.586  1.00  0.00     0.158 HD
ENDBRANCH   7  16
BRANCH   4  19
HETATM   19  C6  UNK     1      28.733  -6.856  35.672  1.00  0.00     0.192 C 
HETATM   20  O2  UNK     1      27.677  -6.647  35.065  1.00  0.00    -0.287 OA
BRANCH  19  21
HETATM   21  C11 UNK     1      29.191  -6.000  36.778  1.00  0.00     0.015 A 
HETATM   22  C18 UNK     1      30.356  -5.264  36.632  1.00  0.00     0.015 A 
HETATM   23  C23 UNK     1      30.790  -4.452  37.679  1.00  0.00     0.001 A 
HETATM   24  C25 UNK     1      30.052  -4.386  38.861  1.00  0.00     0.000 A 
HETATM   25  C24 UNK     1      28.881  -5.132  38.995  1.00  0.00     0.001 A 
HETATM   26  C19 UNK     1      28.448  -5.945  37.947  1.00  0.00     0.015 A 
ENDBRANCH  19  21
ENDBRANCH   4  19
BRANCH   6  27
HETATM   27  C8  UNK     1      28.748  -9.465  37.090  1.00  0.00    -0.002 A 
HETATM   28  C14 UNK     1      27.389  -9.750  36.943  1.00  0.00     0.014 A 
HETATM   29  C20 UNK     1      26.613 -10.040  38.064  1.00  0.00     0.001 A 
HETATM   30  C22 UNK     1      27.193 -10.045  39.333  1.00  0.00     0.000 A 
HETATM   31  C21 UNK     1      28.549  -9.760  39.481  1.00  0.00     0.001 A 
HETATM   32  C15 UNK     1      29.327  -9.469  38.359  1.00  0.00     0.014 A 
ENDBRANCH   6  27
TORSDOF 5
ENDMDL
MODEL 5
REMARK VINA RESULT:      -7.6      2.263      5.456
REMARK  5 active torsions:
REMARK  status: ('A' for Active; 'I' for Inactive)
REMARK    1  A    between atoms: C7_12  and  N1_4 
REMARK    2  A    between atoms: C1_6  and  C3_8 
REMARK    3  A    between atoms: C2_7  and  C6_11 
REMARK    4  A    between atoms: C5_10  and  C8_13 
REMARK    5  A    between atoms: C11_16  and  C6_11 
ROOT
HETATM    1  O1  UNK     1      30.348  -5.753  34.069  1.00  0.00    -0.292 OA
HETATM    2  N2  UNK     1      32.565  -5.892  38.344  1.00  0.00    -0.191 NA
HETATM    3  C1  UNK     1      30.274  -7.643  36.230  1.00  0.00     0.108 C 
HETATM    4  C2  UNK     1      29.667  -7.904  34.868  1.00  0.00     0.041 C 
HETATM    5  C4  UNK     1      31.102  -6.363  36.256  1.00  0.00     0.086 C 
HETATM    6  C5  UNK     1      29.715  -6.975  33.896  1.00  0.00     0.099 C 
HETATM    7  C7  UNK     1      31.099  -5.499  35.216  1.00  0.00     0.159 C 
HETATM    8  C16 UNK     1      31.910  -6.103  37.409  1.00  0.00     0.100 C 
ENDROOT
BRANCH   3   9
HETATM    9  C3  UNK     1      29.218  -7.647  37.332  1.00  0.00    -0.022 A 
HETATM   10  C10 UNK     1      28.249  -6.647  37.315  1.00  0.00     0.010 A 
HETATM   11  C13 UNK     1      27.268  -6.618  38.306  1.00  0.00     0.001 A 
HETATM   12  C17 UNK     1      27.258  -7.587  39.307  1.00  0.00     0.002 A 
HETATM   13  C12 UNK     1      28.231  -8.587  39.320  1.00  0.00     0.024 A 
HETATM   14  C9  UNK     1      29.213  -8.616  38.330  1.00  0.00     0.041 A 
HETATM   15 Cl1  UNK     1      30.401  -9.868  38.378  1.00  0.00    -0.084 Cl
ENDBRANCH   3   9
BRANCH   7  16
HETATM   16  N1  UNK     1      31.800  -4.325  35.165  1.00  0.00    -0.379 N 
HETATM   17  H8  UNK     1      31.323  -3.433  35.157  1.00  0.00     0.158 HD
HETATM   18  H9  UNK     1      32.811  -4.362  35.131  1.00  0.00     0.158 HD
ENDBRANCH   7  16
BRANCH   4  19
HETATM   19  C6  UNK     1      29.059  -9.228  34.645  1.00  0.00     0.192 C 
HETATM   20  O2  UNK     1      27.876  -9.372  34.969  1.00  0.00    -0.287 OA
BRANCH  19  21
HETATM   21  C11 UNK     1      29.863 -10.322  34.078  1.00  0.00     0.015 A 
HETATM   22  C18 UNK     1      30.928 -10.833  34.805  1.00  0.00     0.015 A 
HETATM   23  C23 UNK     1      31.688 -11.871  34.268  1.00  0.00     0.001 A 
HETATM   24  C25 UNK     1      31.374 -12.388  33.011  1.00  0.00     0.000 A 
HETATM   25  C24 UNK     1      30.300 -11.865  32.291  1.00  0.00     0.001 A 
HETATM   26  C19 UNK     1      29.540 -10.826  32.827  1.00  0.00     0.015 A 
ENDBRANCH  19  21
ENDBRANCH   4  19
BRANCH   6  27
HETATM   27  C8  UNK     1      29.129  -7.117  32.558  1.00  0.00    -0.002 A 
HETATM   28  C14 UNK     1      29.916  -7.554  31.491  1.00  0.00     0.014 A 
HETATM   29  C20 UNK     1      29.357  -7.689  30.221  1.00  0.00     0.001 A 
HETATM   30  C22 UNK     1      28.011  -7.387  30.015  1.00  0.00     0.000 A 
HETATM   31  C21 UNK     1      27.223  -6.950  31.080  1.00  0.00     0.001 A 
HETATM   32  C15 UNK     1      27.783  -6.815  32.351  1.00  0.00     0.014 A 
ENDBRANCH   6  27
TORSDOF 5
ENDMDL
MODEL 6
REMARK VINA RESULT:      -7.6      2.751      5.818
REMARK  5 active torsions:
REMARK  status: ('A' for Active; 'I' for Inactive)
REMARK    1  A    between atoms: C7_12  and  N1_4 
REMARK    2  A    between atoms: C1_6  and  C3_8 
REMARK    3  A    between atoms: C2_7  and  C6_11 
REMARK    4  A    between atoms: C5_10  and  C8_13 
REMARK    5  A    between atoms: C11_16  and  C6_11 
ROOT
HETATM    1  O1  UNK     1      28.013  -9.325  34.649  1.00  0.00    -0.292 OA
HETATM    2  N2  UNK     1      27.335  -7.588  39.091  1.00  0.00    -0.191 NA
HETATM    3  C1  UNK     1      29.106  -7.056  36.031  1.00  0.00     0.108 C 
HETATM    4  C2  UNK     1      29.283  -7.299  34.547  1.00  0.00     0.041 C 
HETATM    5  C4  UNK     1      28.115  -8.031  36.659  1.00  0.00     0.086 C 
HETATM    6  C5  UNK     1      28.764  -8.389  33.953  1.00  0.00     0.099 C 
HETATM    7  C7  UNK     1      27.634  -9.090  35.970  1.00  0.00     0.159 C 
HETATM    8  C16 UNK     1      27.684  -7.786  38.002  1.00  0.00     0.100 C 
ENDROOT
BRANCH   3   9
HETATM    9  C3  UNK     1      30.441  -7.063  36.771  1.00  0.00    -0.022 A 
HETATM   10  C10 UNK     1      31.209  -8.224  36.727  1.00  0.00     0.010 A 
HETATM   11  C13 UNK     1      32.435  -8.267  37.391  1.00  0.00     0.001 A 
HETATM   12  C17 UNK     1      32.887  -7.152  38.094  1.00  0.00     0.002 A 
HETATM   13  C12 UNK     1      32.114  -5.992  38.136  1.00  0.00     0.024 A 
HETATM   14  C9  UNK     1      30.888  -5.948  37.472  1.00  0.00     0.041 A 
HETATM   15 Cl1  UNK     1      29.958  -4.496  37.545  1.00  0.00    -0.084 Cl
ENDBRANCH   3   9
BRANCH   7  16
HETATM   16  N1  UNK     1      26.756 -10.017  36.462  1.00  0.00    -0.379 N 
HETATM   17  H8  UNK     1      26.749 -10.966  36.111  1.00  0.00     0.158 HD
HETATM   18  H9  UNK     1      26.107  -9.738  37.187  1.00  0.00     0.158 HD
ENDBRANCH   7  16
BRANCH   4  19
HETATM   19  C6  UNK     1      30.013  -6.274  33.781  1.00  0.00     0.192 C 
HETATM   20  O2  UNK     1      29.352  -5.543  33.035  1.00  0.00    -0.287 OA
BRANCH  19  21
HETATM   21  C11 UNK     1      31.476  -6.165  33.900  1.00  0.00     0.015 A 
HETATM   22  C18 UNK     1      32.033  -5.010  34.425  1.00  0.00     0.015 A 
HETATM   23  C23 UNK     1      33.419  -4.907  34.539  1.00  0.00     0.001 A 
HETATM   24  C25 UNK     1      34.232  -5.963  34.126  1.00  0.00     0.000 A 
HETATM   25  C24 UNK     1      33.659  -7.120  33.599  1.00  0.00     0.001 A 
HETATM   26  C19 UNK     1      32.272  -7.222  33.485  1.00  0.00     0.015 A 
ENDBRANCH  19  21
ENDBRANCH   4  19
BRANCH   6  27
HETATM   27  C8  UNK     1      28.909  -8.731  32.534  1.00  0.00    -0.002 A 
HETATM   28  C14 UNK     1      29.985  -9.512  32.108  1.00  0.00     0.014 A 
HETATM   29  C20 UNK     1      30.120  -9.838  30.759  1.00  0.00     0.001 A 
HETATM   30  C22 UNK     1      29.180  -9.383  29.834  1.00  0.00     0.000 A 
HETATM   31  C21 UNK     1      28.105  -8.602  30.257  1.00  0.00     0.001 A 
HETATM   32  C15 UNK     1      27.970  -8.276  31.607  1.00  0.00     0.014 A 
ENDBRANCH   6  27
TORSDOF 5
ENDMDL
MODEL 7
REMARK VINA RESULT:      -7.4      2.376      3.583
REMARK  5 active torsions:
REMARK  status: ('A' for Active; 'I' for Inactive)
REMARK    1  A    between atoms: C7_12  and  N1_4 
REMARK    2  A    between atoms: C1_6  and  C3_8 
REMARK    3  A    between atoms: C2_7  and  C6_11 
REMARK    4  A    between atoms: C5_10  and  C8_13 
REMARK    5  A    between atoms: C11_16  and  C6_11 
ROOT
HETATM    1  O1  UNK     1      31.964  -8.207  36.992  1.00  0.00    -0.292 OA
HETATM    2  N2  UNK     1      35.016  -8.736  33.302  1.00  0.00    -0.191 NA
HETATM    3  C1  UNK     1      31.610  -9.158  34.305  1.00  0.00     0.108 C 
HETATM    4  C2  UNK     1      30.463  -8.859  35.246  1.00  0.00     0.041 C 
HETATM    5  C4  UNK     1      32.952  -8.702  34.869  1.00  0.00     0.086 C 
HETATM    6  C5  UNK     1      30.686  -8.431  36.502  1.00  0.00     0.099 C 
HETATM    7  C7  UNK     1      33.070  -8.269  36.145  1.00  0.00     0.159 C 
HETATM    8  C16 UNK     1      34.092  -8.721  34.004  1.00  0.00     0.100 C 
ENDROOT
BRANCH   3   9
HETATM    9  C3  UNK     1      31.646 -10.630  33.903  1.00  0.00    -0.022 A 
HETATM   10  C10 UNK     1      31.670 -11.586  34.915  1.00  0.00     0.010 A 
HETATM   11  C13 UNK     1      31.702 -12.941  34.587  1.00  0.00     0.001 A 
HETATM   12  C17 UNK     1      31.710 -13.334  33.249  1.00  0.00     0.002 A 
HETATM   13  C12 UNK     1      31.686 -12.373  32.239  1.00  0.00     0.024 A 
HETATM   14  C9  UNK     1      31.654 -11.017  32.567  1.00  0.00     0.041 A 
HETATM   15 Cl1  UNK     1      31.626  -9.857  31.290  1.00  0.00    -0.084 Cl
ENDBRANCH   3   9
BRANCH   7  16
HETATM   16  N1  UNK     1      34.235  -7.856  36.732  1.00  0.00    -0.379 N 
HETATM   17  H8  UNK     1      35.125  -7.983  36.268  1.00  0.00     0.158 HD
HETATM   18  H9  UNK     1      34.194  -7.422  37.645  1.00  0.00     0.158 HD
ENDBRANCH   7  16
BRANCH   4  19
HETATM   19  C6  UNK     1      29.098  -9.018  34.714  1.00  0.00     0.192 C 
HETATM   20  O2  UNK     1      28.413  -9.939  35.173  1.00  0.00    -0.287 OA
BRANCH  19  21
HETATM   21  C11 UNK     1      28.607  -8.117  33.659  1.00  0.00     0.015 A 
HETATM   22  C18 UNK     1      28.278  -6.809  33.979  1.00  0.00     0.015 A 
HETATM   23  C23 UNK     1      27.814  -5.955  32.979  1.00  0.00     0.001 A 
HETATM   24  C25 UNK     1      27.684  -6.420  31.671  1.00  0.00     0.000 A 
HETATM   25  C24 UNK     1      28.018  -7.738  31.362  1.00  0.00     0.001 A 
HETATM   26  C19 UNK     1      28.481  -8.593  32.363  1.00  0.00     0.015 A 
ENDBRANCH  19  21
ENDBRANCH   4  19
BRANCH   6  27
HETATM   27  C8  UNK     1      29.647  -8.148  37.498  1.00  0.00    -0.002 A 
HETATM   28  C14 UNK     1      29.152  -6.851  37.645  1.00  0.00     0.014 A 
HETATM   29  C20 UNK     1      28.164  -6.584  38.592  1.00  0.00     0.001 A 
HETATM   30  C22 UNK     1      27.670  -7.612  39.394  1.00  0.00     0.000 A 
HETATM   31  C21 UNK     1      28.164  -8.908  39.249  1.00  0.00     0.001 A 
HETATM   32  C15 UNK     1      29.153  -9.176  38.302  1.00  0.00     0.014 A 
ENDBRANCH   6  27
TORSDOF 5
ENDMDL
MODEL 8
REMARK VINA RESULT:      -7.4      3.045      5.358
REMARK  5 active torsions:
REMARK  status: ('A' for Active; 'I' for Inactive)
REMARK    1  A    between atoms: C7_12  and  N1_4 
REMARK    2  A    between atoms: C1_6  and  C3_8 
REMARK    3  A    between atoms: C2_7  and  C6_11 
REMARK    4  A    between atoms: C5_10  and  C8_13 
REMARK    5  A    between atoms: C11_16  and  C6_11 
ROOT
HETATM    1  O1  UNK     1      31.994  -9.518  33.415  1.00  0.00    -0.292 OA
HETATM    2  N2  UNK     1      32.445  -8.043  28.850  1.00  0.00    -0.191 NA
HETATM    3  C1  UNK     1      30.878  -7.296  31.976  1.00  0.00     0.108 C 
HETATM    4  C2  UNK     1      30.785  -7.453  33.478  1.00  0.00     0.041 C 
HETATM    5  C4  UNK     1      31.803  -8.332  31.345  1.00  0.00     0.086 C 
HETATM    6  C5  UNK     1      31.311  -8.524  34.100  1.00  0.00     0.099 C 
HETATM    7  C7  UNK     1      32.298  -9.366  32.062  1.00  0.00     0.159 C 
HETATM    8  C16 UNK     1      32.158  -8.172  29.967  1.00  0.00     0.100 C 
ENDROOT
BRANCH   3   9
HETATM    9  C3  UNK     1      29.501  -7.303  31.318  1.00  0.00    -0.022 A 
HETATM   10  C10 UNK     1      28.788  -8.499  31.303  1.00  0.00     0.010 A 
HETATM   11  C13 UNK     1      27.526  -8.545  30.711  1.00  0.00     0.001 A 
HETATM   12  C17 UNK     1      26.982  -7.396  30.137  1.00  0.00     0.002 A 
HETATM   13  C12 UNK     1      27.701  -6.200  30.155  1.00  0.00     0.024 A 
HETATM   14  C9  UNK     1      28.964  -6.155  30.747  1.00  0.00     0.041 A 
HETATM   15 Cl1  UNK     1      29.823  -4.658  30.749  1.00  0.00    -0.084 Cl
ENDBRANCH   3   9
BRANCH   7  16
HETATM   16  N1  UNK     1      33.120 -10.343  31.571  1.00  0.00    -0.379 N 
HETATM   17  H8  UNK     1      34.113 -10.334  31.763  1.00  0.00     0.158 HD
HETATM   18  H9  UNK     1      32.717 -11.080  31.006  1.00  0.00     0.158 HD
ENDBRANCH   7  16
BRANCH   4  19
HETATM   19  C6  UNK     1      30.130  -6.367  34.229  1.00  0.00     0.192 C 
HETATM   20  O2  UNK     1      28.909  -6.239  34.095  1.00  0.00    -0.287 OA
BRANCH  19  21
HETATM   21  C11 UNK     1      30.930  -5.469  35.077  1.00  0.00     0.015 A 
HETATM   22  C18 UNK     1      32.072  -4.879  34.558  1.00  0.00     0.015 A 
HETATM   23  C23 UNK     1      32.829  -4.027  35.362  1.00  0.00     0.001 A 
HETATM   24  C25 UNK     1      32.434  -3.776  36.676  1.00  0.00     0.000 A 
HETATM   25  C24 UNK     1      31.283  -4.376  37.186  1.00  0.00     0.001 A 
HETATM   26  C19 UNK     1      30.527  -5.229  36.382  1.00  0.00     0.015 A 
ENDBRANCH  19  21
ENDBRANCH   4  19
BRANCH   6  27
HETATM   27  C8  UNK     1      31.244  -8.785  35.543  1.00  0.00    -0.002 A 
HETATM   28  C14 UNK     1      30.105  -9.373  36.096  1.00  0.00     0.014 A 
HETATM   29  C20 UNK     1      30.044  -9.622  37.466  1.00  0.00     0.001 A 
HETATM   30  C22 UNK     1      31.120  -9.282  38.286  1.00  0.00     0.000 A 
HETATM   31  C21 UNK     1      32.258  -8.694  37.735  1.00  0.00     0.001 A 
HETATM   32  C15 UNK     1      32.320  -8.445  36.363  1.00  0.00     0.014 A 
ENDBRANCH   6  27
TORSDOF 5
ENDMDL
MODEL 9
REMARK VINA RESULT:      -7.4      2.421      3.763
REMARK  5 active torsions:
REMARK  status: ('A' for Active; 'I' for Inactive)
REMARK    1  A    between atoms: C7_12  and  N1_4 
REMARK    2  A    between atoms: C1_6  and  C3_8 
REMARK    3  A    between atoms: C2_7  and  C6_11 
REMARK    4  A    between atoms: C5_10  and  C8_13 
REMARK    5  A    between atoms: C11_16  and  C6_11 
ROOT
HETATM    1  O1  UNK     1      32.897  -6.956  36.703  1.00  0.00    -0.292 OA
HETATM    2  N2  UNK     1      35.585  -8.793  33.152  1.00  0.00    -0.191 NA
HETATM    3  C1  UNK     1      32.220  -8.200  34.205  1.00  0.00     0.108 C 
HETATM    4  C2  UNK     1      31.217  -7.484  35.083  1.00  0.00     0.041 C 
HETATM    5  C4  UNK     1      33.653  -8.005  34.690  1.00  0.00     0.086 C 
HETATM    6  C5  UNK     1      31.585  -6.932  36.253  1.00  0.00     0.099 C 
HETATM    7  C7  UNK     1      33.922  -7.419  35.878  1.00  0.00     0.159 C 
HETATM    8  C16 UNK     1      34.720  -8.440  33.840  1.00  0.00     0.100 C 
ENDROOT
BRANCH   3   9
HETATM    9  C3  UNK     1      31.881  -9.680  34.046  1.00  0.00    -0.022 A 
HETATM   10  C10 UNK     1      31.911 -10.485  35.182  1.00  0.00     0.010 A 
HETATM   11  C13 UNK     1      31.607 -11.841  35.077  1.00  0.00     0.001 A 
HETATM   12  C17 UNK     1      31.274 -12.388  33.838  1.00  0.00     0.002 A 
HETATM   13  C12 UNK     1      31.246 -11.577  32.703  1.00  0.00     0.024 A 
HETATM   14  C9  UNK     1      31.550 -10.220  32.808  1.00  0.00     0.041 A 
HETATM   15 Cl1  UNK     1      31.505  -9.248  31.382  1.00  0.00    -0.084 Cl
ENDBRANCH   3   9
BRANCH   7  16
HETATM   16  N1  UNK     1      35.174  -7.219  36.393  1.00  0.00    -0.379 N 
HETATM   17  H8  UNK     1      35.327  -7.186  37.392  1.00  0.00     0.158 HD
HETATM   18  H9  UNK     1      35.950  -7.102  35.754  1.00  0.00     0.158 HD
ENDBRANCH   7  16
BRANCH   4  19
HETATM   19  C6  UNK     1      29.835  -7.384  34.582  1.00  0.00     0.192 C 
HETATM   20  O2  UNK     1      28.942  -7.889  35.271  1.00  0.00    -0.287 OA
BRANCH  19  21
HETATM   21  C11 UNK     1      29.562  -6.724  33.295  1.00  0.00     0.015 A 
HETATM   22  C18 UNK     1      28.644  -7.287  32.422  1.00  0.00     0.015 A 
HETATM   23  C23 UNK     1      28.385  -6.660  31.203  1.00  0.00     0.001 A 
HETATM   24  C25 UNK     1      29.047  -5.478  30.873  1.00  0.00     0.000 A 
HETATM   25  C24 UNK     1      29.967  -4.922  31.760  1.00  0.00     0.001 A 
HETATM   26  C19 UNK     1      30.227  -5.549  32.979  1.00  0.00     0.015 A 
ENDBRANCH  19  21
ENDBRANCH   4  19
BRANCH   6  27
HETATM   27  C8  UNK     1      30.686  -6.249  37.190  1.00  0.00    -0.002 A 
HETATM   28  C14 UNK     1      29.980  -6.983  38.145  1.00  0.00     0.014 A 
HETATM   29  C20 UNK     1      29.126  -6.332  39.035  1.00  0.00     0.001 A 
HETATM   30  C22 UNK     1      28.977  -4.946  38.971  1.00  0.00     0.000 A 
HETATM   31  C21 UNK     1      29.681  -4.212  38.017  1.00  0.00     0.001 A 
HETATM   32  C15 UNK     1      30.535  -4.863  37.126  1.00  0.00     0.014 A 
ENDBRANCH   6  27
TORSDOF 5
ENDMDL
MODEL 10
REMARK VINA RESULT:      -7.4      3.690      5.242
REMARK  5 active torsions:
REMARK  status: ('A' for Active; 'I' for Inactive)
REMARK    1  A    between atoms: C7_12  and  N1_4 
REMARK    2  A    between atoms: C1_6  and  C3_8 
REMARK    3  A    between atoms: C2_7  and  C6_11 
REMARK    4  A    between atoms: C5_10  and  C8_13 
REMARK    5  A    between atoms: C11_16  and  C6_11 
ROOT
HETATM    1  O1  UNK     1      31.485 -11.125  34.011  1.00  0.00    -0.292 OA
HETATM    2  N2  UNK     1      34.845 -11.270  30.560  1.00  0.00    -0.191 NA
HETATM    3  C1  UNK     1      32.081  -9.376  31.811  1.00  0.00     0.108 C 
HETATM    4  C2  UNK     1      31.113  -9.027  32.921  1.00  0.00     0.041 C 
HETATM    5  C4  UNK     1      32.853 -10.660  32.103  1.00  0.00     0.086 C 
HETATM    6  C5  UNK     1      30.858  -9.891  33.920  1.00  0.00     0.099 C 
HETATM    7  C7  UNK     1      32.530 -11.455  33.148  1.00  0.00     0.159 C 
HETATM    8  C16 UNK     1      33.953 -10.996  31.251  1.00  0.00     0.100 C 
ENDROOT
BRANCH   3   9
HETATM    9  C3  UNK     1      31.389  -9.439  30.452  1.00  0.00    -0.022 A 
HETATM   10  C10 UNK     1      30.490 -10.477  30.222  1.00  0.00     0.010 A 
HETATM   11  C13 UNK     1      29.838 -10.567  28.993  1.00  0.00     0.001 A 
HETATM   12  C17 UNK     1      30.085  -9.620  28.000  1.00  0.00     0.002 A 
HETATM   13  C12 UNK     1      30.987  -8.582  28.236  1.00  0.00     0.024 A 
HETATM   14  C9  UNK     1      31.640  -8.492  29.466  1.00  0.00     0.041 A 
HETATM   15 Cl1  UNK     1      32.749  -7.194  29.721  1.00  0.00    -0.084 Cl
ENDBRANCH   3   9
BRANCH   7  16
HETATM   16  N1  UNK     1      33.160 -12.626  33.471  1.00  0.00    -0.379 N 
HETATM   17  H8  UNK     1      33.540 -12.774  34.396  1.00  0.00     0.158 HD
HETATM   18  H9  UNK     1      33.243 -13.346  32.764  1.00  0.00     0.158 HD
ENDBRANCH   7  16
BRANCH   4  19
HETATM   19  C6  UNK     1      30.497  -7.689  32.879  1.00  0.00     0.192 C 
HETATM   20  O2  UNK     1      30.918  -6.844  33.677  1.00  0.00    -0.287 OA
BRANCH  19  21
HETATM   21  C11 UNK     1      29.408  -7.407  31.930  1.00  0.00     0.015 A 
HETATM   22  C18 UNK     1      28.378  -8.323  31.783  1.00  0.00     0.015 A 
HETATM   23  C23 UNK     1      27.345  -8.054  30.885  1.00  0.00     0.001 A 
HETATM   24  C25 UNK     1      27.356  -6.873  30.144  1.00  0.00     0.000 A 
HETATM   25  C24 UNK     1      28.398  -5.960  30.301  1.00  0.00     0.001 A 
HETATM   26  C19 UNK     1      29.431  -6.229  31.199  1.00  0.00     0.015 A 
ENDBRANCH  19  21
ENDBRANCH   4  19
BRANCH   6  27
HETATM   27  C8  UNK     1      29.914  -9.661  35.019  1.00  0.00    -0.002 A 
HETATM   28  C14 UNK     1      30.381  -9.246  36.268  1.00  0.00     0.014 A 
HETATM   29  C20 UNK     1      29.482  -9.027  37.312  1.00  0.00     0.001 A 
HETATM   30  C22 UNK     1      28.116  -9.224  37.109  1.00  0.00     0.000 A 
HETATM   31  C21 UNK     1      27.648  -9.639  35.862  1.00  0.00     0.001 A 
HETATM   32  C15 UNK     1      28.548  -9.858  34.818  1.00  0.00     0.014 A 
ENDBRANCH   6  27
TORSDOF 5
ENDMDL
