MODEL 1
REMARK VINA RESULT:      -7.2      0.000      0.000
REMARK  1 active torsions:
REMARK  status: ('A' for Active; 'I' for Inactive)
REMARK    1  A    between atoms: C5_8  and  N1_3 
ROOT
HETATM    1  O1  UNK     1      19.496   2.887  20.034  1.00  0.00    -0.273 OA
HETATM    2  O2  UNK     1      19.614   2.377  22.254  1.00  0.00    -0.257 OA
HETATM    3  C1  UNK     1      19.361   1.107  18.390  1.00  0.00     0.000 A 
HETATM    4  C2  UNK     1      19.409   2.462  18.695  1.00  0.00     0.089 A 
HETATM    5  C3  UNK     1      19.403   0.145  19.477  1.00  0.00     0.049 A 
HETATM    6  C4  UNK     1      19.274   0.720  17.051  1.00  0.00     0.014 A 
HETATM    7  C5  UNK     1      19.485   0.535  20.757  1.00  0.00     0.103 A 
HETATM    8  C6  UNK     1      19.372   3.440  17.704  1.00  0.00     0.038 A 
HETATM    9  C7  UNK     1      19.236   1.689  16.043  1.00  0.00     0.001 A 
HETATM   10  C8  UNK     1      19.538   1.984  21.093  1.00  0.00     0.314 A 
HETATM   11  C9  UNK     1      19.286   3.046  16.370  1.00  0.00     0.003 A 
ENDROOT
BRANCH   7  12
HETATM   12  N1  UNK     1      19.528  -0.325  21.817  1.00  0.00    -0.394 N 
HETATM   13  H6  UNK     1      20.157  -0.147  22.589  1.00  0.00     0.156 HD
HETATM   14  H7  UNK     1      18.931  -1.142  21.829  1.00  0.00     0.156 HD
ENDBRANCH   7  12
TORSDOF 1
ENDMDL
MODEL 2
REMARK VINA RESULT:      -6.6     11.111     12.461
REMARK  1 active torsions:
REMARK  status: ('A' for Active; 'I' for Inactive)
REMARK    1  A    between atoms: C5_8  and  N1_3 
ROOT
HETATM    1  O1  UNK     1      18.810   0.506  32.638  1.00  0.00    -0.273 OA
HETATM    2  O2  UNK     1      17.832   2.178  33.842  1.00  0.00    -0.257 OA
HETATM    3  C1  UNK     1      19.332   0.851  30.294  1.00  0.00     0.000 A 
HETATM    4  C2  UNK     1      19.331   0.035  31.418  1.00  0.00     0.089 A 
HETATM    5  C3  UNK     1      18.788   2.193  30.403  1.00  0.00     0.049 A 
HETATM    6  C4  UNK     1      19.858   0.353  29.099  1.00  0.00     0.014 A 
HETATM    7  C5  UNK     1      18.288   2.656  31.559  1.00  0.00     0.103 A 
HETATM    8  C6  UNK     1      19.838  -1.262  31.385  1.00  0.00     0.038 A 
HETATM    9  C7  UNK     1      20.371  -0.947  29.049  1.00  0.00     0.001 A 
HETATM   10  C8  UNK     1      18.282   1.788  32.768  1.00  0.00     0.314 A 
HETATM   11  C9  UNK     1      20.361  -1.752  30.191  1.00  0.00     0.003 A 
ENDROOT
BRANCH   7  12
HETATM   12  N1  UNK     1      17.764   3.906  31.719  1.00  0.00    -0.394 N 
HETATM   13  H6  UNK     1      17.304   4.156  32.585  1.00  0.00     0.156 HD
HETATM   14  H7  UNK     1      17.834   4.583  30.969  1.00  0.00     0.156 HD
ENDBRANCH   7  12
TORSDOF 1
ENDMDL
MODEL 3
REMARK VINA RESULT:      -6.5     10.401     11.846
REMARK  1 active torsions:
REMARK  status: ('A' for Active; 'I' for Inactive)
REMARK    1  A    between atoms: C5_8  and  N1_3 
ROOT
HETATM    1  O1  UNK     1      18.716   0.969  31.600  1.00  0.00    -0.273 OA
HETATM    2  O2  UNK     1      17.638   2.950  31.263  1.00  0.00    -0.257 OA
HETATM    3  C1  UNK     1      19.643  -0.240  29.712  1.00  0.00     0.000 A 
HETATM    4  C2  UNK     1      19.410  -0.139  31.078  1.00  0.00     0.089 A 
HETATM    5  C3  UNK     1      19.158   0.815  28.840  1.00  0.00     0.049 A 
HETATM    6  C4  UNK     1      20.336  -1.352  29.227  1.00  0.00     0.014 A 
HETATM    7  C5  UNK     1      18.496   1.877  29.324  1.00  0.00     0.103 A 
HETATM    8  C6  UNK     1      19.847  -1.113  31.972  1.00  0.00     0.038 A 
HETATM    9  C7  UNK     1      20.781  -2.339  30.111  1.00  0.00     0.001 A 
HETATM   10  C8  UNK     1      18.241   1.993  30.786  1.00  0.00     0.314 A 
HETATM   11  C9  UNK     1      20.536  -2.219  31.481  1.00  0.00     0.003 A 
ENDROOT
BRANCH   7  12
HETATM   12  N1  UNK     1      18.018   2.896  28.551  1.00  0.00    -0.394 N 
HETATM   13  H6  UNK     1      18.277   3.853  28.758  1.00  0.00     0.156 HD
HETATM   14  H7  UNK     1      17.403   2.694  27.773  1.00  0.00     0.156 HD
ENDBRANCH   7  12
TORSDOF 1
ENDMDL
MODEL 4
REMARK VINA RESULT:      -6.4     10.318     11.527
REMARK  1 active torsions:
REMARK  status: ('A' for Active; 'I' for Inactive)
REMARK    1  A    between atoms: C5_8  and  N1_3 
ROOT
HETATM    1  O1  UNK     1      20.019  -0.110  31.746  1.00  0.00    -0.273 OA
HETATM    2  O2  UNK     1      21.114  -1.997  32.411  1.00  0.00    -0.257 OA
HETATM    3  C1  UNK     1      19.284   0.113  29.444  1.00  0.00     0.000 A 
HETATM    4  C2  UNK     1      19.384   0.629  30.730  1.00  0.00     0.089 A 
HETATM    5  C3  UNK     1      19.845  -1.198  29.172  1.00  0.00     0.049 A 
HETATM    6  C4  UNK     1      18.647   0.873  28.460  1.00  0.00     0.014 A 
HETATM    7  C5  UNK     1      20.452  -1.915  30.130  1.00  0.00     0.103 A 
HETATM    8  C6  UNK     1      18.869   1.880  31.063  1.00  0.00     0.038 A 
HETATM    9  C7  UNK     1      18.124   2.130  28.777  1.00  0.00     0.001 A 
HETATM   10  C8  UNK     1      20.565  -1.369  31.510  1.00  0.00     0.314 A 
HETATM   11  C9  UNK     1      18.235   2.632  30.076  1.00  0.00     0.003 A 
ENDROOT
BRANCH   7  12
HETATM   12  N1  UNK     1      20.997  -3.151  29.930  1.00  0.00    -0.394 N 
HETATM   13  H6  UNK     1      21.994  -3.248  29.789  1.00  0.00     0.156 HD
HETATM   14  H7  UNK     1      20.402  -3.970  29.922  1.00  0.00     0.156 HD
ENDBRANCH   7  12
TORSDOF 1
ENDMDL
MODEL 5
REMARK VINA RESULT:      -6.3     10.384     11.624
REMARK  1 active torsions:
REMARK  status: ('A' for Active; 'I' for Inactive)
REMARK    1  A    between atoms: C5_8  and  N1_3 
ROOT
HETATM    1  O1  UNK     1      19.168   1.336  28.748  1.00  0.00    -0.273 OA
HETATM    2  O2  UNK     1      18.236   3.417  28.712  1.00  0.00    -0.257 OA
HETATM    3  C1  UNK     1      19.453   0.174  30.858  1.00  0.00     0.000 A 
HETATM    4  C2  UNK     1      19.593   0.210  29.476  1.00  0.00     0.089 A 
HETATM    5  C3  UNK     1      18.862   1.318  31.530  1.00  0.00     0.049 A 
HETATM    6  C4  UNK     1      19.884  -0.960  31.551  1.00  0.00     0.014 A 
HETATM    7  C5  UNK     1      18.452   2.398  30.849  1.00  0.00     0.103 A 
HETATM    8  C6  UNK     1      20.150  -0.852  28.767  1.00  0.00     0.038 A 
HETATM    9  C7  UNK     1      20.445  -2.034  30.854  1.00  0.00     0.001 A 
HETATM   10  C8  UNK     1      18.599   2.445  29.368  1.00  0.00     0.314 A 
HETATM   11  C9  UNK     1      20.578  -1.979  29.464  1.00  0.00     0.003 A 
ENDROOT
BRANCH   7  12
HETATM   12  N1  UNK     1      17.891   3.500  31.428  1.00  0.00    -0.394 N 
HETATM   13  H6  UNK     1      17.238   4.070  30.906  1.00  0.00     0.156 HD
HETATM   14  H7  UNK     1      18.131   3.747  32.380  1.00  0.00     0.156 HD
ENDBRANCH   7  12
TORSDOF 1
ENDMDL
MODEL 6
REMARK VINA RESULT:      -6.3     11.276     13.023
REMARK  1 active torsions:
REMARK  status: ('A' for Active; 'I' for Inactive)
REMARK    1  A    between atoms: C5_8  and  N1_3 
ROOT
HETATM    1  O1  UNK     1      18.655   0.957  32.032  1.00  0.00    -0.273 OA
HETATM    2  O2  UNK     1      17.638   1.349  34.035  1.00  0.00    -0.257 OA
HETATM    3  C1  UNK     1      19.647  -1.211  31.583  1.00  0.00     0.000 A 
HETATM    4  C2  UNK     1      19.350   0.083  31.175  1.00  0.00     0.089 A 
HETATM    5  C3  UNK     1      19.228  -1.640  32.905  1.00  0.00     0.049 A 
HETATM    6  C4  UNK     1      20.338  -2.053  30.707  1.00  0.00     0.014 A 
HETATM    7  C5  UNK     1      18.564  -0.819  33.732  1.00  0.00     0.103 A 
HETATM    8  C6  UNK     1      19.722   0.562  29.920  1.00  0.00     0.038 A 
HETATM    9  C7  UNK     1      20.718  -1.588  29.445  1.00  0.00     0.001 A 
HETATM   10  C8  UNK     1      18.243   0.570  33.304  1.00  0.00     0.314 A 
HETATM   11  C9  UNK     1      20.410  -0.283  29.053  1.00  0.00     0.003 A 
ENDROOT
BRANCH   7  12
HETATM   12  N1  UNK     1      18.147  -1.169  34.985  1.00  0.00    -0.394 N 
HETATM   13  H6  UNK     1      17.160  -1.160  35.211  1.00  0.00     0.156 HD
HETATM   14  H7  UNK     1      18.825  -1.437  35.687  1.00  0.00     0.156 HD
ENDBRANCH   7  12
TORSDOF 1
ENDMDL
MODEL 7
REMARK VINA RESULT:      -6.2     12.870     14.617
REMARK  1 active torsions:
REMARK  status: ('A' for Active; 'I' for Inactive)
REMARK    1  A    between atoms: C5_8  and  N1_3 
ROOT
HETATM    1  O1  UNK     1      16.885   6.695  31.857  1.00  0.00    -0.273 OA
HETATM    2  O2  UNK     1      15.142   7.228  33.227  1.00  0.00    -0.257 OA
HETATM    3  C1  UNK     1      19.127   6.518  32.767  1.00  0.00     0.000 A 
HETATM    4  C2  UNK     1      18.260   6.448  31.684  1.00  0.00     0.089 A 
HETATM    5  C3  UNK     1      18.588   6.850  34.073  1.00  0.00     0.049 A 
HETATM    6  C4  UNK     1      20.486   6.265  32.560  1.00  0.00     0.014 A 
HETATM    7  C5  UNK     1      17.281   7.087  34.254  1.00  0.00     0.103 A 
HETATM    8  C6  UNK     1      18.707   6.135  30.402  1.00  0.00     0.038 A 
HETATM    9  C7  UNK     1      20.952   5.950  31.280  1.00  0.00     0.001 A 
HETATM   10  C8  UNK     1      16.344   7.016  33.099  1.00  0.00     0.314 A 
HETATM   11  C9  UNK     1      20.063   5.884  30.204  1.00  0.00     0.003 A 
ENDROOT
BRANCH   7  12
HETATM   12  N1  UNK     1      16.720   7.404  35.458  1.00  0.00    -0.394 N 
HETATM   13  H6  UNK     1      17.286   7.820  36.187  1.00  0.00     0.156 HD
HETATM   14  H7  UNK     1      15.738   7.221  35.622  1.00  0.00     0.156 HD
ENDBRANCH   7  12
TORSDOF 1
ENDMDL
MODEL 8
REMARK VINA RESULT:      -6.2     13.291     14.867
REMARK  1 active torsions:
REMARK  status: ('A' for Active; 'I' for Inactive)
REMARK    1  A    between atoms: C5_8  and  N1_3 
ROOT
HETATM    1  O1  UNK     1      11.173   6.282   9.516  1.00  0.00    -0.273 OA
HETATM    2  O2  UNK     1      13.292   5.941  10.288  1.00  0.00    -0.257 OA
HETATM    3  C1  UNK     1      10.732   6.229   7.131  1.00  0.00     0.000 A 
HETATM    4  C2  UNK     1      10.279   6.384   8.435  1.00  0.00     0.089 A 
HETATM    5  C3  UNK     1      12.142   5.961   6.909  1.00  0.00     0.049 A 
HETATM    6  C4  UNK     1       9.817   6.335   6.080  1.00  0.00     0.014 A 
HETATM    7  C5  UNK     1      13.007   5.860   7.929  1.00  0.00     0.103 A 
HETATM    8  C6  UNK     1       8.940   6.643   8.721  1.00  0.00     0.038 A 
HETATM    9  C7  UNK     1       8.470   6.595   6.351  1.00  0.00     0.001 A 
HETATM   10  C8  UNK     1      12.529   6.026   9.330  1.00  0.00     0.314 A 
HETATM   11  C9  UNK     1       8.033   6.748   7.669  1.00  0.00     0.003 A 
ENDROOT
BRANCH   7  12
HETATM   12  N1  UNK     1      14.341   5.610   7.779  1.00  0.00    -0.394 N 
HETATM   13  H6  UNK     1      14.804   4.946   8.388  1.00  0.00     0.156 HD
HETATM   14  H7  UNK     1      14.867   6.090   7.060  1.00  0.00     0.156 HD
ENDBRANCH   7  12
TORSDOF 1
ENDMDL
MODEL 9
REMARK VINA RESULT:      -6.1     18.355     20.397
REMARK  1 active torsions:
REMARK  status: ('A' for Active; 'I' for Inactive)
REMARK    1  A    between atoms: C5_8  and  N1_3 
ROOT
HETATM    1  O1  UNK     1      20.624  -7.532  35.556  1.00  0.00    -0.273 OA
HETATM    2  O2  UNK     1      20.271  -5.378  34.896  1.00  0.00    -0.257 OA
HETATM    3  C1  UNK     1      19.271  -8.491  37.327  1.00  0.00     0.000 A 
HETATM    4  C2  UNK     1      20.289  -8.615  36.389  1.00  0.00     0.089 A 
HETATM    5  C3  UNK     1      18.565  -7.227  37.428  1.00  0.00     0.049 A 
HETATM    6  C4  UNK     1      18.964  -9.587  38.138  1.00  0.00     0.014 A 
HETATM    7  C5  UNK     1      18.872  -6.186  36.640  1.00  0.00     0.103 A 
HETATM    8  C6  UNK     1      21.008  -9.799  36.238  1.00  0.00     0.038 A 
HETATM    9  C7  UNK     1      19.676 -10.782  37.999  1.00  0.00     0.001 A 
HETATM   10  C8  UNK     1      19.962  -6.310  35.633  1.00  0.00     0.314 A 
HETATM   11  C9  UNK     1      20.696 -10.887  37.050  1.00  0.00     0.003 A 
ENDROOT
BRANCH   7  12
HETATM   12  N1  UNK     1      18.242  -4.975  36.692  1.00  0.00    -0.394 N 
HETATM   13  H6  UNK     1      17.340  -4.855  36.251  1.00  0.00     0.156 HD
HETATM   14  H7  UNK     1      18.680  -4.199  37.172  1.00  0.00     0.156 HD
ENDBRANCH   7  12
TORSDOF 1
ENDMDL
MODEL 10
REMARK VINA RESULT:      -6.1      2.554      4.216
REMARK  1 active torsions:
REMARK  status: ('A' for Active; 'I' for Inactive)
REMARK    1  A    between atoms: C5_8  and  N1_3 
ROOT
HETATM    1  O1  UNK     1      19.346   2.678  17.690  1.00  0.00    -0.273 OA
HETATM    2  O2  UNK     1      19.301   2.769  15.412  1.00  0.00    -0.257 OA
HETATM    3  C1  UNK     1      19.286   0.530  18.816  1.00  0.00     0.000 A 
HETATM    4  C2  UNK     1      19.341   1.917  18.874  1.00  0.00     0.089 A 
HETATM    5  C3  UNK     1      19.234  -0.113  17.515  1.00  0.00     0.049 A 
HETATM    6  C4  UNK     1      19.285  -0.195  20.010  1.00  0.00     0.014 A 
HETATM    7  C5  UNK     1      19.238   0.599  16.379  1.00  0.00     0.103 A 
HETATM    8  C6  UNK     1      19.394   2.601  20.086  1.00  0.00     0.038 A 
HETATM    9  C7  UNK     1      19.337   0.476  21.236  1.00  0.00     0.001 A 
HETATM   10  C8  UNK     1      19.296   2.085  16.431  1.00  0.00     0.314 A 
HETATM   11  C9  UNK     1      19.392   1.871  21.273  1.00  0.00     0.003 A 
ENDROOT
BRANCH   7  12
HETATM   12  N1  UNK     1      19.190   0.047  15.131  1.00  0.00    -0.394 N 
HETATM   13  H6  UNK     1      18.436   0.287  14.499  1.00  0.00     0.156 HD
HETATM   14  H7  UNK     1      19.908  -0.603  14.838  1.00  0.00     0.156 HD
ENDBRANCH   7  12
TORSDOF 1
ENDMDL
