MODEL 1
REMARK VINA RESULT:      -8.2      0.000      0.000
REMARK  2 active torsions:
REMARK  status: ('A' for Active; 'I' for Inactive)
REMARK    1  A    between atoms: C14_19  and  O4_4 
REMARK       I    between atoms: C6_11  and  N1_5 
REMARK    2  A    between atoms: C6_11  and  C7_12 
ROOT
HETATM    1  O2  UNK     1      11.723   6.738   6.480  1.00  0.00    -0.274 OA
HETATM    2  O3  UNK     1      13.998   6.937   6.424  1.00  0.00    -0.259 OA
HETATM    3  C7  UNK     1      13.058   6.054   8.411  1.00  0.00     0.108 A 
HETATM    4  C8  UNK     1      11.956   5.696   9.080  1.00  0.00     0.037 A 
HETATM    5  C9  UNK     1      10.645   5.847   8.468  1.00  0.00     0.002 A 
HETATM    6  C10 UNK     1      12.991   6.608   7.040  1.00  0.00     0.304 A 
HETATM    7  C11 UNK     1      10.559   6.364   7.180  1.00  0.00     0.089 A 
HETATM    8  C12 UNK     1       9.468   5.489   9.130  1.00  0.00     0.051 A 
HETATM    9  C13 UNK     1       9.335   6.533   6.537  1.00  0.00     0.041 A 
HETATM   10  C14 UNK     1       8.232   5.652   8.498  1.00  0.00     0.069 A 
HETATM   11  C15 UNK     1       8.165   6.173   7.204  1.00  0.00     0.039 A 
ENDROOT
BRANCH   3  12
HETATM   12  C6  UNK     1      14.341   5.863   9.117  1.00  0.00     0.259 C 
HETATM   13  O1  UNK     1      14.840   4.737   9.095  1.00  0.00    -0.267 OA
HETATM   14  N1  UNK     1      14.896   6.964   9.764  1.00  0.00    -0.348 N 
HETATM   15  C4  UNK     1      16.166   6.803  10.479  1.00  0.00     0.126 C 
HETATM   16  C5  UNK     1      14.308   8.309   9.851  1.00  0.00     0.126 C 
HETATM   17  C2  UNK     1      17.191   7.841  10.033  1.00  0.00     0.020 C 
HETATM   18  C1  UNK     1      16.631   9.254  10.165  1.00  0.00     0.003 C 
HETATM   19  C3  UNK     1      15.308   9.380   9.416  1.00  0.00     0.020 C 
ENDBRANCH   3  12
BRANCH  10  20
HETATM   20  O4  UNK     1       7.087   5.302   9.147  1.00  0.00    -0.356 OA
HETATM   21  C16 UNK     1       7.078   4.041   9.812  1.00  0.00     0.210 C 
ENDBRANCH  10  20
TORSDOF 2
ENDMDL
MODEL 2
REMARK VINA RESULT:      -8.2     24.267     26.655
REMARK  2 active torsions:
REMARK  status: ('A' for Active; 'I' for Inactive)
REMARK    1  A    between atoms: C14_19  and  O4_4 
REMARK       I    between atoms: C6_11  and  N1_5 
REMARK    2  A    between atoms: C6_11  and  C7_12 
ROOT
HETATM    1  O2  UNK     1      20.524  -2.626  31.924  1.00  0.00    -0.274 OA
HETATM    2  O3  UNK     1      20.629  -3.473  34.044  1.00  0.00    -0.259 OA
HETATM    3  C7  UNK     1      19.568  -1.371  33.792  1.00  0.00     0.108 A 
HETATM    4  C8  UNK     1      19.185  -0.386  32.970  1.00  0.00     0.037 A 
HETATM    5  C9  UNK     1      19.461  -0.474  31.544  1.00  0.00     0.002 A 
HETATM    6  C10 UNK     1      20.276  -2.571  33.293  1.00  0.00     0.304 A 
HETATM    7  C11 UNK     1      20.125  -1.593  31.054  1.00  0.00     0.089 A 
HETATM    8  C12 UNK     1      19.082   0.530  30.650  1.00  0.00     0.051 A 
HETATM    9  C13 UNK     1      20.418  -1.738  29.700  1.00  0.00     0.041 A 
HETATM   10  C14 UNK     1      19.370   0.399  29.288  1.00  0.00     0.069 A 
HETATM   11  C15 UNK     1      20.036  -0.733  28.814  1.00  0.00     0.039 A 
ENDROOT
BRANCH   3  12
HETATM   12  C6  UNK     1      19.243  -1.190  35.222  1.00  0.00     0.259 C 
HETATM   13  O1  UNK     1      20.174  -1.235  36.026  1.00  0.00    -0.267 OA
HETATM   14  N1  UNK     1      17.909  -0.986  35.563  1.00  0.00    -0.348 N 
HETATM   15  C4  UNK     1      17.554  -0.809  36.975  1.00  0.00     0.126 C 
HETATM   16  C5  UNK     1      16.766  -0.971  34.637  1.00  0.00     0.126 C 
HETATM   17  C2  UNK     1      16.737   0.461  37.190  1.00  0.00     0.020 C 
HETATM   18  C1  UNK     1      15.511   0.481  36.281  1.00  0.00     0.003 C 
HETATM   19  C3  UNK     1      15.917   0.286  34.824  1.00  0.00     0.020 C 
ENDBRANCH   3  12
BRANCH  10  20
HETATM   20  O4  UNK     1      18.998   1.380  28.419  1.00  0.00    -0.356 OA
HETATM   21  C16 UNK     1      17.911   2.216  28.811  1.00  0.00     0.210 C 
ENDBRANCH  10  20
TORSDOF 2
ENDMDL
MODEL 3
REMARK VINA RESULT:      -7.9     22.085     24.161
REMARK  2 active torsions:
REMARK  status: ('A' for Active; 'I' for Inactive)
REMARK    1  A    between atoms: C14_19  and  O4_4 
REMARK       I    between atoms: C6_11  and  N1_5 
REMARK    2  A    between atoms: C6_11  and  C7_12 
ROOT
HETATM    1  O2  UNK     1      18.911   1.833  28.614  1.00  0.00    -0.274 OA
HETATM    2  O3  UNK     1      18.139   3.983  28.659  1.00  0.00    -0.259 OA
HETATM    3  C7  UNK     1      18.650   2.995  30.750  1.00  0.00     0.108 A 
HETATM    4  C8  UNK     1      19.085   1.921  31.419  1.00  0.00     0.037 A 
HETATM    5  C9  UNK     1      19.465   0.714  30.700  1.00  0.00     0.002 A 
HETATM    6  C10 UNK     1      18.538   3.001  29.274  1.00  0.00     0.304 A 
HETATM    7  C11 UNK     1      19.370   0.699  29.313  1.00  0.00     0.089 A 
HETATM    8  C12 UNK     1      19.923  -0.431  31.357  1.00  0.00     0.051 A 
HETATM    9  C13 UNK     1      19.718  -0.424  28.565  1.00  0.00     0.041 A 
HETATM   10  C14 UNK     1      20.277  -1.565  30.620  1.00  0.00     0.069 A 
HETATM   11  C15 UNK     1      20.175  -1.562  29.228  1.00  0.00     0.039 A 
ENDROOT
BRANCH   3  12
HETATM   12  C6  UNK     1      18.288   4.170  31.569  1.00  0.00     0.259 C 
HETATM   13  O1  UNK     1      17.209   4.139  32.163  1.00  0.00    -0.267 OA
HETATM   14  N1  UNK     1      19.185   5.233  31.610  1.00  0.00    -0.348 N 
HETATM   15  C4  UNK     1      18.851   6.416  32.410  1.00  0.00     0.126 C 
HETATM   16  C5  UNK     1      20.459   5.326  30.880  1.00  0.00     0.126 C 
HETATM   17  C2  UNK     1      19.974   6.769  33.380  1.00  0.00     0.020 C 
HETATM   18  C1  UNK     1      21.301   6.928  32.645  1.00  0.00     0.003 C 
HETATM   19  C3  UNK     1      21.611   5.683  31.819  1.00  0.00     0.020 C 
ENDBRANCH   3  12
BRANCH  10  20
HETATM   20  O4  UNK     1      20.723  -2.679  31.264  1.00  0.00    -0.356 OA
HETATM   21  C16 UNK     1      21.043  -2.545  32.647  1.00  0.00     0.210 C 
ENDBRANCH  10  20
TORSDOF 2
ENDMDL
MODEL 4
REMARK VINA RESULT:      -7.7      2.431      7.264
REMARK  2 active torsions:
REMARK  status: ('A' for Active; 'I' for Inactive)
REMARK    1  A    between atoms: C14_19  and  O4_4 
REMARK       I    between atoms: C6_11  and  N1_5 
REMARK    2  A    between atoms: C6_11  and  C7_12 
ROOT
HETATM    1  O2  UNK     1      14.531   6.922  10.324  1.00  0.00    -0.274 OA
HETATM    2  O3  UNK     1      12.647   5.658  10.593  1.00  0.00    -0.259 OA
HETATM    3  C7  UNK     1      12.401   7.689   9.400  1.00  0.00     0.108 A 
HETATM    4  C8  UNK     1      12.978   8.796   8.916  1.00  0.00     0.037 A 
HETATM    5  C9  UNK     1      14.400   9.030   9.119  1.00  0.00     0.002 A 
HETATM    6  C10 UNK     1      13.173   6.672  10.148  1.00  0.00     0.304 A 
HETATM    7  C11 UNK     1      15.144   8.086   9.818  1.00  0.00     0.089 A 
HETATM    8  C12 UNK     1      15.043  10.171   8.634  1.00  0.00     0.051 A 
HETATM    9  C13 UNK     1      16.509   8.249  10.046  1.00  0.00     0.041 A 
HETATM   10  C14 UNK     1      16.412  10.349   8.855  1.00  0.00     0.069 A 
HETATM   11  C15 UNK     1      17.143   9.390   9.559  1.00  0.00     0.039 A 
ENDROOT
BRANCH   3  12
HETATM   12  C6  UNK     1      10.953   7.544   9.143  1.00  0.00     0.259 C 
HETATM   13  O1  UNK     1      10.182   8.182   9.860  1.00  0.00    -0.267 OA
HETATM   14  N1  UNK     1      10.559   6.693   8.113  1.00  0.00    -0.348 N 
HETATM   15  C4  UNK     1       9.129   6.524   7.839  1.00  0.00     0.126 C 
HETATM   16  C5  UNK     1      11.448   5.882   7.267  1.00  0.00     0.126 C 
HETATM   17  C2  UNK     1       8.810   6.778   6.369  1.00  0.00     0.020 C 
HETATM   18  C1  UNK     1       9.677   5.908   5.464  1.00  0.00     0.003 C 
HETATM   19  C3  UNK     1      11.155   6.105   5.783  1.00  0.00     0.020 C 
ENDBRANCH   3  12
BRANCH  10  20
HETATM   20  O4  UNK     1      17.036  11.463   8.380  1.00  0.00    -0.356 OA
HETATM   21  C16 UNK     1      18.458  11.419   8.287  1.00  0.00     0.210 C 
ENDBRANCH  10  20
TORSDOF 2
ENDMDL
MODEL 5
REMARK VINA RESULT:      -7.4      2.364      7.073
REMARK  2 active torsions:
REMARK  status: ('A' for Active; 'I' for Inactive)
REMARK    1  A    between atoms: C14_19  and  O4_4 
REMARK       I    between atoms: C6_11  and  N1_5 
REMARK    2  A    between atoms: C6_11  and  C7_12 
ROOT
HETATM    1  O2  UNK     1      14.030   7.085  10.683  1.00  0.00    -0.274 OA
HETATM    2  O3  UNK     1      12.418   5.494  10.381  1.00  0.00    -0.259 OA
HETATM    3  C7  UNK     1      12.748   7.022   8.601  1.00  0.00     0.108 A 
HETATM    4  C8  UNK     1      13.418   8.079   8.125  1.00  0.00     0.037 A 
HETATM    5  C9  UNK     1      14.455   8.710   8.926  1.00  0.00     0.002 A 
HETATM    6  C10 UNK     1      13.030   6.461   9.942  1.00  0.00     0.304 A 
HETATM    7  C11 UNK     1      14.738   8.198  10.188  1.00  0.00     0.089 A 
HETATM    8  C12 UNK     1      15.178   9.816   8.470  1.00  0.00     0.051 A 
HETATM    9  C13 UNK     1      15.719   8.756  11.004  1.00  0.00     0.041 A 
HETATM   10  C14 UNK     1      16.166  10.387   9.278  1.00  0.00     0.069 A 
HETATM   11  C15 UNK     1      16.436   9.858  10.541  1.00  0.00     0.039 A 
ENDROOT
BRANCH   3  12
HETATM   12  C6  UNK     1      11.714   6.452   7.714  1.00  0.00     0.259 C 
HETATM   13  O1  UNK     1      12.062   5.563   6.934  1.00  0.00    -0.267 OA
HETATM   14  N1  UNK     1      10.421   6.958   7.814  1.00  0.00    -0.348 N 
HETATM   15  C4  UNK     1       9.375   6.415   6.942  1.00  0.00     0.126 C 
HETATM   16  C5  UNK     1       9.979   8.047   8.699  1.00  0.00     0.126 C 
HETATM   17  C2  UNK     1       8.159   5.962   7.744  1.00  0.00     0.020 C 
HETATM   18  C1  UNK     1       7.641   7.089   8.633  1.00  0.00     0.003 C 
HETATM   19  C3  UNK     1       8.758   7.633   9.519  1.00  0.00     0.020 C 
ENDBRANCH   3  12
BRANCH  10  20
HETATM   20  O4  UNK     1      16.869  11.464   8.830  1.00  0.00    -0.356 OA
HETATM   21  C16 UNK     1      16.422  12.072   7.620  1.00  0.00     0.210 C 
ENDBRANCH  10  20
TORSDOF 2
ENDMDL
MODEL 6
REMARK VINA RESULT:      -7.3     24.200     26.286
REMARK  2 active torsions:
REMARK  status: ('A' for Active; 'I' for Inactive)
REMARK    1  A    between atoms: C14_19  and  O4_4 
REMARK       I    between atoms: C6_11  and  N1_5 
REMARK    2  A    between atoms: C6_11  and  C7_12 
ROOT
HETATM    1  O2  UNK     1      14.083   9.185  34.634  1.00  0.00    -0.274 OA
HETATM    2  O3  UNK     1      14.096   7.315  33.321  1.00  0.00    -0.259 OA
HETATM    3  C7  UNK     1      15.913   8.811  33.055  1.00  0.00     0.108 A 
HETATM    4  C8  UNK     1      16.503   9.954  33.426  1.00  0.00     0.037 A 
HETATM    5  C9  UNK     1      15.895  10.795  34.447  1.00  0.00     0.002 A 
HETATM    6  C10 UNK     1      14.639   8.361  33.659  1.00  0.00     0.304 A 
HETATM    7  C11 UNK     1      14.698  10.390  35.028  1.00  0.00     0.089 A 
HETATM    8  C12 UNK     1      16.474  11.996  34.863  1.00  0.00     0.051 A 
HETATM    9  C13 UNK     1      14.066  11.148  36.010  1.00  0.00     0.041 A 
HETATM   10  C14 UNK     1      15.851  12.768  35.848  1.00  0.00     0.069 A 
HETATM   11  C15 UNK     1      14.650  12.345  36.420  1.00  0.00     0.039 A 
ENDROOT
BRANCH   3  12
HETATM   12  C6  UNK     1      16.607   8.028  32.013  1.00  0.00     0.259 C 
HETATM   13  O1  UNK     1      16.312   8.258  30.839  1.00  0.00    -0.267 OA
HETATM   14  N1  UNK     1      17.541   7.082  32.425  1.00  0.00    -0.348 N 
HETATM   15  C4  UNK     1      18.242   6.285  31.413  1.00  0.00     0.126 C 
HETATM   16  C5  UNK     1      17.886   6.749  33.815  1.00  0.00     0.126 C 
HETATM   17  C2  UNK     1      19.754   6.356  31.596  1.00  0.00     0.020 C 
HETATM   18  C1  UNK     1      20.151   5.961  33.016  1.00  0.00     0.003 C 
HETATM   19  C3  UNK     1      19.397   6.804  34.040  1.00  0.00     0.020 C 
ENDBRANCH   3  12
BRANCH  10  20
HETATM   20  O4  UNK     1      16.418  13.939  36.251  1.00  0.00    -0.356 OA
HETATM   21  C16 UNK     1      15.545  15.049  36.445  1.00  0.00     0.210 C 
ENDBRANCH  10  20
TORSDOF 2
ENDMDL
MODEL 7
REMARK VINA RESULT:      -7.2      2.878      7.335
REMARK  2 active torsions:
REMARK  status: ('A' for Active; 'I' for Inactive)
REMARK    1  A    between atoms: C14_19  and  O4_4 
REMARK       I    between atoms: C6_11  and  N1_5 
REMARK    2  A    between atoms: C6_11  and  C7_12 
ROOT
HETATM    1  O2  UNK     1      16.884   8.704   9.810  1.00  0.00    -0.274 OA
HETATM    2  O3  UNK     1      15.944   6.868  10.794  1.00  0.00    -0.259 OA
HETATM    3  C7  UNK     1      14.471   8.338   9.662  1.00  0.00     0.108 A 
HETATM    4  C8  UNK     1      14.317   9.460   8.949  1.00  0.00     0.037 A 
HETATM    5  C9  UNK     1      15.470  10.284   8.622  1.00  0.00     0.002 A 
HETATM    6  C10 UNK     1      15.800   7.895  10.140  1.00  0.00     0.304 A 
HETATM    7  C11 UNK     1      16.729   9.886   9.060  1.00  0.00     0.089 A 
HETATM    8  C12 UNK     1      15.356  11.464   7.882  1.00  0.00     0.051 A 
HETATM    9  C13 UNK     1      17.873  10.630   8.780  1.00  0.00     0.041 A 
HETATM   10  C14 UNK     1      16.495  12.221   7.593  1.00  0.00     0.069 A 
HETATM   11  C15 UNK     1      17.751  11.805   8.041  1.00  0.00     0.039 A 
ENDROOT
BRANCH   3  12
HETATM   12  C6  UNK     1      13.240   7.570   9.943  1.00  0.00     0.259 C 
HETATM   13  O1  UNK     1      12.706   7.734  11.041  1.00  0.00    -0.267 OA
HETATM   14  N1  UNK     1      12.771   6.711   8.953  1.00  0.00    -0.348 N 
HETATM   15  C4  UNK     1      11.555   5.931   9.205  1.00  0.00     0.126 C 
HETATM   16  C5  UNK     1      13.406   6.455   7.651  1.00  0.00     0.126 C 
HETATM   17  C2  UNK     1      10.531   6.119   8.090  1.00  0.00     0.020 C 
HETATM   18  C1  UNK     1      11.144   5.806   6.728  1.00  0.00     0.003 C 
HETATM   19  C3  UNK     1      12.409   6.629   6.505  1.00  0.00     0.020 C 
ENDBRANCH   3  12
BRANCH  10  20
HETATM   20  O4  UNK     1      16.380  13.370   6.871  1.00  0.00    -0.356 OA
HETATM   21  C16 UNK     1      15.077  13.938   6.758  1.00  0.00     0.210 C 
ENDBRANCH  10  20
TORSDOF 2
ENDMDL
MODEL 8
REMARK VINA RESULT:      -7.2     23.036     24.707
REMARK  2 active torsions:
REMARK  status: ('A' for Active; 'I' for Inactive)
REMARK    1  A    between atoms: C14_19  and  O4_4 
REMARK       I    between atoms: C6_11  and  N1_5 
REMARK    2  A    between atoms: C6_11  and  C7_12 
ROOT
HETATM    1  O2  UNK     1      18.821   4.687  30.218  1.00  0.00    -0.274 OA
HETATM    2  O3  UNK     1      18.713   6.939  30.586  1.00  0.00    -0.259 OA
HETATM    3  C7  UNK     1      18.399   5.540  32.471  1.00  0.00     0.108 A 
HETATM    4  C8  UNK     1      18.333   4.295  32.959  1.00  0.00     0.037 A 
HETATM    5  C9  UNK     1      18.511   3.152  32.078  1.00  0.00     0.002 A 
HETATM    6  C10 UNK     1      18.653   5.801  31.036  1.00  0.00     0.304 A 
HETATM    7  C11 UNK     1      18.752   3.375  30.726  1.00  0.00     0.089 A 
HETATM    8  C12 UNK     1      18.449   1.836  32.543  1.00  0.00     0.051 A 
HETATM    9  C13 UNK     1      18.932   2.324  29.829  1.00  0.00     0.041 A 
HETATM   10  C14 UNK     1      18.627   0.771  31.655  1.00  0.00     0.069 A 
HETATM   11  C15 UNK     1      18.869   1.014  30.302  1.00  0.00     0.039 A 
ENDROOT
BRANCH   3  12
HETATM   12  C6  UNK     1      18.204   6.633  33.445  1.00  0.00     0.259 C 
HETATM   13  O1  UNK     1      19.140   6.891  34.204  1.00  0.00    -0.267 OA
HETATM   14  N1  UNK     1      16.979   7.294  33.443  1.00  0.00    -0.348 N 
HETATM   15  C4  UNK     1      16.755   8.379  34.403  1.00  0.00     0.126 C 
HETATM   16  C5  UNK     1      15.825   6.984  32.585  1.00  0.00     0.126 C 
HETATM   17  C2  UNK     1      16.280   9.650  33.705  1.00  0.00     0.020 C 
HETATM   18  C1  UNK     1      15.047   9.375  32.849  1.00  0.00     0.003 C 
HETATM   19  C3  UNK     1      15.315   8.236  31.870  1.00  0.00     0.020 C 
ENDBRANCH   3  12
BRANCH  10  20
HETATM   20  O4  UNK     1      18.566  -0.511  32.113  1.00  0.00    -0.356 OA
HETATM   21  C16 UNK     1      19.641  -1.378  31.758  1.00  0.00     0.210 C 
ENDBRANCH  10  20
TORSDOF 2
ENDMDL
MODEL 9
REMARK VINA RESULT:      -7.1      2.938      7.683
REMARK  2 active torsions:
REMARK  status: ('A' for Active; 'I' for Inactive)
REMARK    1  A    between atoms: C14_19  and  O4_4 
REMARK       I    between atoms: C6_11  and  N1_5 
REMARK    2  A    between atoms: C6_11  and  C7_12 
ROOT
HETATM    1  O2  UNK     1      14.499  10.035  11.228  1.00  0.00    -0.274 OA
HETATM    2  O3  UNK     1      12.840   8.474  11.407  1.00  0.00    -0.259 OA
HETATM    3  C7  UNK     1      14.773   7.835  10.195  1.00  0.00     0.108 A 
HETATM    4  C8  UNK     1      15.984   8.172   9.735  1.00  0.00     0.037 A 
HETATM    5  C9  UNK     1      16.529   9.494  10.004  1.00  0.00     0.002 A 
HETATM    6  C10 UNK     1      13.950   8.779  10.985  1.00  0.00     0.304 A 
HETATM    7  C11 UNK     1      15.772  10.396  10.746  1.00  0.00     0.089 A 
HETATM    8  C12 UNK     1      17.787   9.889   9.543  1.00  0.00     0.051 A 
HETATM    9  C13 UNK     1      16.236  11.676  11.039  1.00  0.00     0.041 A 
HETATM   10  C14 UNK     1      18.265  11.171   9.829  1.00  0.00     0.069 A 
HETATM   11  C15 UNK     1      17.492  12.063  10.575  1.00  0.00     0.039 A 
ENDROOT
BRANCH   3  12
HETATM   12  C6  UNK     1      14.308   6.472   9.869  1.00  0.00     0.259 C 
HETATM   13  O1  UNK     1      14.642   5.561  10.629  1.00  0.00    -0.267 OA
HETATM   14  N1  UNK     1      13.530   6.307   8.727  1.00  0.00    -0.348 N 
HETATM   15  C4  UNK     1      13.059   4.964   8.375  1.00  0.00     0.126 C 
HETATM   16  C5  UNK     1      13.151   7.360   7.773  1.00  0.00     0.126 C 
HETATM   17  C2  UNK     1      11.549   4.941   8.161  1.00  0.00     0.020 C 
HETATM   18  C1  UNK     1      11.128   5.987   7.133  1.00  0.00     0.003 C 
HETATM   19  C3  UNK     1      11.642   7.368   7.528  1.00  0.00     0.020 C 
ENDBRANCH   3  12
BRANCH  10  20
HETATM   20  O4  UNK     1      19.493  11.553   9.377  1.00  0.00    -0.356 OA
HETATM   21  C16 UNK     1      19.596  11.903   7.998  1.00  0.00     0.210 C 
ENDBRANCH  10  20
TORSDOF 2
ENDMDL
MODEL 10
REMARK VINA RESULT:      -7.1     24.864     26.851
REMARK  2 active torsions:
REMARK  status: ('A' for Active; 'I' for Inactive)
REMARK    1  A    between atoms: C14_19  and  O4_4 
REMARK       I    between atoms: C6_11  and  N1_5 
REMARK    2  A    between atoms: C6_11  and  C7_12 
ROOT
HETATM    1  O2  UNK     1      17.837   2.488  32.668  1.00  0.00    -0.274 OA
HETATM    2  O3  UNK     1      18.105   4.397  31.442  1.00  0.00    -0.259 OA
HETATM    3  C7  UNK     1      18.711   4.511  33.729  1.00  0.00     0.108 A 
HETATM    4  C8  UNK     1      18.815   3.882  34.906  1.00  0.00     0.037 A 
HETATM    5  C9  UNK     1      18.423   2.486  35.028  1.00  0.00     0.002 A 
HETATM    6  C10 UNK     1      18.202   3.823  32.521  1.00  0.00     0.304 A 
HETATM    7  C11 UNK     1      17.943   1.820  33.904  1.00  0.00     0.089 A 
HETATM    8  C12 UNK     1      18.512   1.790  36.236  1.00  0.00     0.051 A 
HETATM    9  C13 UNK     1      17.552   0.484  33.954  1.00  0.00     0.041 A 
HETATM   10  C14 UNK     1      18.123   0.449  36.301  1.00  0.00     0.069 A 
HETATM   11  C15 UNK     1      17.644  -0.203  35.163  1.00  0.00     0.039 A 
ENDROOT
BRANCH   3  12
HETATM   12  C6  UNK     1      19.133   5.926  33.707  1.00  0.00     0.259 C 
HETATM   13  O1  UNK     1      20.288   6.169  33.351  1.00  0.00    -0.267 OA
HETATM   14  N1  UNK     1      18.203   6.887  34.092  1.00  0.00    -0.348 N 
HETATM   15  C4  UNK     1      18.596   8.300  34.086  1.00  0.00     0.126 C 
HETATM   16  C5  UNK     1      16.834   6.632  34.565  1.00  0.00     0.126 C 
HETATM   17  C2  UNK     1      17.611   9.148  33.287  1.00  0.00     0.020 C 
HETATM   18  C1  UNK     1      16.185   8.949  33.791  1.00  0.00     0.003 C 
HETATM   19  C3  UNK     1      15.816   7.469  33.790  1.00  0.00     0.020 C 
ENDBRANCH   3  12
BRANCH  10  20
HETATM   20  O4  UNK     1      18.212  -0.226  37.481  1.00  0.00    -0.356 OA
HETATM   21  C16 UNK     1      18.229  -1.650  37.414  1.00  0.00     0.210 C 
ENDBRANCH  10  20
TORSDOF 2
ENDMDL
