MODEL 1
REMARK VINA RESULT:      -8.6      0.000      0.000
REMARK  7 active torsions:
REMARK  status: ('A' for Active; 'I' for Inactive)
REMARK    1  A    between atoms: C13_21  and  O2_3 
REMARK    2  A    between atoms: C5_13  and  O2_3 
REMARK    3  A    between atoms: C16_24  and  O3_4 
REMARK    4  A    between atoms: C18_26  and  O3_4 
REMARK    5  A    between atoms: C11_19  and  N1_8 
REMARK       I    between atoms: C9_17  and  N1_8 
REMARK    6  A    between atoms: C3_11  and  C9_17 
REMARK    7  A    between atoms: C12_20  and  C16_24 
ROOT
HETATM    1  O1  UNK     1      19.472  -1.132  34.785  1.00  0.00    -0.271 OA
HETATM    2  O4  UNK     1      20.600  -3.050  34.265  1.00  0.00    -0.259 OA
HETATM    3  C1  UNK     1      18.509  -0.870  37.002  1.00  0.00     0.002 A 
HETATM    4  C2  UNK     1      18.749  -0.372  35.724  1.00  0.00     0.123 A 
HETATM    5  C3  UNK     1      19.704  -2.904  36.453  1.00  0.00     0.108 A 
HETATM    6  C4  UNK     1      19.017  -2.188  37.350  1.00  0.00     0.037 A 
HETATM    7  C5  UNK     1      18.289   0.882  35.329  1.00  0.00     0.103 A 
HETATM    8  C6  UNK     1      17.789  -0.086  37.907  1.00  0.00     0.014 A 
HETATM    9  C7  UNK     1      17.572   1.657  36.236  1.00  0.00     0.040 A 
HETATM   10  C8  UNK     1      19.971  -2.395  35.090  1.00  0.00     0.304 A 
HETATM   11  C10 UNK     1      17.321   1.174  37.523  1.00  0.00     0.004 A 
ENDROOT
BRANCH   5  12
HETATM   12  C9  UNK     1      20.174  -4.221  36.899  1.00  0.00     0.262 C 
HETATM   13  O5  UNK     1      21.382  -4.430  37.005  1.00  0.00    -0.267 OA
HETATM   14  N1  UNK     1      19.120  -5.089  37.152  1.00  0.00    -0.316 N 
HETATM   15  H5  UNK     1      18.165  -4.776  36.999  1.00  0.00     0.169 HD
BRANCH  14  16
HETATM   16  C11 UNK     1      19.228  -6.412  37.590  1.00  0.00     0.093 A 
HETATM   17  S1  UNK     1      19.898  -6.624  39.138  1.00  0.00    -0.083 SA
HETATM   18  C15 UNK     1      19.732  -8.323  39.006  1.00  0.00     0.053 A 
HETATM   19  C14 UNK     1      19.176  -8.697  37.803  1.00  0.00     0.028 A 
HETATM   20  C12 UNK     1      18.882  -7.574  36.976  1.00  0.00     0.073 A 
BRANCH  20  21
HETATM   21  C16 UNK     1      18.298  -7.646  35.662  1.00  0.00     0.296 C 
HETATM   22  O6  UNK     1      17.209  -8.187  35.417  1.00  0.00    -0.259 OA
BRANCH  21  23
HETATM   23  O3  UNK     1      19.061  -7.057  34.677  1.00  0.00    -0.318 OA
BRANCH  23  24
HETATM   24  C18 UNK     1      20.435  -7.455  34.596  1.00  0.00     0.174 C 
HETATM   25  C19 UNK     1      20.945  -7.184  33.197  1.00  0.00     0.034 C 
ENDBRANCH  23  24
ENDBRANCH  21  23
ENDBRANCH  20  21
ENDBRANCH  14  16
ENDBRANCH   5  12
BRANCH   7  26
HETATM   26  O2  UNK     1      18.530   1.356  34.077  1.00  0.00    -0.349 OA
BRANCH  26  27
HETATM   27  C13 UNK     1      18.212   2.725  33.827  1.00  0.00     0.171 C 
HETATM   28  C17 UNK     1      18.217   2.968  32.333  1.00  0.00     0.034 C 
ENDBRANCH  26  27
ENDBRANCH   7  26
TORSDOF 7
ENDMDL
MODEL 2
REMARK VINA RESULT:      -8.5      2.325      7.939
REMARK  7 active torsions:
REMARK  status: ('A' for Active; 'I' for Inactive)
REMARK    1  A    between atoms: C13_21  and  O2_3 
REMARK    2  A    between atoms: C5_13  and  O2_3 
REMARK    3  A    between atoms: C16_24  and  O3_4 
REMARK    4  A    between atoms: C18_26  and  O3_4 
REMARK    5  A    between atoms: C11_19  and  N1_8 
REMARK       I    between atoms: C9_17  and  N1_8 
REMARK    6  A    between atoms: C3_11  and  C9_17 
REMARK    7  A    between atoms: C12_20  and  C16_24 
ROOT
HETATM    1  O1  UNK     1      20.143  -7.616  35.997  1.00  0.00    -0.271 OA
HETATM    2  O4  UNK     1      20.221  -5.739  34.696  1.00  0.00    -0.259 OA
HETATM    3  C1  UNK     1      20.020  -7.396  38.415  1.00  0.00     0.002 A 
HETATM    4  C2  UNK     1      20.073  -8.196  37.278  1.00  0.00     0.123 A 
HETATM    5  C3  UNK     1      20.105  -5.404  37.038  1.00  0.00     0.108 A 
HETATM    6  C4  UNK     1      20.039  -5.950  38.259  1.00  0.00     0.037 A 
HETATM    7  C5  UNK     1      20.058  -9.587  37.360  1.00  0.00     0.103 A 
HETATM    8  C6  UNK     1      19.950  -8.008  39.669  1.00  0.00     0.014 A 
HETATM    9  C7  UNK     1      19.989 -10.190  38.613  1.00  0.00     0.040 A 
HETATM   10  C8  UNK     1      20.161  -6.236  35.816  1.00  0.00     0.304 A 
HETATM   11  C10 UNK     1      19.936  -9.403  39.766  1.00  0.00     0.004 A 
ENDROOT
BRANCH   5  12
HETATM   12  C9  UNK     1      20.119  -3.938  36.984  1.00  0.00     0.262 C 
HETATM   13  O5  UNK     1      21.051  -3.321  37.497  1.00  0.00    -0.267 OA
HETATM   14  N1  UNK     1      19.009  -3.434  36.321  1.00  0.00    -0.316 N 
HETATM   15  H5  UNK     1      18.304  -4.074  35.964  1.00  0.00     0.169 HD
BRANCH  14  16
HETATM   16  C11 UNK     1      18.724  -2.083  36.097  1.00  0.00     0.093 A 
HETATM   17  S1  UNK     1      17.876  -1.292  37.340  1.00  0.00    -0.083 SA
HETATM   18  C15 UNK     1      17.886   0.172  36.452  1.00  0.00     0.053 A 
HETATM   19  C14 UNK     1      18.527   0.038  35.240  1.00  0.00     0.028 A 
HETATM   20  C12 UNK     1      19.016  -1.285  35.037  1.00  0.00     0.073 A 
BRANCH  20  21
HETATM   21  C16 UNK     1      19.727  -1.732  33.866  1.00  0.00     0.296 C 
HETATM   22  O6  UNK     1      20.761  -2.416  33.903  1.00  0.00    -0.259 OA
BRANCH  21  23
HETATM   23  O3  UNK     1      19.157  -1.330  32.678  1.00  0.00    -0.318 OA
BRANCH  23  24
HETATM   24  C18 UNK     1      19.851  -1.681  31.475  1.00  0.00     0.174 C 
HETATM   25  C19 UNK     1      20.436  -0.427  30.861  1.00  0.00     0.034 C 
ENDBRANCH  23  24
ENDBRANCH  21  23
ENDBRANCH  20  21
ENDBRANCH  14  16
ENDBRANCH   5  12
BRANCH   7  26
HETATM   26  O2  UNK     1      20.111 -10.358  36.240  1.00  0.00    -0.349 OA
BRANCH  26  27
HETATM   27  C13 UNK     1      21.338 -11.037  35.975  1.00  0.00     0.171 C 
HETATM   28  C17 UNK     1      22.061 -10.327  34.851  1.00  0.00     0.034 C 
ENDBRANCH  26  27
ENDBRANCH   7  26
TORSDOF 7
ENDMDL
MODEL 3
REMARK VINA RESULT:      -8.5      5.573     11.535
REMARK  7 active torsions:
REMARK  status: ('A' for Active; 'I' for Inactive)
REMARK    1  A    between atoms: C13_21  and  O2_3 
REMARK    2  A    between atoms: C5_13  and  O2_3 
REMARK    3  A    between atoms: C16_24  and  O3_4 
REMARK    4  A    between atoms: C18_26  and  O3_4 
REMARK    5  A    between atoms: C11_19  and  N1_8 
REMARK       I    between atoms: C9_17  and  N1_8 
REMARK    6  A    between atoms: C3_11  and  C9_17 
REMARK    7  A    between atoms: C12_20  and  C16_24 
ROOT
HETATM    1  O1  UNK     1      18.690   0.928  32.646  1.00  0.00    -0.271 OA
HETATM    2  O4  UNK     1      17.912   2.856  33.595  1.00  0.00    -0.259 OA
HETATM    3  C1  UNK     1      19.431   0.943  30.330  1.00  0.00     0.002 A 
HETATM    4  C2  UNK     1      19.215   0.259  31.523  1.00  0.00     0.123 A 
HETATM    5  C3  UNK     1      18.606   2.988  31.333  1.00  0.00     0.108 A 
HETATM    6  C4  UNK     1      19.104   2.359  30.262  1.00  0.00     0.037 A 
HETATM    7  C5  UNK     1      19.507  -1.097  31.653  1.00  0.00     0.103 A 
HETATM    8  C6  UNK     1      19.954   0.247  29.238  1.00  0.00     0.014 A 
HETATM    9  C7  UNK     1      20.028  -1.784  30.560  1.00  0.00     0.040 A 
HETATM   10  C8  UNK     1      18.369   2.282  32.611  1.00  0.00     0.304 A 
HETATM   11  C10 UNK     1      20.251  -1.115  29.355  1.00  0.00     0.004 A 
ENDROOT
BRANCH   5  12
HETATM   12  C9  UNK     1      18.308   4.416  31.165  1.00  0.00     0.262 C 
HETATM   13  O5  UNK     1      18.705   5.004  30.161  1.00  0.00    -0.267 OA
HETATM   14  N1  UNK     1      17.578   4.921  32.232  1.00  0.00    -0.316 N 
HETATM   15  H5  UNK     1      17.337   4.311  33.009  1.00  0.00     0.169 HD
BRANCH  14  16
HETATM   16  C11 UNK     1      17.134   6.239  32.377  1.00  0.00     0.093 A 
HETATM   17  S1  UNK     1      15.531   6.536  31.898  1.00  0.00    -0.083 SA
HETATM   18  C15 UNK     1      15.683   8.189  32.320  1.00  0.00     0.053 A 
HETATM   19  C14 UNK     1      16.935   8.485  32.812  1.00  0.00     0.028 A 
HETATM   20  C12 UNK     1      17.782   7.339  32.844  1.00  0.00     0.073 A 
BRANCH  20  21
HETATM   21  C16 UNK     1      19.146   7.334  33.306  1.00  0.00     0.296 C 
HETATM   22  O6  UNK     1      20.084   6.809  32.688  1.00  0.00    -0.259 OA
BRANCH  21  23
HETATM   23  O3  UNK     1      19.330   7.969  34.515  1.00  0.00    -0.318 OA
BRANCH  23  24
HETATM   24  C18 UNK     1      20.263   9.057  34.540  1.00  0.00     0.174 C 
HETATM   25  C19 UNK     1      19.517  10.351  34.296  1.00  0.00     0.034 C 
ENDBRANCH  23  24
ENDBRANCH  21  23
ENDBRANCH  20  21
ENDBRANCH  14  16
ENDBRANCH   5  12
BRANCH   7  26
HETATM   26  O2  UNK     1      19.291  -1.753  32.825  1.00  0.00    -0.349 OA
BRANCH  26  27
HETATM   27  C13 UNK     1      20.405  -2.426  33.408  1.00  0.00     0.171 C 
HETATM   28  C17 UNK     1      20.227  -2.464  34.911  1.00  0.00     0.034 C 
ENDBRANCH  26  27
ENDBRANCH   7  26
TORSDOF 7
ENDMDL
MODEL 4
REMARK VINA RESULT:      -8.4      1.664      2.412
REMARK  7 active torsions:
REMARK  status: ('A' for Active; 'I' for Inactive)
REMARK    1  A    between atoms: C13_21  and  O2_3 
REMARK    2  A    between atoms: C5_13  and  O2_3 
REMARK    3  A    between atoms: C16_24  and  O3_4 
REMARK    4  A    between atoms: C18_26  and  O3_4 
REMARK    5  A    between atoms: C11_19  and  N1_8 
REMARK       I    between atoms: C9_17  and  N1_8 
REMARK    6  A    between atoms: C3_11  and  C9_17 
REMARK    7  A    between atoms: C12_20  and  C16_24 
ROOT
HETATM    1  O1  UNK     1      19.532  -1.308  34.443  1.00  0.00    -0.271 OA
HETATM    2  O4  UNK     1      20.762  -3.121  33.794  1.00  0.00    -0.259 OA
HETATM    3  C1  UNK     1      18.549  -1.257  36.665  1.00  0.00     0.002 A 
HETATM    4  C2  UNK     1      18.767  -0.657  35.429  1.00  0.00     0.123 A 
HETATM    5  C3  UNK     1      19.851  -3.182  35.980  1.00  0.00     0.108 A 
HETATM    6  C4  UNK     1      19.123  -2.569  36.922  1.00  0.00     0.037 A 
HETATM    7  C5  UNK     1      18.244   0.598  35.122  1.00  0.00     0.103 A 
HETATM    8  C6  UNK     1      17.785  -0.580  37.619  1.00  0.00     0.014 A 
HETATM    9  C7  UNK     1      17.484   1.266  36.078  1.00  0.00     0.040 A 
HETATM   10  C8  UNK     1      20.096  -2.562  34.659  1.00  0.00     0.304 A 
HETATM   11  C10 UNK     1      17.254   0.679  37.324  1.00  0.00     0.004 A 
ENDROOT
BRANCH   5  12
HETATM   12  C9  UNK     1      20.388  -4.501  36.333  1.00  0.00     0.262 C 
HETATM   13  O5  UNK     1      21.287  -4.587  37.168  1.00  0.00    -0.267 OA
HETATM   14  N1  UNK     1      19.761  -5.520  35.629  1.00  0.00    -0.316 N 
HETATM   15  H5  UNK     1      19.040  -5.291  34.949  1.00  0.00     0.169 HD
BRANCH  14  16
HETATM   16  C11 UNK     1      20.038  -6.887  35.734  1.00  0.00     0.093 A 
HETATM   17  S1  UNK     1      20.925  -7.561  34.451  1.00  0.00    -0.083 SA
HETATM   18  C15 UNK     1      20.883  -9.102  35.196  1.00  0.00     0.053 A 
HETATM   19  C14 UNK     1      20.205  -9.079  36.395  1.00  0.00     0.028 A 
HETATM   20  C12 UNK     1      19.712  -7.779  36.706  1.00  0.00     0.073 A 
BRANCH  20  21
HETATM   21  C16 UNK     1      18.963  -7.441  37.889  1.00  0.00     0.296 C 
HETATM   22  O6  UNK     1      17.872  -6.850  37.873  1.00  0.00    -0.259 OA
BRANCH  21  23
HETATM   23  O3  UNK     1      19.567  -7.832  39.064  1.00  0.00    -0.318 OA
BRANCH  23  24
HETATM   24  C18 UNK     1      20.810  -7.200  39.396  1.00  0.00     0.174 C 
HETATM   25  C19 UNK     1      21.818  -8.264  39.771  1.00  0.00     0.034 C 
ENDBRANCH  23  24
ENDBRANCH  21  23
ENDBRANCH  20  21
ENDBRANCH  14  16
ENDBRANCH   5  12
BRANCH   7  26
HETATM   26  O2  UNK     1      18.465   1.173  33.909  1.00  0.00    -0.349 OA
BRANCH  26  27
HETATM   27  C13 UNK     1      18.211   2.573  33.798  1.00  0.00     0.171 C 
HETATM   28  C17 UNK     1      18.150   2.949  32.333  1.00  0.00     0.034 C 
ENDBRANCH  26  27
ENDBRANCH   7  26
TORSDOF 7
ENDMDL
MODEL 5
REMARK VINA RESULT:      -8.3      3.435      6.022
REMARK  7 active torsions:
REMARK  status: ('A' for Active; 'I' for Inactive)
REMARK    1  A    between atoms: C13_21  and  O2_3 
REMARK    2  A    between atoms: C5_13  and  O2_3 
REMARK    3  A    between atoms: C16_24  and  O3_4 
REMARK    4  A    between atoms: C18_26  and  O3_4 
REMARK    5  A    between atoms: C11_19  and  N1_8 
REMARK       I    between atoms: C9_17  and  N1_8 
REMARK    6  A    between atoms: C3_11  and  C9_17 
REMARK    7  A    between atoms: C12_20  and  C16_24 
ROOT
HETATM    1  O1  UNK     1      18.232   3.892  34.598  1.00  0.00    -0.271 OA
HETATM    2  O4  UNK     1      18.017   2.240  36.162  1.00  0.00    -0.259 OA
HETATM    3  C1  UNK     1      18.432   3.302  32.248  1.00  0.00     0.002 A 
HETATM    4  C2  UNK     1      18.375   4.268  33.248  1.00  0.00     0.123 A 
HETATM    5  C3  UNK     1      18.206   1.548  33.904  1.00  0.00     0.108 A 
HETATM    6  C4  UNK     1      18.343   1.899  32.619  1.00  0.00     0.037 A 
HETATM    7  C5  UNK     1      18.455   5.628  32.958  1.00  0.00     0.103 A 
HETATM    8  C6  UNK     1      18.573   3.713  30.920  1.00  0.00     0.014 A 
HETATM    9  C7  UNK     1      18.596   6.030  31.632  1.00  0.00     0.040 A 
HETATM   10  C8  UNK     1      18.142   2.558  34.983  1.00  0.00     0.304 A 
HETATM   11  C10 UNK     1      18.656   5.075  30.615  1.00  0.00     0.004 A 
ENDROOT
BRANCH   5  12
HETATM   12  C9  UNK     1      18.125   0.109  34.177  1.00  0.00     0.262 C 
HETATM   13  O5  UNK     1      17.155  -0.532  33.774  1.00  0.00    -0.267 OA
HETATM   14  N1  UNK     1      19.223  -0.344  34.895  1.00  0.00    -0.316 N 
HETATM   15  H5  UNK     1      19.944   0.315  35.179  1.00  0.00     0.169 HD
BRANCH  14  16
HETATM   16  C11 UNK     1      19.450  -1.660  35.313  1.00  0.00     0.093 A 
HETATM   17  S1  UNK     1      18.915  -2.038  36.881  1.00  0.00    -0.083 SA
HETATM   18  C15 UNK     1      19.476  -3.647  36.713  1.00  0.00     0.053 A 
HETATM   19  C14 UNK     1      20.054  -3.868  35.481  1.00  0.00     0.028 A 
HETATM   20  C12 UNK     1      20.036  -2.700  34.665  1.00  0.00     0.073 A 
BRANCH  20  21
HETATM   21  C16 UNK     1      20.567  -2.619  33.328  1.00  0.00     0.296 C 
HETATM   22  O6  UNK     1      21.325  -3.466  32.833  1.00  0.00    -0.259 OA
BRANCH  21  23
HETATM   23  O3  UNK     1      20.159  -1.503  32.630  1.00  0.00    -0.318 OA
BRANCH  23  24
HETATM   24  C18 UNK     1      20.083  -1.623  31.205  1.00  0.00     0.174 C 
HETATM   25  C19 UNK     1      20.615  -0.353  30.576  1.00  0.00     0.034 C 
ENDBRANCH  23  24
ENDBRANCH  21  23
ENDBRANCH  20  21
ENDBRANCH  14  16
ENDBRANCH   5  12
BRANCH   7  26
HETATM   26  O2  UNK     1      18.398   6.562  33.946  1.00  0.00    -0.349 OA
BRANCH  26  27
HETATM   27  C13 UNK     1      18.586   7.924  33.564  1.00  0.00     0.171 C 
HETATM   28  C17 UNK     1      19.748   8.499  34.346  1.00  0.00     0.034 C 
ENDBRANCH  26  27
ENDBRANCH   7  26
TORSDOF 7
ENDMDL
MODEL 6
REMARK VINA RESULT:      -8.0      5.791      8.757
REMARK  7 active torsions:
REMARK  status: ('A' for Active; 'I' for Inactive)
REMARK    1  A    between atoms: C13_21  and  O2_3 
REMARK    2  A    between atoms: C5_13  and  O2_3 
REMARK    3  A    between atoms: C16_24  and  O3_4 
REMARK    4  A    between atoms: C18_26  and  O3_4 
REMARK    5  A    between atoms: C11_19  and  N1_8 
REMARK       I    between atoms: C9_17  and  N1_8 
REMARK    6  A    between atoms: C3_11  and  C9_17 
REMARK    7  A    between atoms: C12_20  and  C16_24 
ROOT
HETATM    1  O1  UNK     1      25.856  -5.714  38.724  1.00  0.00    -0.271 OA
HETATM    2  O4  UNK     1      23.602  -5.379  38.903  1.00  0.00    -0.259 OA
HETATM    3  C1  UNK     1      26.742  -7.976  38.794  1.00  0.00     0.002 A 
HETATM    4  C2  UNK     1      26.946  -6.604  38.685  1.00  0.00     0.123 A 
HETATM    5  C3  UNK     1      24.353  -7.624  38.986  1.00  0.00     0.108 A 
HETATM    6  C4  UNK     1      25.385  -8.476  38.950  1.00  0.00     0.037 A 
HETATM    7  C5  UNK     1      28.220  -6.062  38.534  1.00  0.00     0.103 A 
HETATM    8  C6  UNK     1      27.849  -8.828  38.749  1.00  0.00     0.014 A 
HETATM    9  C7  UNK     1      29.318  -6.918  38.491  1.00  0.00     0.040 A 
HETATM   10  C8  UNK     1      24.546  -6.162  38.871  1.00  0.00     0.304 A 
HETATM   11  C10 UNK     1      29.133  -8.298  38.599  1.00  0.00     0.004 A 
ENDROOT
BRANCH   5  12
HETATM   12  C9  UNK     1      23.023  -8.225  39.146  1.00  0.00     0.262 C 
HETATM   13  O5  UNK     1      22.618  -8.510  40.272  1.00  0.00    -0.267 OA
HETATM   14  N1  UNK     1      22.381  -8.391  37.927  1.00  0.00    -0.316 N 
HETATM   15  H5  UNK     1      22.855  -8.122  37.068  1.00  0.00     0.169 HD
BRANCH  14  16
HETATM   16  C11 UNK     1      21.105  -8.932  37.734  1.00  0.00     0.093 A 
HETATM   17  S1  UNK     1      21.061 -10.553  37.226  1.00  0.00    -0.083 SA
HETATM   18  C15 UNK     1      19.349 -10.526  37.201  1.00  0.00     0.053 A 
HETATM   19  C14 UNK     1      18.845  -9.300  37.575  1.00  0.00     0.028 A 
HETATM   20  C12 UNK     1      19.878  -8.369  37.886  1.00  0.00     0.073 A 
BRANCH  20  21
HETATM   21  C16 UNK     1      19.664  -7.008  38.306  1.00  0.00     0.296 C 
HETATM   22  O6  UNK     1      19.931  -6.584  39.440  1.00  0.00    -0.259 OA
BRANCH  21  23
HETATM   23  O3  UNK     1      19.126  -6.199  37.329  1.00  0.00    -0.318 OA
BRANCH  23  24
HETATM   24  C18 UNK     1      20.032  -5.672  36.352  1.00  0.00     0.174 C 
HETATM   25  C19 UNK     1      19.815  -6.393  35.040  1.00  0.00     0.034 C 
ENDBRANCH  23  24
ENDBRANCH  21  23
ENDBRANCH  20  21
ENDBRANCH  14  16
ENDBRANCH   5  12
BRANCH   7  26
HETATM   26  O2  UNK     1      28.406  -4.719  38.429  1.00  0.00    -0.349 OA
BRANCH  26  27
HETATM   27  C13 UNK     1      29.664  -4.200  38.857  1.00  0.00     0.171 C 
HETATM   28  C17 UNK     1      30.426  -3.694  37.651  1.00  0.00     0.034 C 
ENDBRANCH  26  27
ENDBRANCH   7  26
TORSDOF 7
ENDMDL
MODEL 7
REMARK VINA RESULT:      -7.9      6.221      9.134
REMARK  7 active torsions:
REMARK  status: ('A' for Active; 'I' for Inactive)
REMARK    1  A    between atoms: C13_21  and  O2_3 
REMARK    2  A    between atoms: C5_13  and  O2_3 
REMARK    3  A    between atoms: C16_24  and  O3_4 
REMARK    4  A    between atoms: C18_26  and  O3_4 
REMARK    5  A    between atoms: C11_19  and  N1_8 
REMARK       I    between atoms: C9_17  and  N1_8 
REMARK    6  A    between atoms: C3_11  and  C9_17 
REMARK    7  A    between atoms: C12_20  and  C16_24 
ROOT
HETATM    1  O1  UNK     1      26.342  -5.986  38.672  1.00  0.00    -0.271 OA
HETATM    2  O4  UNK     1      24.192  -5.240  38.878  1.00  0.00    -0.259 OA
HETATM    3  C1  UNK     1      26.794  -8.374  38.720  1.00  0.00     0.002 A 
HETATM    4  C2  UNK     1      27.248  -7.063  38.616  1.00  0.00     0.123 A 
HETATM    5  C3  UNK     1      24.514  -7.586  38.940  1.00  0.00     0.108 A 
HETATM    6  C4  UNK     1      25.369  -8.614  38.889  1.00  0.00     0.037 A 
HETATM    7  C5  UNK     1      28.599  -6.766  38.453  1.00  0.00     0.103 A 
HETATM    8  C6  UNK     1      27.722  -9.416  38.658  1.00  0.00     0.014 A 
HETATM    9  C7  UNK     1      29.519  -7.810  38.393  1.00  0.00     0.040 A 
HETATM   10  C8  UNK     1      24.974  -6.184  38.831  1.00  0.00     0.304 A 
HETATM   11  C10 UNK     1      29.082  -9.133  38.496  1.00  0.00     0.004 A 
ENDROOT
BRANCH   5  12
HETATM   12  C9  UNK     1      23.097  -7.930  39.113  1.00  0.00     0.262 C 
HETATM   13  O5  UNK     1      22.720  -8.438  40.167  1.00  0.00    -0.267 OA
HETATM   14  N1  UNK     1      22.347  -7.611  37.989  1.00  0.00    -0.316 N 
HETATM   15  H5  UNK     1      22.807  -7.209  37.176  1.00  0.00     0.169 HD
BRANCH  14  16
HETATM   16  C11 UNK     1      20.972  -7.810  37.832  1.00  0.00     0.093 A 
HETATM   17  S1  UNK     1      19.995  -6.443  38.083  1.00  0.00    -0.083 SA
HETATM   18  C15 UNK     1      18.585  -7.356  37.752  1.00  0.00     0.053 A 
HETATM   19  C14 UNK     1      18.876  -8.670  37.459  1.00  0.00     0.028 A 
HETATM   20  C12 UNK     1      20.276  -8.932  37.507  1.00  0.00     0.073 A 
BRANCH  20  21
HETATM   21  C16 UNK     1      20.886 -10.210  37.249  1.00  0.00     0.296 C 
HETATM   22  O6  UNK     1      20.373 -11.297  37.556  1.00  0.00    -0.259 OA
BRANCH  21  23
HETATM   23  O3  UNK     1      22.112 -10.130  36.624  1.00  0.00    -0.318 OA
BRANCH  23  24
HETATM   24  C18 UNK     1      22.364 -11.065  35.568  1.00  0.00     0.174 C 
HETATM   25  C19 UNK     1      23.706 -11.724  35.803  1.00  0.00     0.034 C 
ENDBRANCH  23  24
ENDBRANCH  21  23
ENDBRANCH  20  21
ENDBRANCH  14  16
ENDBRANCH   5  12
BRANCH   7  26
HETATM   26  O2  UNK     1      29.029  -5.480  38.353  1.00  0.00    -0.349 OA
BRANCH  26  27
HETATM   27  C13 UNK     1      30.440  -5.268  38.296  1.00  0.00     0.171 C 
HETATM   28  C17 UNK     1      30.720  -4.027  37.476  1.00  0.00     0.034 C 
ENDBRANCH  26  27
ENDBRANCH   7  26
TORSDOF 7
ENDMDL
MODEL 8
REMARK VINA RESULT:      -7.9      4.855      7.642
REMARK  7 active torsions:
REMARK  status: ('A' for Active; 'I' for Inactive)
REMARK    1  A    between atoms: C13_21  and  O2_3 
REMARK    2  A    between atoms: C5_13  and  O2_3 
REMARK    3  A    between atoms: C16_24  and  O3_4 
REMARK    4  A    between atoms: C18_26  and  O3_4 
REMARK    5  A    between atoms: C11_19  and  N1_8 
REMARK       I    between atoms: C9_17  and  N1_8 
REMARK    6  A    between atoms: C3_11  and  C9_17 
REMARK    7  A    between atoms: C12_20  and  C16_24 
ROOT
HETATM    1  O1  UNK     1      17.737   3.850  33.263  1.00  0.00    -0.271 OA
HETATM    2  O4  UNK     1      17.739   1.571  33.426  1.00  0.00    -0.259 OA
HETATM    3  C1  UNK     1      18.492   4.907  31.208  1.00  0.00     0.002 A 
HETATM    4  C2  UNK     1      17.994   5.007  32.503  1.00  0.00     0.123 A 
HETATM    5  C3  UNK     1      18.497   2.490  31.379  1.00  0.00     0.108 A 
HETATM    6  C4  UNK     1      18.744   3.586  30.652  1.00  0.00     0.037 A 
HETATM    7  C5  UNK     1      17.731   6.242  33.094  1.00  0.00     0.103 A 
HETATM    8  C6  UNK     1      18.733   6.078  30.485  1.00  0.00     0.014 A 
HETATM    9  C7  UNK     1      17.975   7.404  32.367  1.00  0.00     0.040 A 
HETATM   10  C8  UNK     1      17.966   2.573  32.757  1.00  0.00     0.304 A 
HETATM   11  C10 UNK     1      18.475   7.323  31.065  1.00  0.00     0.004 A 
ENDROOT
BRANCH   5  12
HETATM   12  C9  UNK     1      18.783   1.205  30.730  1.00  0.00     0.262 C 
HETATM   13  O5  UNK     1      18.273   0.948  29.641  1.00  0.00    -0.267 OA
HETATM   14  N1  UNK     1      19.641   0.422  31.490  1.00  0.00    -0.316 N 
HETATM   15  H5  UNK     1      19.969   0.764  32.390  1.00  0.00     0.169 HD
BRANCH  14  16
HETATM   16  C11 UNK     1      20.109  -0.853  31.155  1.00  0.00     0.093 A 
HETATM   17  S1  UNK     1      20.391  -1.124  29.502  1.00  0.00    -0.083 SA
HETATM   18  C15 UNK     1      20.893  -2.729  29.823  1.00  0.00     0.053 A 
HETATM   19  C14 UNK     1      20.839  -3.029  31.167  1.00  0.00     0.028 A 
HETATM   20  C12 UNK     1      20.379  -1.926  31.943  1.00  0.00     0.073 A 
BRANCH  20  21
HETATM   21  C16 UNK     1      20.216  -1.936  33.374  1.00  0.00     0.296 C 
HETATM   22  O6  UNK     1      21.015  -2.467  34.159  1.00  0.00    -0.259 OA
BRANCH  21  23
HETATM   23  O3  UNK     1      19.076  -1.295  33.812  1.00  0.00    -0.318 OA
BRANCH  23  24
HETATM   24  C18 UNK     1      18.896  -1.190  35.229  1.00  0.00     0.174 C 
HETATM   25  C19 UNK     1      17.415  -1.107  35.532  1.00  0.00     0.034 C 
ENDBRANCH  23  24
ENDBRANCH  21  23
ENDBRANCH  20  21
ENDBRANCH  14  16
ENDBRANCH   5  12
BRANCH   7  26
HETATM   26  O2  UNK     1      17.244   6.326  34.361  1.00  0.00    -0.349 OA
BRANCH  26  27
HETATM   27  C13 UNK     1      16.536   7.515  34.708  1.00  0.00     0.171 C 
HETATM   28  C17 UNK     1      15.099   7.385  34.251  1.00  0.00     0.034 C 
ENDBRANCH  26  27
ENDBRANCH   7  26
TORSDOF 7
ENDMDL
MODEL 9
REMARK VINA RESULT:      -7.9      2.777      4.035
REMARK  7 active torsions:
REMARK  status: ('A' for Active; 'I' for Inactive)
REMARK    1  A    between atoms: C13_21  and  O2_3 
REMARK    2  A    between atoms: C5_13  and  O2_3 
REMARK    3  A    between atoms: C16_24  and  O3_4 
REMARK    4  A    between atoms: C18_26  and  O3_4 
REMARK    5  A    between atoms: C11_19  and  N1_8 
REMARK       I    between atoms: C9_17  and  N1_8 
REMARK    6  A    between atoms: C3_11  and  C9_17 
REMARK    7  A    between atoms: C12_20  and  C16_24 
ROOT
HETATM    1  O1  UNK     1      19.009  -0.502  33.090  1.00  0.00    -0.271 OA
HETATM    2  O4  UNK     1      18.731  -0.790  35.340  1.00  0.00    -0.259 OA
HETATM    3  C1  UNK     1      20.350  -2.092  31.833  1.00  0.00     0.002 A 
HETATM    4  C2  UNK     1      19.564  -0.944  31.874  1.00  0.00     0.123 A 
HETATM    5  C3  UNK     1      20.058  -2.400  34.218  1.00  0.00     0.108 A 
HETATM    6  C4  UNK     1      20.590  -2.826  33.065  1.00  0.00     0.037 A 
HETATM    7  C5  UNK     1      19.298  -0.197  30.729  1.00  0.00     0.103 A 
HETATM    8  C6  UNK     1      20.883  -2.501  30.607  1.00  0.00     0.014 A 
HETATM    9  C7  UNK     1      19.832  -0.611  29.512  1.00  0.00     0.040 A 
HETATM   10  C8  UNK     1      19.219  -1.183  34.285  1.00  0.00     0.304 A 
HETATM   11  C10 UNK     1      20.625  -1.760  29.451  1.00  0.00     0.004 A 
ENDROOT
BRANCH   5  12
HETATM   12  C9  UNK     1      20.357  -3.207  35.406  1.00  0.00     0.262 C 
HETATM   13  O5  UNK     1      21.008  -2.715  36.326  1.00  0.00    -0.267 OA
HETATM   14  N1  UNK     1      19.827  -4.487  35.309  1.00  0.00    -0.316 N 
HETATM   15  H5  UNK     1      19.324  -4.759  34.468  1.00  0.00     0.169 HD
BRANCH  14  16
HETATM   16  C11 UNK     1      19.932  -5.498  36.269  1.00  0.00     0.093 A 
HETATM   17  S1  UNK     1      19.620  -5.029  37.872  1.00  0.00    -0.083 SA
HETATM   18  C15 UNK     1      19.911  -6.624  38.424  1.00  0.00     0.053 A 
HETATM   19  C14 UNK     1      20.236  -7.477  37.392  1.00  0.00     0.028 A 
HETATM   20  C12 UNK     1      20.248  -6.813  36.131  1.00  0.00     0.073 A 
BRANCH  20  21
HETATM   21  C16 UNK     1      20.553  -7.440  34.871  1.00  0.00     0.296 C 
HETATM   22  O6  UNK     1      19.872  -7.296  33.844  1.00  0.00    -0.259 OA
BRANCH  21  23
HETATM   23  O3  UNK     1      21.682  -8.229  34.897  1.00  0.00    -0.318 OA
BRANCH  23  24
HETATM   24  C18 UNK     1      21.481  -9.647  34.932  1.00  0.00     0.174 C 
HETATM   25  C19 UNK     1      22.396 -10.248  35.978  1.00  0.00     0.034 C 
ENDBRANCH  23  24
ENDBRANCH  21  23
ENDBRANCH  20  21
ENDBRANCH  14  16
ENDBRANCH   5  12
BRANCH   7  26
HETATM   26  O2  UNK     1      18.528   0.923  30.784  1.00  0.00    -0.349 OA
BRANCH  26  27
HETATM   27  C13 UNK     1      18.893   2.006  29.929  1.00  0.00     0.171 C 
HETATM   28  C17 UNK     1      17.845   2.156  28.847  1.00  0.00     0.034 C 
ENDBRANCH  26  27
ENDBRANCH   7  26
TORSDOF 7
ENDMDL
MODEL 10
REMARK VINA RESULT:      -7.8      1.590      2.146
REMARK  7 active torsions:
REMARK  status: ('A' for Active; 'I' for Inactive)
REMARK    1  A    between atoms: C13_21  and  O2_3 
REMARK    2  A    between atoms: C5_13  and  O2_3 
REMARK    3  A    between atoms: C16_24  and  O3_4 
REMARK    4  A    between atoms: C18_26  and  O3_4 
REMARK    5  A    between atoms: C11_19  and  N1_8 
REMARK       I    between atoms: C9_17  and  N1_8 
REMARK    6  A    between atoms: C3_11  and  C9_17 
REMARK    7  A    between atoms: C12_20  and  C16_24 
ROOT
HETATM    1  O1  UNK     1      19.533  -1.465  34.976  1.00  0.00    -0.271 OA
HETATM    2  O4  UNK     1      20.448  -3.493  34.455  1.00  0.00    -0.259 OA
HETATM    3  C1  UNK     1      18.468  -1.148  37.138  1.00  0.00     0.002 A 
HETATM    4  C2  UNK     1      18.850  -0.648  35.896  1.00  0.00     0.123 A 
HETATM    5  C3  UNK     1      19.436  -3.300  36.588  1.00  0.00     0.108 A 
HETATM    6  C4  UNK     1      18.786  -2.529  37.468  1.00  0.00     0.037 A 
HETATM    7  C5  UNK     1      18.576   0.665  35.520  1.00  0.00     0.103 A 
HETATM    8  C6  UNK     1      17.793  -0.306  38.025  1.00  0.00     0.014 A 
HETATM    9  C7  UNK     1      17.902   1.498  36.410  1.00  0.00     0.040 A 
HETATM   10  C8  UNK     1      19.853  -2.789  35.264  1.00  0.00     0.304 A 
HETATM   11  C10 UNK     1      17.510   1.013  37.660  1.00  0.00     0.004 A 
ENDROOT
BRANCH   5  12
HETATM   12  C9  UNK     1      19.710  -4.677  37.014  1.00  0.00     0.262 C 
HETATM   13  O5  UNK     1      18.777  -5.465  37.158  1.00  0.00    -0.267 OA
HETATM   14  N1  UNK     1      21.067  -4.901  37.200  1.00  0.00    -0.316 N 
HETATM   15  H5  UNK     1      21.726  -4.138  37.059  1.00  0.00     0.169 HD
BRANCH  14  16
HETATM   16  C11 UNK     1      21.658  -6.103  37.602  1.00  0.00     0.093 A 
HETATM   17  S1  UNK     1      22.584  -6.032  39.025  1.00  0.00    -0.083 SA
HETATM   18  C15 UNK     1      22.953  -7.699  38.901  1.00  0.00     0.053 A 
HETATM   19  C14 UNK     1      22.372  -8.277  37.793  1.00  0.00     0.028 A 
HETATM   20  C12 UNK     1      21.614  -7.337  37.035  1.00  0.00     0.073 A 
BRANCH  20  21
HETATM   21  C16 UNK     1      20.894  -7.642  35.826  1.00  0.00     0.296 C 
HETATM   22  O6  UNK     1      20.909  -6.928  34.812  1.00  0.00    -0.259 OA
BRANCH  21  23
HETATM   23  O3  UNK     1      20.169  -8.813  35.886  1.00  0.00    -0.318 OA
BRANCH  23  24
HETATM   24  C18 UNK     1      18.906  -8.760  36.560  1.00  0.00     0.174 C 
HETATM   25  C19 UNK     1      18.954  -9.672  37.767  1.00  0.00     0.034 C 
ENDBRANCH  23  24
ENDBRANCH  21  23
ENDBRANCH  20  21
ENDBRANCH  14  16
ENDBRANCH   5  12
BRANCH   7  26
HETATM   26  O2  UNK     1      18.955   1.141  34.303  1.00  0.00    -0.349 OA
BRANCH  26  27
HETATM   27  C13 UNK     1      18.179   2.204  33.750  1.00  0.00     0.171 C 
HETATM   28  C17 UNK     1      18.368   2.223  32.249  1.00  0.00     0.034 C 
ENDBRANCH  26  27
ENDBRANCH   7  26
TORSDOF 7
ENDMDL
