MODEL 1
REMARK VINA RESULT:      -6.9      0.000      0.000
REMARK  0 active torsions:
REMARK  status: ('A' for Active; 'I' for Inactive)
ROOT
HETATM    1  O1  UNK     1      14.065   5.229  10.439  1.00  0.00    -0.322 OA
HETATM    2  O2  UNK     1       9.695   5.552   8.387  1.00  0.00    -0.275 OA
HETATM    3  O3  UNK     1       7.673   5.743   7.329  1.00  0.00    -0.260 OA
HETATM    4  C1  UNK     1      13.861   6.001   8.326  1.00  0.00     0.001 A 
HETATM    5  C2  UNK     1      11.724   6.204   7.207  1.00  0.00    -0.001 A 
HETATM    6  C3  UNK     1      13.183   5.514   9.440  1.00  0.00     0.087 A 
HETATM    7  C4  UNK     1      11.101   5.709   8.353  1.00  0.00     0.092 A 
HETATM    8  C5  UNK     1      13.120   6.355   7.182  1.00  0.00     0.028 A 
HETATM    9  C6  UNK     1      11.803   5.347   9.506  1.00  0.00     0.076 A 
HETATM   10  C7  UNK     1      15.235   6.008   8.683  1.00  0.00     0.039 A 
HETATM   11  C8  UNK     1      10.902   6.552   6.059  1.00  0.00     0.020 A 
HETATM   12  C9  UNK     1      15.304   5.532   9.972  1.00  0.00     0.143 A 
HETATM   13  C10 UNK     1       9.577   6.400   6.104  1.00  0.00     0.083 A 
HETATM   14  C11 UNK     1       8.892   5.880   7.301  1.00  0.00     0.288 A 
ENDROOT
TORSDOF 0
ENDMDL
MODEL 2
REMARK VINA RESULT:      -6.7     23.382     26.058
REMARK  0 active torsions:
REMARK  status: ('A' for Active; 'I' for Inactive)
ROOT
HETATM    1  O1  UNK     1      18.831  -1.201  35.069  1.00  0.00    -0.322 OA
HETATM    2  O2  UNK     1      18.731   0.632  30.592  1.00  0.00    -0.275 OA
HETATM    3  O3  UNK     1      18.755   1.427  28.444  1.00  0.00    -0.260 OA
HETATM    4  C1  UNK     1      20.116  -2.105  33.446  1.00  0.00     0.001 A 
HETATM    5  C2  UNK     1      20.143  -1.265  31.176  1.00  0.00    -0.001 A 
HETATM    6  C3  UNK     1      19.185  -1.118  33.756  1.00  0.00     0.087 A 
HETATM    7  C4  UNK     1      19.208  -0.298  31.545  1.00  0.00     0.092 A 
HETATM    8  C5  UNK     1      20.610  -2.184  32.129  1.00  0.00     0.028 A 
HETATM    9  C6  UNK     1      18.695  -0.189  32.842  1.00  0.00     0.076 A 
HETATM   10  C7  UNK     1      20.333  -2.823  34.653  1.00  0.00     0.039 A 
HETATM   11  C8  UNK     1      20.614  -1.293  29.800  1.00  0.00     0.020 A 
HETATM   12  C9  UNK     1      19.531  -2.234  35.603  1.00  0.00     0.143 A 
HETATM   13  C10 UNK     1      20.156  -0.410  28.910  1.00  0.00     0.083 A 
HETATM   14  C11 UNK     1      19.168   0.622  29.272  1.00  0.00     0.288 A 
ENDROOT
TORSDOF 0
ENDMDL
MODEL 3
REMARK VINA RESULT:      -6.6      1.329      5.016
REMARK  0 active torsions:
REMARK  status: ('A' for Active; 'I' for Inactive)
ROOT
HETATM    1  O1  UNK     1       8.759   7.037   7.792  1.00  0.00    -0.322 OA
HETATM    2  O2  UNK     1      12.970   6.965  10.174  1.00  0.00    -0.275 OA
HETATM    3  O3  UNK     1      15.007   6.885  11.218  1.00  0.00    -0.260 OA
HETATM    4  C1  UNK     1      10.599   6.164   6.813  1.00  0.00     0.001 A 
HETATM    5  C2  UNK     1      12.752   6.077   7.917  1.00  0.00    -0.001 A 
HETATM    6  C3  UNK     1      10.085   6.770   7.956  1.00  0.00     0.087 A 
HETATM    7  C4  UNK     1      12.181   6.689   9.033  1.00  0.00     0.092 A 
HETATM    8  C5  UNK     1      11.962   5.807   6.788  1.00  0.00     0.028 A 
HETATM    9  C6  UNK     1      10.834   7.057   9.094  1.00  0.00     0.076 A 
HETATM   10  C7  UNK     1       9.509   6.061   5.909  1.00  0.00     0.039 A 
HETATM   11  C8  UNK     1      14.165   5.733   7.953  1.00  0.00     0.020 A 
HETATM   12  C9  UNK     1       8.420   6.603   6.550  1.00  0.00     0.143 A 
HETATM   13  C10 UNK     1      14.898   6.000   9.036  1.00  0.00     0.083 A 
HETATM   14  C11 UNK     1      14.321   6.645  10.230  1.00  0.00     0.288 A 
ENDROOT
TORSDOF 0
ENDMDL
MODEL 4
REMARK VINA RESULT:      -6.6     23.196     25.087
REMARK  0 active torsions:
REMARK  status: ('A' for Active; 'I' for Inactive)
ROOT
HETATM    1  O1  UNK     1      17.641   7.014  34.805  1.00  0.00    -0.322 OA
HETATM    2  O2  UNK     1      18.083   3.053  32.063  1.00  0.00    -0.275 OA
HETATM    3  O3  UNK     1      18.324   1.239  30.685  1.00  0.00    -0.260 OA
HETATM    4  C1  UNK     1      18.332   7.192  32.661  1.00  0.00     0.001 A 
HETATM    5  C2  UNK     1      18.585   5.276  31.204  1.00  0.00    -0.001 A 
HETATM    6  C3  UNK     1      17.924   6.320  33.667  1.00  0.00     0.087 A 
HETATM    7  C4  UNK     1      18.171   4.452  32.251  1.00  0.00     0.092 A 
HETATM    8  C5  UNK     1      18.670   6.664  31.400  1.00  0.00     0.028 A 
HETATM    9  C6  UNK     1      17.828   4.940  33.515  1.00  0.00     0.076 A 
HETATM   10  C7  UNK     1      18.287   8.490  33.236  1.00  0.00     0.039 A 
HETATM   11  C8  UNK     1      18.919   4.669  29.926  1.00  0.00     0.020 A 
HETATM   12  C9  UNK     1      17.863   8.326  34.534  1.00  0.00     0.143 A 
HETATM   13  C10 UNK     1      18.832   3.347  29.761  1.00  0.00     0.083 A 
HETATM   14  C11 UNK     1      18.398   2.452  30.849  1.00  0.00     0.288 A 
ENDROOT
TORSDOF 0
ENDMDL
MODEL 5
REMARK VINA RESULT:      -6.5     30.759     33.273
REMARK  0 active torsions:
REMARK  status: ('A' for Active; 'I' for Inactive)
ROOT
HETATM    1  O1  UNK     1      20.121  -4.599  35.449  1.00  0.00    -0.322 OA
HETATM    2  O2  UNK     1      19.651  -9.234  36.754  1.00  0.00    -0.275 OA
HETATM    3  O3  UNK     1      19.443 -11.399  37.472  1.00  0.00    -0.260 OA
HETATM    4  C1  UNK     1      20.248  -5.180  37.629  1.00  0.00     0.001 A 
HETATM    5  C2  UNK     1      20.029  -7.469  38.388  1.00  0.00    -0.001 A 
HETATM    6  C3  UNK     1      20.069  -5.640  36.327  1.00  0.00     0.087 A 
HETATM    7  C4  UNK     1      19.854  -7.869  37.064  1.00  0.00     0.092 A 
HETATM    8  C5  UNK     1      20.229  -6.111  38.686  1.00  0.00     0.028 A 
HETATM    9  C6  UNK     1      19.867  -6.975  35.989  1.00  0.00     0.076 A 
HETATM   10  C7  UNK     1      20.418  -3.774  37.521  1.00  0.00     0.039 A 
HETATM   11  C8  UNK     1      19.999  -8.478  39.434  1.00  0.00     0.020 A 
HETATM   12  C9  UNK     1      20.333  -3.475  36.182  1.00  0.00     0.143 A 
HETATM   13  C10 UNK     1      19.807  -9.763  39.129  1.00  0.00     0.083 A 
HETATM   14  C11 UNK     1      19.620 -10.215  37.738  1.00  0.00     0.288 A 
ENDROOT
TORSDOF 0
ENDMDL
MODEL 6
REMARK VINA RESULT:      -6.5      1.510      1.812
REMARK  0 active torsions:
REMARK  status: ('A' for Active; 'I' for Inactive)
ROOT
HETATM    1  O1  UNK     1      15.443   5.038   9.021  1.00  0.00    -0.322 OA
HETATM    2  O2  UNK     1      10.764   5.276   7.813  1.00  0.00    -0.275 OA
HETATM    3  O3  UNK     1       8.545   5.484   7.285  1.00  0.00    -0.260 OA
HETATM    4  C1  UNK     1      14.234   6.878   9.529  1.00  0.00     0.001 A 
HETATM    5  C2  UNK     1      11.888   7.098   8.972  1.00  0.00    -0.001 A 
HETATM    6  C3  UNK     1      14.211   5.616   8.941  1.00  0.00     0.087 A 
HETATM    7  C4  UNK     1      11.928   5.829   8.396  1.00  0.00     0.092 A 
HETATM    8  C5  UNK     1      13.049   7.639   9.549  1.00  0.00     0.028 A 
HETATM    9  C6  UNK     1      13.084   5.044   8.358  1.00  0.00     0.076 A 
HETATM   10  C7  UNK     1      15.564   7.064   9.991  1.00  0.00     0.039 A 
HETATM   11  C8  UNK     1      10.634   7.833   8.961  1.00  0.00     0.020 A 
HETATM   12  C9  UNK     1      16.254   5.921   9.658  1.00  0.00     0.143 A 
HETATM   13  C10 UNK     1       9.542   7.300   8.407  1.00  0.00     0.083 A 
HETATM   14  C11 UNK     1       9.554   5.961   7.791  1.00  0.00     0.288 A 
ENDROOT
TORSDOF 0
ENDMDL
MODEL 7
REMARK VINA RESULT:      -6.4     23.957     25.432
REMARK  0 active torsions:
REMARK  status: ('A' for Active; 'I' for Inactive)
ROOT
HETATM    1  O1  UNK     1      20.368   6.169  32.206  1.00  0.00    -0.322 OA
HETATM    2  O2  UNK     1      17.071   8.811  34.564  1.00  0.00    -0.275 OA
HETATM    3  O3  UNK     1      15.449  10.057  35.595  1.00  0.00    -0.260 OA
HETATM    4  C1  UNK     1      18.422   6.715  31.197  1.00  0.00     0.001 A 
HETATM    5  C2  UNK     1      16.707   8.033  32.286  1.00  0.00    -0.001 A 
HETATM    6  C3  UNK     1      19.183   6.825  32.357  1.00  0.00     0.087 A 
HETATM    7  C4  UNK     1      17.515   8.107  33.420  1.00  0.00     0.092 A 
HETATM    8  C5  UNK     1      17.156   7.331  31.155  1.00  0.00     0.028 A 
HETATM    9  C6  UNK     1      18.776   7.509  33.499  1.00  0.00     0.076 A 
HETATM   10  C7  UNK     1      19.203   5.945  30.295  1.00  0.00     0.039 A 
HETATM   11  C8  UNK     1      15.411   8.691  32.305  1.00  0.00     0.020 A 
HETATM   12  C9  UNK     1      20.371   5.641  30.955  1.00  0.00     0.143 A 
HETATM   13  C10 UNK     1      15.004   9.352  33.391  1.00  0.00     0.083 A 
HETATM   14  C11 UNK     1      15.836   9.447  34.604  1.00  0.00     0.288 A 
ENDROOT
TORSDOF 0
ENDMDL
MODEL 8
REMARK VINA RESULT:      -6.4     31.333     32.684
REMARK  0 active torsions:
REMARK  status: ('A' for Active; 'I' for Inactive)
ROOT
HETATM    1  O1  UNK     1      21.621 -10.194  34.380  1.00  0.00    -0.322 OA
HETATM    2  O2  UNK     1      20.138  -5.758  35.621  1.00  0.00    -0.275 OA
HETATM    3  O3  UNK     1      19.482  -3.673  36.302  1.00  0.00    -0.260 OA
HETATM    4  C1  UNK     1      22.117  -9.364  36.422  1.00  0.00     0.001 A 
HETATM    5  C2  UNK     1      21.422  -7.160  37.143  1.00  0.00    -0.001 A 
HETATM    6  C3  UNK     1      21.485  -9.118  35.205  1.00  0.00     0.087 A 
HETATM    7  C4  UNK     1      20.809  -6.971  35.905  1.00  0.00     0.092 A 
HETATM    8  C5  UNK     1      22.087  -8.366  37.416  1.00  0.00     0.028 A 
HETATM    9  C6  UNK     1      20.818  -7.937  34.894  1.00  0.00     0.076 A 
HETATM   10  C7  UNK     1      22.663 -10.670  36.315  1.00  0.00     0.039 A 
HETATM   11  C8  UNK     1      21.356  -6.091  38.127  1.00  0.00     0.020 A 
HETATM   12  C9  UNK     1      22.334 -11.128  35.060  1.00  0.00     0.143 A 
HETATM   13  C10 UNK     1      20.719  -4.952  37.847  1.00  0.00     0.083 A 
HETATM   14  C11 UNK     1      20.062  -4.725  36.547  1.00  0.00     0.288 A 
ENDROOT
TORSDOF 0
ENDMDL
MODEL 9
REMARK VINA RESULT:      -6.4     24.068     25.362
REMARK  0 active torsions:
REMARK  status: ('A' for Active; 'I' for Inactive)
ROOT
HETATM    1  O1  UNK     1      20.598   5.819  30.587  1.00  0.00    -0.322 OA
HETATM    2  O2  UNK     1      16.092   6.842  32.019  1.00  0.00    -0.275 OA
HETATM    3  O3  UNK     1      13.996   7.349  32.794  1.00  0.00    -0.260 OA
HETATM    4  C1  UNK     1      20.210   6.493  32.708  1.00  0.00     0.001 A 
HETATM    5  C2  UNK     1      17.995   7.028  33.527  1.00  0.00    -0.001 A 
HETATM    6  C3  UNK     1      19.637   6.207  31.471  1.00  0.00     0.087 A 
HETATM    7  C4  UNK     1      17.480   6.728  32.266  1.00  0.00     0.092 A 
HETATM    8  C5  UNK     1      19.375   6.913  33.762  1.00  0.00     0.028 A 
HETATM    9  C6  UNK     1      18.277   6.310  31.196  1.00  0.00     0.076 A 
HETATM   10  C7  UNK     1      21.602   6.260  32.551  1.00  0.00     0.039 A 
HETATM   11  C8  UNK     1      17.081   7.455  34.573  1.00  0.00     0.020 A 
HETATM   12  C9  UNK     1      21.783   5.854  31.249  1.00  0.00     0.143 A 
HETATM   13  C10 UNK     1      15.773   7.558  34.328  1.00  0.00     0.083 A 
HETATM   14  C11 UNK     1      15.200   7.248  33.006  1.00  0.00     0.288 A 
ENDROOT
TORSDOF 0
ENDMDL
MODEL 10
REMARK VINA RESULT:      -6.4     25.088     27.689
REMARK  0 active torsions:
REMARK  status: ('A' for Active; 'I' for Inactive)
ROOT
HETATM    1  O1  UNK     1      17.374   1.980  36.808  1.00  0.00    -0.322 OA
HETATM    2  O2  UNK     1      18.697   1.185  32.222  1.00  0.00    -0.275 OA
HETATM    3  O3  UNK     1      19.341   0.707  30.077  1.00  0.00    -0.260 OA
HETATM    4  C1  UNK     1      18.036  -0.081  36.161  1.00  0.00     0.001 A 
HETATM    5  C2  UNK     1      18.719  -0.586  33.894  1.00  0.00    -0.001 A 
HETATM    6  C3  UNK     1      17.815   1.232  35.757  1.00  0.00     0.087 A 
HETATM    7  C4  UNK     1      18.478   0.744  33.548  1.00  0.00     0.092 A 
HETATM    8  C5  UNK     1      18.499  -1.015  35.213  1.00  0.00     0.028 A 
HETATM    9  C6  UNK     1      18.019   1.698  34.461  1.00  0.00     0.076 A 
HETATM   10  C7  UNK     1      17.707  -0.120  37.542  1.00  0.00     0.039 A 
HETATM   11  C8  UNK     1      19.197  -1.500  32.869  1.00  0.00     0.020 A 
HETATM   12  C9  UNK     1      17.312   1.153  37.883  1.00  0.00     0.143 A 
HETATM   13  C10 UNK     1      19.399  -1.072  31.622  1.00  0.00     0.083 A 
HETATM   14  C11 UNK     1      19.153   0.327  31.227  1.00  0.00     0.288 A 
ENDROOT
TORSDOF 0
ENDMDL
