MODEL 1
REMARK VINA RESULT:      -9.4      0.000      0.000
REMARK  2 active torsions:
REMARK  status: ('A' for Active; 'I' for Inactive)
REMARK    1  A    between atoms: C4_8  and  N1_4 
REMARK       I    between atoms: C8_12  and  N1_4 
REMARK    2  A    between atoms: C3_7  and  C8_12 
ROOT
HETATM    1  O1  UNK     1      19.206   1.717  31.522  1.00  0.00    -0.304 OA
HETATM    2  O2  UNK     1      17.867   2.024  27.681  1.00  0.00    -0.287 OA
HETATM    3  C1  UNK     1      19.051   0.760  29.292  1.00  0.00     0.048 A 
HETATM    4  C2  UNK     1      19.480   0.718  30.620  1.00  0.00     0.090 A 
HETATM    5  C3  UNK     1      18.476   2.800  31.080  1.00  0.00     0.147 A 
HETATM    6  C5  UNK     1      18.273   1.922  28.832  1.00  0.00     0.187 A 
HETATM    7  C6  UNK     1      18.004   2.970  29.838  1.00  0.00     0.098 A 
HETATM    8  C7  UNK     1      19.359  -0.284  28.418  1.00  0.00     0.018 A 
HETATM    9  C9  UNK     1      20.219  -0.371  31.080  1.00  0.00     0.038 A 
HETATM   10  C15 UNK     1      20.099  -1.373  28.882  1.00  0.00     0.001 A 
HETATM   11  C16 UNK     1      20.529  -1.416  30.209  1.00  0.00     0.003 A 
ENDROOT
BRANCH   5  12
HETATM   12  C8  UNK     1      18.195   3.855  32.056  1.00  0.00     0.280 C 
HETATM   13  O3  UNK     1      17.876   3.556  33.207  1.00  0.00    -0.265 OA
HETATM   14  N1  UNK     1      18.334   5.126  31.513  1.00  0.00    -0.321 N 
HETATM   15  H4  UNK     1      18.607   5.192  30.535  1.00  0.00     0.169 HD
BRANCH  14  16
HETATM   16  C4  UNK     1      18.141   6.371  32.162  1.00  0.00     0.035 A 
HETATM   17  C11 UNK     1      19.141   6.870  32.979  1.00  0.00     0.030 A 
HETATM   18  C13 UNK     1      18.952   8.095  33.618  1.00  0.00     0.009 A 
HETATM   19  C10 UNK     1      17.764   8.804  33.428  1.00  0.00    -0.062 A 
HETATM   20  C14 UNK     1      16.768   8.286  32.601  1.00  0.00     0.009 A 
HETATM   21  C17 UNK     1      17.562  10.114  34.110  1.00  0.00     0.048 C 
HETATM   22  C12 UNK     1      16.957   7.061  31.963  1.00  0.00     0.030 A 
ENDBRANCH  14  16
ENDBRANCH   5  12
TORSDOF 2
ENDMDL
MODEL 2
REMARK VINA RESULT:      -8.8      8.139     12.057
REMARK  2 active torsions:
REMARK  status: ('A' for Active; 'I' for Inactive)
REMARK    1  A    between atoms: C4_8  and  N1_4 
REMARK       I    between atoms: C8_12  and  N1_4 
REMARK    2  A    between atoms: C3_7  and  C8_12 
ROOT
HETATM    1  O1  UNK     1      18.973  -2.306  37.420  1.00  0.00    -0.304 OA
HETATM    2  O2  UNK     1      19.518  -1.044  33.580  1.00  0.00    -0.287 OA
HETATM    3  C1  UNK     1      18.671  -0.577  35.738  1.00  0.00     0.048 A 
HETATM    4  C2  UNK     1      18.516  -1.069  37.035  1.00  0.00     0.090 A 
HETATM    5  C3  UNK     1      19.607  -3.080  36.472  1.00  0.00     0.147 A 
HETATM    6  C5  UNK     1      19.350  -1.413  34.735  1.00  0.00     0.187 A 
HETATM    7  C6  UNK     1      19.823  -2.734  35.197  1.00  0.00     0.098 A 
HETATM    8  C7  UNK     1      18.186   0.690  35.402  1.00  0.00     0.018 A 
HETATM    9  C9  UNK     1      17.876  -0.296  38.003  1.00  0.00     0.038 A 
HETATM   10  C15 UNK     1      17.546   1.460  36.373  1.00  0.00     0.001 A 
HETATM   11  C16 UNK     1      17.390   0.969  37.670  1.00  0.00     0.003 A 
ENDROOT
BRANCH   5  12
HETATM   12  C8  UNK     1      20.087  -4.396  36.903  1.00  0.00     0.280 C 
HETATM   13  O3  UNK     1      21.289  -4.579  37.091  1.00  0.00    -0.265 OA
HETATM   14  N1  UNK     1      19.052  -5.311  37.047  1.00  0.00    -0.321 N 
HETATM   15  H4  UNK     1      18.107  -4.989  36.849  1.00  0.00     0.169 HD
BRANCH  14  16
HETATM   16  C4  UNK     1      19.145  -6.668  37.444  1.00  0.00     0.035 A 
HETATM   17  C11 UNK     1      18.783  -7.661  36.549  1.00  0.00     0.030 A 
HETATM   18  C13 UNK     1      18.875  -8.997  36.939  1.00  0.00     0.009 A 
HETATM   19  C10 UNK     1      19.328  -9.320  38.219  1.00  0.00    -0.062 A 
HETATM   20  C14 UNK     1      19.688  -8.307  39.107  1.00  0.00     0.009 A 
HETATM   21  C17 UNK     1      19.426 -10.748  38.636  1.00  0.00     0.048 C 
HETATM   22  C12 UNK     1      19.596  -6.972  38.717  1.00  0.00     0.030 A 
ENDBRANCH  14  16
ENDBRANCH   5  12
TORSDOF 2
ENDMDL
MODEL 3
REMARK VINA RESULT:      -8.6      8.773     10.661
REMARK  2 active torsions:
REMARK  status: ('A' for Active; 'I' for Inactive)
REMARK    1  A    between atoms: C4_8  and  N1_4 
REMARK       I    between atoms: C8_12  and  N1_4 
REMARK    2  A    between atoms: C3_7  and  C8_12 
ROOT
HETATM    1  O1  UNK     1      20.140  -6.224  38.025  1.00  0.00    -0.304 OA
HETATM    2  O2  UNK     1      17.611  -8.200  35.508  1.00  0.00    -0.287 OA
HETATM    3  C1  UNK     1      19.060  -8.302  37.375  1.00  0.00     0.048 A 
HETATM    4  C2  UNK     1      19.913  -7.567  38.199  1.00  0.00     0.090 A 
HETATM    5  C3  UNK     1      19.490  -5.591  36.986  1.00  0.00     0.147 A 
HETATM    6  C5  UNK     1      18.371  -7.615  36.269  1.00  0.00     0.187 A 
HETATM    7  C6  UNK     1      18.647  -6.172  36.123  1.00  0.00     0.098 A 
HETATM    8  C7  UNK     1      18.867  -9.667  37.598  1.00  0.00     0.018 A 
HETATM    9  C9  UNK     1      20.578  -8.195  39.252  1.00  0.00     0.038 A 
HETATM   10  C15 UNK     1      19.533 -10.292  38.653  1.00  0.00     0.001 A 
HETATM   11  C16 UNK     1      20.387  -9.558  39.477  1.00  0.00     0.003 A 
ENDROOT
BRANCH   5  12
HETATM   12  C8  UNK     1      19.746  -4.159  36.817  1.00  0.00     0.280 C 
HETATM   13  O3  UNK     1      20.902  -3.750  36.717  1.00  0.00    -0.265 OA
HETATM   14  N1  UNK     1      18.573  -3.414  36.793  1.00  0.00    -0.321 N 
HETATM   15  H4  UNK     1      17.694  -3.918  36.890  1.00  0.00     0.169 HD
BRANCH  14  16
HETATM   16  C4  UNK     1      18.441  -2.011  36.647  1.00  0.00     0.035 A 
HETATM   17  C11 UNK     1      18.785  -1.421  35.444  1.00  0.00     0.030 A 
HETATM   18  C13 UNK     1      18.655  -0.040  35.299  1.00  0.00     0.009 A 
HETATM   19  C10 UNK     1      18.182   0.731  36.363  1.00  0.00    -0.062 A 
HETATM   20  C14 UNK     1      17.840   0.119  37.568  1.00  0.00     0.009 A 
HETATM   21  C17 UNK     1      18.042   2.207  36.209  1.00  0.00     0.048 C 
HETATM   22  C12 UNK     1      17.970  -1.262  37.712  1.00  0.00     0.030 A 
ENDBRANCH  14  16
ENDBRANCH   5  12
TORSDOF 2
ENDMDL
MODEL 4
REMARK VINA RESULT:      -8.6      1.984      8.071
REMARK  2 active torsions:
REMARK  status: ('A' for Active; 'I' for Inactive)
REMARK    1  A    between atoms: C4_8  and  N1_4 
REMARK       I    between atoms: C8_12  and  N1_4 
REMARK    2  A    between atoms: C3_7  and  C8_12 
ROOT
HETATM    1  O1  UNK     1      16.745   6.129  31.926  1.00  0.00    -0.304 OA
HETATM    2  O2  UNK     1      18.504   7.747  35.231  1.00  0.00    -0.287 OA
HETATM    3  C1  UNK     1      16.592   7.612  33.846  1.00  0.00     0.048 A 
HETATM    4  C2  UNK     1      16.049   7.023  32.703  1.00  0.00     0.090 A 
HETATM    5  C3  UNK     1      18.032   5.813  32.305  1.00  0.00     0.147 A 
HETATM    6  C5  UNK     1      17.968   7.267  34.242  1.00  0.00     0.187 A 
HETATM    7  C6  UNK     1      18.674   6.302  33.374  1.00  0.00     0.098 A 
HETATM    8  C7  UNK     1      15.838   8.516  34.600  1.00  0.00     0.018 A 
HETATM    9  C9  UNK     1      14.749   7.335  32.308  1.00  0.00     0.038 A 
HETATM   10  C15 UNK     1      14.537   8.825  34.202  1.00  0.00     0.001 A 
HETATM   11  C16 UNK     1      13.994   8.237  33.058  1.00  0.00     0.003 A 
ENDROOT
BRANCH   5  12
HETATM   12  C8  UNK     1      18.757   4.859  31.463  1.00  0.00     0.280 C 
HETATM   13  O3  UNK     1      19.831   5.182  30.956  1.00  0.00    -0.265 OA
HETATM   14  N1  UNK     1      18.089   3.647  31.347  1.00  0.00    -0.321 N 
HETATM   15  H4  UNK     1      17.203   3.549  31.838  1.00  0.00     0.169 HD
BRANCH  14  16
HETATM   16  C4  UNK     1      18.492   2.502  30.615  1.00  0.00     0.035 A 
HETATM   17  C11 UNK     1      18.131   2.390  29.283  1.00  0.00     0.030 A 
HETATM   18  C13 UNK     1      18.528   1.264  28.562  1.00  0.00     0.009 A 
HETATM   19  C10 UNK     1      19.280   0.267  29.184  1.00  0.00    -0.062 A 
HETATM   20  C14 UNK     1      19.634   0.397  30.527  1.00  0.00     0.009 A 
HETATM   21  C17 UNK     1      19.704  -0.937  28.413  1.00  0.00     0.048 C 
HETATM   22  C12 UNK     1      19.238   1.522  31.247  1.00  0.00     0.030 A 
ENDBRANCH  14  16
ENDBRANCH   5  12
TORSDOF 2
ENDMDL
MODEL 5
REMARK VINA RESULT:      -8.6      6.182      9.755
REMARK  2 active torsions:
REMARK  status: ('A' for Active; 'I' for Inactive)
REMARK    1  A    between atoms: C4_8  and  N1_4 
REMARK       I    between atoms: C8_12  and  N1_4 
REMARK    2  A    between atoms: C3_7  and  C8_12 
ROOT
HETATM    1  O1  UNK     1      19.904  -2.294  33.433  1.00  0.00    -0.304 OA
HETATM    2  O2  UNK     1      18.056   1.335  33.227  1.00  0.00    -0.287 OA
HETATM    3  C1  UNK     1      19.274  -0.356  32.109  1.00  0.00     0.048 A 
HETATM    4  C2  UNK     1      19.889  -1.601  32.248  1.00  0.00     0.090 A 
HETATM    5  C3  UNK     1      19.282  -1.721  34.522  1.00  0.00     0.147 A 
HETATM    6  C5  UNK     1      18.613   0.247  33.279  1.00  0.00     0.187 A 
HETATM    7  C6  UNK     1      18.656  -0.537  34.530  1.00  0.00     0.098 A 
HETATM    8  C7  UNK     1      19.290   0.306  30.879  1.00  0.00     0.018 A 
HETATM    9  C9  UNK     1      20.523  -2.192  31.155  1.00  0.00     0.038 A 
HETATM   10  C15 UNK     1      19.925  -0.289  29.787  1.00  0.00     0.001 A 
HETATM   11  C16 UNK     1      20.540  -1.534  29.925  1.00  0.00     0.003 A 
ENDROOT
BRANCH   5  12
HETATM   12  C8  UNK     1      19.310  -2.476  35.777  1.00  0.00     0.280 C 
HETATM   13  O3  UNK     1      19.061  -1.908  36.840  1.00  0.00    -0.265 OA
HETATM   14  N1  UNK     1      19.633  -3.812  35.579  1.00  0.00    -0.321 N 
HETATM   15  H4  UNK     1      19.810  -4.118  34.625  1.00  0.00     0.169 HD
BRANCH  14  16
HETATM   16  C4  UNK     1      19.752  -4.829  36.560  1.00  0.00     0.035 A 
HETATM   17  C11 UNK     1      18.796  -5.827  36.618  1.00  0.00     0.030 A 
HETATM   18  C13 UNK     1      18.912  -6.828  37.582  1.00  0.00     0.009 A 
HETATM   19  C10 UNK     1      19.986  -6.815  38.474  1.00  0.00    -0.062 A 
HETATM   20  C14 UNK     1      20.940  -5.801  38.401  1.00  0.00     0.009 A 
HETATM   21  C17 UNK     1      20.111  -7.885  39.505  1.00  0.00     0.048 C 
HETATM   22  C12 UNK     1      20.823  -4.801  37.437  1.00  0.00     0.030 A 
ENDBRANCH  14  16
ENDBRANCH   5  12
TORSDOF 2
ENDMDL
MODEL 6
REMARK VINA RESULT:      -8.6     13.421     16.463
REMARK  2 active torsions:
REMARK  status: ('A' for Active; 'I' for Inactive)
REMARK    1  A    between atoms: C4_8  and  N1_4 
REMARK       I    between atoms: C8_12  and  N1_4 
REMARK    2  A    between atoms: C3_7  and  C8_12 
ROOT
HETATM    1  O1  UNK     1      19.445  -1.480  14.436  1.00  0.00    -0.304 OA
HETATM    2  O2  UNK     1      17.973  -5.170  13.512  1.00  0.00    -0.287 OA
HETATM    3  C1  UNK     1      19.311  -3.330  12.864  1.00  0.00     0.048 A 
HETATM    4  C2  UNK     1      19.779  -2.071  13.241  1.00  0.00     0.090 A 
HETATM    5  C3  UNK     1      18.611  -2.175  15.286  1.00  0.00     0.147 A 
HETATM    6  C5  UNK     1      18.420  -4.063  13.780  1.00  0.00     0.187 A 
HETATM    7  C6  UNK     1      18.091  -3.387  15.051  1.00  0.00     0.098 A 
HETATM    8  C7  UNK     1      19.682  -3.883  11.636  1.00  0.00     0.018 A 
HETATM    9  C9  UNK     1      20.623  -1.356  12.391  1.00  0.00     0.038 A 
HETATM   10  C15 UNK     1      20.527  -3.166  10.788  1.00  0.00     0.001 A 
HETATM   11  C16 UNK     1      20.996  -1.906  11.164  1.00  0.00     0.003 A 
ENDROOT
BRANCH   5  12
HETATM   12  C8  UNK     1      18.267  -1.528  16.554  1.00  0.00     0.280 C 
HETATM   13  O3  UNK     1      17.181  -1.760  17.086  1.00  0.00    -0.265 OA
HETATM   14  N1  UNK     1      19.277  -0.691  17.008  1.00  0.00    -0.321 N 
HETATM   15  H4  UNK     1      20.117  -0.615  16.439  1.00  0.00     0.169 HD
BRANCH  14  16
HETATM   16  C4  UNK     1      19.288   0.091  18.190  1.00  0.00     0.035 A 
HETATM   17  C11 UNK     1      19.015   1.445  18.107  1.00  0.00     0.030 A 
HETATM   18  C13 UNK     1      19.025   2.216  19.269  1.00  0.00     0.009 A 
HETATM   19  C10 UNK     1      19.309   1.619  20.499  1.00  0.00    -0.062 A 
HETATM   20  C14 UNK     1      19.582   0.253  20.564  1.00  0.00     0.009 A 
HETATM   21  C17 UNK     1      19.319   2.442  21.742  1.00  0.00     0.048 C 
HETATM   22  C12 UNK     1      19.571  -0.517  19.401  1.00  0.00     0.030 A 
ENDBRANCH  14  16
ENDBRANCH   5  12
TORSDOF 2
ENDMDL
MODEL 7
REMARK VINA RESULT:      -8.5      6.142      9.647
REMARK  2 active torsions:
REMARK  status: ('A' for Active; 'I' for Inactive)
REMARK    1  A    between atoms: C4_8  and  N1_4 
REMARK       I    between atoms: C8_12  and  N1_4 
REMARK    2  A    between atoms: C3_7  and  C8_12 
ROOT
HETATM    1  O1  UNK     1      19.860  -2.026  33.551  1.00  0.00    -0.304 OA
HETATM    2  O2  UNK     1      17.741   1.455  33.397  1.00  0.00    -0.287 OA
HETATM    3  C1  UNK     1      19.122  -0.098  32.268  1.00  0.00     0.048 A 
HETATM    4  C2  UNK     1      19.828  -1.295  32.388  1.00  0.00     0.090 A 
HETATM    5  C3  UNK     1      19.160  -1.541  34.635  1.00  0.00     0.147 A 
HETATM    6  C5  UNK     1      18.379   0.411  33.433  1.00  0.00     0.187 A 
HETATM    7  C6  UNK     1      18.443  -0.410  34.659  1.00  0.00     0.098 A 
HETATM    8  C7  UNK     1      19.126   0.605  31.061  1.00  0.00     0.018 A 
HETATM    9  C9  UNK     1      20.541  -1.798  31.300  1.00  0.00     0.038 A 
HETATM   10  C15 UNK     1      19.840   0.100  29.974  1.00  0.00     0.001 A 
HETATM   11  C16 UNK     1      20.546  -1.098  30.093  1.00  0.00     0.003 A 
ENDROOT
BRANCH   5  12
HETATM   12  C8  UNK     1      19.207  -2.335  35.865  1.00  0.00     0.280 C 
HETATM   13  O3  UNK     1      18.936  -1.809  36.945  1.00  0.00    -0.265 OA
HETATM   14  N1  UNK     1      19.573  -3.653  35.627  1.00  0.00    -0.321 N 
HETATM   15  H4  UNK     1      19.763  -3.922  34.664  1.00  0.00     0.169 HD
BRANCH  14  16
HETATM   16  C4  UNK     1      19.721  -4.696  36.575  1.00  0.00     0.035 A 
HETATM   17  C11 UNK     1      20.795  -4.670  37.446  1.00  0.00     0.030 A 
HETATM   18  C13 UNK     1      20.942  -5.696  38.380  1.00  0.00     0.009 A 
HETATM   19  C10 UNK     1      20.009  -6.733  38.427  1.00  0.00    -0.062 A 
HETATM   20  C14 UNK     1      18.932  -6.743  37.541  1.00  0.00     0.009 A 
HETATM   21  C17 UNK     1      20.164  -7.830  39.425  1.00  0.00     0.048 C 
HETATM   22  C12 UNK     1      18.786  -5.717  36.608  1.00  0.00     0.030 A 
ENDBRANCH  14  16
ENDBRANCH   5  12
TORSDOF 2
ENDMDL
MODEL 8
REMARK VINA RESULT:      -8.4      7.238     10.002
REMARK  2 active torsions:
REMARK  status: ('A' for Active; 'I' for Inactive)
REMARK    1  A    between atoms: C4_8  and  N1_4 
REMARK       I    between atoms: C8_12  and  N1_4 
REMARK    2  A    between atoms: C3_7  and  C8_12 
ROOT
HETATM    1  O1  UNK     1      21.454  -4.360  37.124  1.00  0.00    -0.304 OA
HETATM    2  O2  UNK     1      18.031  -6.576  37.191  1.00  0.00    -0.287 OA
HETATM    3  C1  UNK     1      20.236  -6.278  37.990  1.00  0.00     0.048 A 
HETATM    4  C2  UNK     1      21.377  -5.477  37.920  1.00  0.00     0.090 A 
HETATM    5  C3  UNK     1      20.348  -4.032  36.369  1.00  0.00     0.147 A 
HETATM    6  C5  UNK     1      19.062  -5.917  37.178  1.00  0.00     0.187 A 
HETATM    7  C6  UNK     1      19.193  -4.709  36.339  1.00  0.00     0.098 A 
HETATM    8  C7  UNK     1      20.215  -7.404  38.816  1.00  0.00     0.018 A 
HETATM    9  C9  UNK     1      22.503  -5.798  38.678  1.00  0.00     0.038 A 
HETATM   10  C15 UNK     1      21.342  -7.722  39.574  1.00  0.00     0.001 A 
HETATM   11  C16 UNK     1      22.484  -6.922  39.505  1.00  0.00     0.003 A 
ENDROOT
BRANCH   5  12
HETATM   12  C8  UNK     1      20.450  -2.838  35.526  1.00  0.00     0.280 C 
HETATM   13  O3  UNK     1      20.929  -1.801  35.987  1.00  0.00    -0.265 OA
HETATM   14  N1  UNK     1      19.960  -3.055  34.245  1.00  0.00    -0.321 N 
HETATM   15  H4  UNK     1      19.597  -3.981  34.030  1.00  0.00     0.169 HD
BRANCH  14  16
HETATM   16  C4  UNK     1      19.900  -2.130  33.173  1.00  0.00     0.035 A 
HETATM   17  C11 UNK     1      20.820  -2.227  32.144  1.00  0.00     0.030 A 
HETATM   18  C13 UNK     1      20.761  -1.317  31.088  1.00  0.00     0.009 A 
HETATM   19  C10 UNK     1      19.781  -0.324  31.078  1.00  0.00    -0.062 A 
HETATM   20  C14 UNK     1      18.862  -0.241  32.124  1.00  0.00     0.009 A 
HETATM   21  C17 UNK     1      19.717   0.649  29.949  1.00  0.00     0.048 C 
HETATM   22  C12 UNK     1      18.921  -1.150  33.179  1.00  0.00     0.030 A 
ENDBRANCH  14  16
ENDBRANCH   5  12
TORSDOF 2
ENDMDL
MODEL 9
REMARK VINA RESULT:      -8.4      1.511      2.584
REMARK  2 active torsions:
REMARK  status: ('A' for Active; 'I' for Inactive)
REMARK    1  A    between atoms: C4_8  and  N1_4 
REMARK       I    between atoms: C8_12  and  N1_4 
REMARK    2  A    between atoms: C3_7  and  C8_12 
ROOT
HETATM    1  O1  UNK     1      19.279   1.963  30.447  1.00  0.00    -0.304 OA
HETATM    2  O2  UNK     1      18.356  -0.160  33.805  1.00  0.00    -0.287 OA
HETATM    3  C1  UNK     1      19.269  -0.164  31.623  1.00  0.00     0.048 A 
HETATM    4  C2  UNK     1      19.558   0.619  30.505  1.00  0.00     0.090 A 
HETATM    5  C3  UNK     1      18.687   2.545  31.548  1.00  0.00     0.147 A 
HETATM    6  C5  UNK     1      18.638   0.469  32.793  1.00  0.00     0.187 A 
HETATM    7  C6  UNK     1      18.357   1.915  32.682  1.00  0.00     0.098 A 
HETATM    8  C7  UNK     1      19.575  -1.527  31.628  1.00  0.00     0.018 A 
HETATM    9  C9  UNK     1      20.156   0.043  29.384  1.00  0.00     0.038 A 
HETATM   10  C15 UNK     1      20.173  -2.101  30.505  1.00  0.00     0.001 A 
HETATM   11  C16 UNK     1      20.462  -1.318  29.386  1.00  0.00     0.003 A 
ENDROOT
BRANCH   5  12
HETATM   12  C8  UNK     1      18.397   3.979  31.465  1.00  0.00     0.280 C 
HETATM   13  O3  UNK     1      18.631   4.593  30.424  1.00  0.00    -0.265 OA
HETATM   14  N1  UNK     1      17.864   4.476  32.647  1.00  0.00    -0.321 N 
HETATM   15  H4  UNK     1      17.735   3.823  33.417  1.00  0.00     0.169 HD
BRANCH  14  16
HETATM   16  C4  UNK     1      17.469   5.808  32.927  1.00  0.00     0.035 A 
HETATM   17  C11 UNK     1      16.358   6.331  32.289  1.00  0.00     0.030 A 
HETATM   18  C13 UNK     1      15.968   7.642  32.563  1.00  0.00     0.009 A 
HETATM   19  C10 UNK     1      16.697   8.410  33.472  1.00  0.00    -0.062 A 
HETATM   20  C14 UNK     1      17.815   7.867  34.105  1.00  0.00     0.009 A 
HETATM   21  C17 UNK     1      16.281   9.812  33.766  1.00  0.00     0.048 C 
HETATM   22  C12 UNK     1      18.204   6.556  33.831  1.00  0.00     0.030 A 
ENDBRANCH  14  16
ENDBRANCH   5  12
TORSDOF 2
ENDMDL
MODEL 10
REMARK VINA RESULT:      -8.3      7.878     11.510
REMARK  2 active torsions:
REMARK  status: ('A' for Active; 'I' for Inactive)
REMARK    1  A    between atoms: C4_8  and  N1_4 
REMARK       I    between atoms: C8_12  and  N1_4 
REMARK    2  A    between atoms: C3_7  and  C8_12 
ROOT
HETATM    1  O1  UNK     1      18.907  -1.988  37.102  1.00  0.00    -0.304 OA
HETATM    2  O2  UNK     1      19.071  -0.401  33.348  1.00  0.00    -0.287 OA
HETATM    3  C1  UNK     1      18.410  -0.139  35.604  1.00  0.00     0.048 A 
HETATM    4  C2  UNK     1      18.385  -0.739  36.863  1.00  0.00     0.090 A 
HETATM    5  C3  UNK     1      19.474  -2.661  36.041  1.00  0.00     0.147 A 
HETATM    6  C5  UNK     1      19.018  -0.868  34.478  1.00  0.00     0.187 A 
HETATM    7  C6  UNK     1      19.564  -2.206  34.785  1.00  0.00     0.098 A 
HETATM    8  C7  UNK     1      17.863   1.133  35.418  1.00  0.00     0.018 A 
HETATM    9  C9  UNK     1      17.815  -0.070  37.945  1.00  0.00     0.038 A 
HETATM   10  C15 UNK     1      17.293   1.801  36.503  1.00  0.00     0.001 A 
HETATM   11  C16 UNK     1      17.268   1.201  37.763  1.00  0.00     0.003 A 
ENDROOT
BRANCH   5  12
HETATM   12  C8  UNK     1      20.024  -3.991  36.316  1.00  0.00     0.280 C 
HETATM   13  O3  UNK     1      20.227  -4.774  35.388  1.00  0.00    -0.265 OA
HETATM   14  N1  UNK     1      20.255  -4.194  37.670  1.00  0.00    -0.321 N 
HETATM   15  H4  UNK     1      20.028  -3.432  38.306  1.00  0.00     0.169 HD
BRANCH  14  16
HETATM   16  C4  UNK     1      20.776  -5.355  38.295  1.00  0.00     0.035 A 
HETATM   17  C11 UNK     1      22.147  -5.498  38.418  1.00  0.00     0.030 A 
HETATM   18  C13 UNK     1      22.661  -6.639  39.033  1.00  0.00     0.009 A 
HETATM   19  C10 UNK     1      21.795  -7.620  39.517  1.00  0.00    -0.062 A 
HETATM   20  C14 UNK     1      20.416  -7.459  39.384  1.00  0.00     0.009 A 
HETATM   21  C17 UNK     1      22.344  -8.841  40.175  1.00  0.00     0.048 C 
HETATM   22  C12 UNK     1      19.902  -6.318  38.769  1.00  0.00     0.030 A 
ENDBRANCH  14  16
ENDBRANCH   5  12
TORSDOF 2
ENDMDL
