MODEL 1
REMARK VINA RESULT:      -8.6      0.000      0.000
REMARK  6 active torsions:
REMARK  status: ('A' for Active; 'I' for Inactive)
REMARK    1  A    between atoms: C20_26  and  O3_3 
REMARK    2  A    between atoms: C21_27  and  O3_3 
REMARK    3  A    between atoms: C13_19  and  O4_4 
REMARK    4  A    between atoms: C3_9  and  N1_6 
REMARK    5  A    between atoms: C3_9  and  C7_13 
REMARK    6  A    between atoms: C4_10  and  C8_14 
ROOT
HETATM    1  O2  UNK     1      10.175   8.249   9.324  1.00  0.00    -0.318 OA
HETATM    2  O5  UNK     1       7.375   6.195   7.175  1.00  0.00    -0.284 OA
HETATM    3  C7  UNK     1      11.912   7.502   7.907  1.00  0.00     0.038 A 
HETATM    4  C9  UNK     1      10.555   7.509   8.230  1.00  0.00     0.100 A 
HETATM    5  C13 UNK     1      12.358   6.769   6.806  1.00  0.00     0.076 A 
HETATM    6  C14 UNK     1       9.647   6.786   7.454  1.00  0.00     0.051 A 
HETATM    7  C17 UNK     1      11.450   6.046   6.031  1.00  0.00     0.038 A 
HETATM    8  C18 UNK     1      10.091   6.051   6.352  1.00  0.00     0.021 A 
HETATM    9  C19 UNK     1       8.218   6.808   7.817  1.00  0.00     0.220 A 
HETATM   10  C21 UNK     1       7.863   7.618   9.003  1.00  0.00     0.149 A 
HETATM   11  C24 UNK     1       8.840   8.260   9.650  1.00  0.00     0.184 A 
ENDROOT
BRANCH  10  12
HETATM   12  O3  UNK     1       6.551   7.692   9.405  1.00  0.00    -0.305 OA
BRANCH  12  13
HETATM   13  C20 UNK     1       6.237   7.124  10.610  1.00  0.00     0.076 A 
HETATM   14  C22 UNK     1       5.975   7.937  11.709  1.00  0.00     0.038 A 
HETATM   15  C15 UNK     1       5.653   7.359  12.936  1.00  0.00     0.011 A 
HETATM   16  C8  UNK     1       5.595   5.971  13.059  1.00  0.00    -0.050 A 
HETATM   17  C16 UNK     1       5.858   5.160  11.954  1.00  0.00     0.011 A 
HETATM   18  C23 UNK     1       6.179   5.739  10.726  1.00  0.00     0.038 A 
BRANCH  16  19
HETATM   19  C4  UNK     1       5.253   5.353  14.372  1.00  0.00    -0.024 C 
HETATM   20  C10 UNK     1       3.734   5.007  14.456  1.00  0.00     0.019 C 
HETATM   21  C11 UNK     1       6.002   4.019  14.703  1.00  0.00     0.019 C 
HETATM   22  C12 UNK     1       5.580   6.316  15.554  1.00  0.00     0.019 C 
ENDBRANCH  16  19
ENDBRANCH  12  13
ENDBRANCH  10  12
BRANCH   3  23
HETATM   23  C3  UNK     1      12.892   8.275   8.730  1.00  0.00     0.317 C 
BRANCH  23  24
HETATM   24  N1  UNK     1      14.061   7.444   9.014  1.00  0.00     0.097 N 
HETATM   25  C1  UNK     1      15.149   8.252   9.584  1.00  0.00     0.299 C 
HETATM   26  C5  UNK     1      16.351   7.361   9.884  1.00  0.00     0.198 C 
HETATM   27  O1  UNK     1      15.983   6.314  10.783  1.00  0.00    -0.388 OA
HETATM   28  C6  UNK     1      14.948   5.505  10.223  1.00  0.00     0.198 C 
HETATM   29  C2  UNK     1      13.711   6.350   9.931  1.00  0.00     0.299 C 
ENDBRANCH  23  24
ENDBRANCH   3  23
BRANCH   5  30
HETATM   30  O4  UNK     1      13.679   6.748   6.472  1.00  0.00    -0.360 OA
HETATM   31  H27 UNK     1      14.012   5.838   6.550  1.00  0.00     0.217 HD
ENDBRANCH   5  30
TORSDOF 6
ENDMDL
MODEL 2
REMARK VINA RESULT:      -8.6      2.247      4.002
REMARK  6 active torsions:
REMARK  status: ('A' for Active; 'I' for Inactive)
REMARK    1  A    between atoms: C20_26  and  O3_3 
REMARK    2  A    between atoms: C21_27  and  O3_3 
REMARK    3  A    between atoms: C13_19  and  O4_4 
REMARK    4  A    between atoms: C3_9  and  N1_6 
REMARK    5  A    between atoms: C3_9  and  C7_13 
REMARK    6  A    between atoms: C4_10  and  C8_14 
ROOT
HETATM    1  O2  UNK     1      12.752   8.147   9.452  1.00  0.00    -0.318 OA
HETATM    2  O5  UNK     1      11.845   4.327   8.326  1.00  0.00    -0.284 OA
HETATM    3  C7  UNK     1      14.952   7.523  10.045  1.00  0.00     0.038 A 
HETATM    4  C9  UNK     1      13.700   7.157   9.552  1.00  0.00     0.100 A 
HETATM    5  C13 UNK     1      15.956   6.562  10.170  1.00  0.00     0.076 A 
HETATM    6  C14 UNK     1      13.453   5.833   9.184  1.00  0.00     0.051 A 
HETATM    7  C17 UNK     1      15.708   5.239   9.802  1.00  0.00     0.038 A 
HETATM    8  C18 UNK     1      14.456   4.869   9.307  1.00  0.00     0.021 A 
HETATM    9  C19 UNK     1      12.121   5.470   8.666  1.00  0.00     0.220 A 
HETATM   10  C21 UNK     1      11.137   6.572   8.579  1.00  0.00     0.149 A 
HETATM   11  C24 UNK     1      11.515   7.793   8.967  1.00  0.00     0.184 A 
ENDROOT
BRANCH  10  12
HETATM   12  O3  UNK     1       9.873   6.316   8.104  1.00  0.00    -0.305 OA
BRANCH  12  13
HETATM   13  C20 UNK     1       8.874   6.194   9.031  1.00  0.00     0.076 A 
HETATM   14  C22 UNK     1       8.017   7.264   9.268  1.00  0.00     0.038 A 
HETATM   15  C15 UNK     1       6.997   7.139  10.211  1.00  0.00     0.011 A 
HETATM   16  C8  UNK     1       6.840   5.945  10.913  1.00  0.00    -0.050 A 
HETATM   17  C16 UNK     1       7.701   4.874  10.672  1.00  0.00     0.011 A 
HETATM   18  C23 UNK     1       8.720   4.999   9.728  1.00  0.00     0.038 A 
BRANCH  16  19
HETATM   19  C4  UNK     1       5.751   5.812  11.923  1.00  0.00    -0.024 C 
HETATM   20  C10 UNK     1       4.780   4.646  11.559  1.00  0.00     0.019 C 
HETATM   21  C11 UNK     1       6.222   5.520  13.386  1.00  0.00     0.019 C 
HETATM   22  C12 UNK     1       4.902   7.118  12.015  1.00  0.00     0.019 C 
ENDBRANCH  16  19
ENDBRANCH  12  13
ENDBRANCH  10  12
BRANCH   3  23
HETATM   23  C3  UNK     1      15.227   8.939  10.441  1.00  0.00     0.317 C 
BRANCH  23  24
HETATM   24  N1  UNK     1      15.872   9.643   9.335  1.00  0.00     0.097 N 
HETATM   25  C1  UNK     1      14.982  10.674   8.783  1.00  0.00     0.299 C 
HETATM   26  C5  UNK     1      15.682  11.404   7.640  1.00  0.00     0.198 C 
HETATM   27  O1  UNK     1      16.901  11.991   8.097  1.00  0.00    -0.388 OA
HETATM   28  C6  UNK     1      17.785  10.992   8.606  1.00  0.00     0.198 C 
HETATM   29  C2  UNK     1      17.137  10.251   9.772  1.00  0.00     0.299 C 
ENDBRANCH  23  24
ENDBRANCH   3  23
BRANCH   5  30
HETATM   30  O4  UNK     1      17.187   6.897  10.649  1.00  0.00    -0.360 OA
HETATM   31  H27 UNK     1      17.849   6.291  10.275  1.00  0.00     0.217 HD
ENDBRANCH   5  30
TORSDOF 6
ENDMDL
MODEL 3
REMARK VINA RESULT:      -8.6     31.843     35.358
REMARK  6 active torsions:
REMARK  status: ('A' for Active; 'I' for Inactive)
REMARK    1  A    between atoms: C20_26  and  O3_3 
REMARK    2  A    between atoms: C21_27  and  O3_3 
REMARK    3  A    between atoms: C13_19  and  O4_4 
REMARK    4  A    between atoms: C3_9  and  N1_6 
REMARK    5  A    between atoms: C3_9  and  C7_13 
REMARK    6  A    between atoms: C4_10  and  C8_14 
ROOT
HETATM    1  O2  UNK     1      31.027  -5.425  34.657  1.00  0.00    -0.318 OA
HETATM    2  O5  UNK     1      27.611  -7.160  36.071  1.00  0.00    -0.284 OA
HETATM    3  C7  UNK     1      31.919  -5.242  36.838  1.00  0.00     0.038 A 
HETATM    4  C9  UNK     1      30.872  -5.639  36.005  1.00  0.00     0.100 A 
HETATM    5  C13 UNK     1      31.819  -5.434  38.216  1.00  0.00     0.076 A 
HETATM    6  C14 UNK     1      29.730  -6.227  36.552  1.00  0.00     0.051 A 
HETATM    7  C17 UNK     1      30.677  -6.022  38.761  1.00  0.00     0.038 A 
HETATM    8  C18 UNK     1      29.627  -6.421  37.931  1.00  0.00     0.021 A 
HETATM    9  C19 UNK     1      28.635  -6.638  35.652  1.00  0.00     0.220 A 
HETATM   10  C21 UNK     1      28.852  -6.384  34.211  1.00  0.00     0.149 A 
HETATM   11  C24 UNK     1      29.999  -5.813  33.831  1.00  0.00     0.184 A 
ENDROOT
BRANCH  10  12
HETATM   12  O3  UNK     1      27.880  -6.740  33.306  1.00  0.00    -0.305 OA
BRANCH  12  13
HETATM   13  C20 UNK     1      28.265  -7.534  32.260  1.00  0.00     0.076 A 
HETATM   14  C22 UNK     1      28.091  -7.087  30.954  1.00  0.00     0.038 A 
HETATM   15  C15 UNK     1      28.485  -7.894  29.888  1.00  0.00     0.011 A 
HETATM   16  C8  UNK     1      29.049  -9.146  30.132  1.00  0.00    -0.050 A 
HETATM   17  C16 UNK     1      29.222  -9.590  31.444  1.00  0.00     0.011 A 
HETATM   18  C23 UNK     1      28.829  -8.781  32.510  1.00  0.00     0.038 A 
BRANCH  16  19
HETATM   19  C4  UNK     1      29.469 -10.010  28.992  1.00  0.00    -0.024 C 
HETATM   20  C10 UNK     1      30.560  -9.312  28.124  1.00  0.00     0.019 C 
HETATM   21  C11 UNK     1      30.077 -11.397  29.388  1.00  0.00     0.019 C 
HETATM   22  C12 UNK     1      28.264 -10.338  28.057  1.00  0.00     0.019 C 
ENDBRANCH  16  19
ENDBRANCH  12  13
ENDBRANCH  10  12
BRANCH   3  23
HETATM   23  C3  UNK     1      33.147  -4.612  36.263  1.00  0.00     0.317 C 
BRANCH  23  24
HETATM   24  N1  UNK     1      33.858  -5.584  35.435  1.00  0.00     0.097 N 
HETATM   25  C1  UNK     1      34.528  -4.920  34.308  1.00  0.00     0.299 C 
HETATM   26  C5  UNK     1      35.273  -5.953  33.468  1.00  0.00     0.198 C 
HETATM   27  O1  UNK     1      36.224  -6.655  34.269  1.00  0.00    -0.388 OA
HETATM   28  C6  UNK     1      35.578  -7.329  35.349  1.00  0.00     0.198 C 
HETATM   29  C2  UNK     1      34.839  -6.331  36.236  1.00  0.00     0.299 C 
ENDBRANCH  23  24
ENDBRANCH   3  23
BRANCH   5  30
HETATM   30  O4  UNK     1      32.830  -5.054  39.048  1.00  0.00    -0.360 OA
HETATM   31  H27 UNK     1      32.489  -4.997  39.957  1.00  0.00     0.217 HD
ENDBRANCH   5  30
TORSDOF 6
ENDMDL
MODEL 4
REMARK VINA RESULT:      -8.5     33.383     36.332
REMARK  6 active torsions:
REMARK  status: ('A' for Active; 'I' for Inactive)
REMARK    1  A    between atoms: C20_26  and  O3_3 
REMARK    2  A    between atoms: C21_27  and  O3_3 
REMARK    3  A    between atoms: C13_19  and  O4_4 
REMARK    4  A    between atoms: C3_9  and  N1_6 
REMARK    5  A    between atoms: C3_9  and  C7_13 
REMARK    6  A    between atoms: C4_10  and  C8_14 
ROOT
HETATM    1  O2  UNK     1      24.520  -8.036  37.776  1.00  0.00    -0.318 OA
HETATM    2  O5  UNK     1      27.851 -10.363  38.190  1.00  0.00    -0.284 OA
HETATM    3  C7  UNK     1      23.463  -9.668  36.434  1.00  0.00     0.038 A 
HETATM    4  C9  UNK     1      24.577  -9.269  37.173  1.00  0.00     0.100 A 
HETATM    5  C13 UNK     1      23.461 -10.910  35.799  1.00  0.00     0.076 A 
HETATM    6  C14 UNK     1      25.685 -10.112  37.277  1.00  0.00     0.051 A 
HETATM    7  C17 UNK     1      24.570 -11.752  35.903  1.00  0.00     0.038 A 
HETATM    8  C18 UNK     1      25.686 -11.356  36.641  1.00  0.00     0.021 A 
HETATM    9  C19 UNK     1      26.852  -9.668  38.062  1.00  0.00     0.220 A 
HETATM   10  C21 UNK     1      26.740  -8.333  38.690  1.00  0.00     0.149 A 
HETATM   11  C24 UNK     1      25.615  -7.636  38.505  1.00  0.00     0.184 A 
ENDROOT
BRANCH  10  12
HETATM   12  O3  UNK     1      27.784  -7.848  39.440  1.00  0.00    -0.305 OA
BRANCH  12  13
HETATM   13  C20 UNK     1      28.745  -7.132  38.780  1.00  0.00     0.076 A 
HETATM   14  C22 UNK     1      29.833  -7.791  38.217  1.00  0.00     0.038 A 
HETATM   15  C15 UNK     1      30.811  -7.062  37.542  1.00  0.00     0.011 A 
HETATM   16  C8  UNK     1      30.697  -5.676  37.434  1.00  0.00    -0.050 A 
HETATM   17  C16 UNK     1      29.604  -5.020  37.999  1.00  0.00     0.011 A 
HETATM   18  C23 UNK     1      28.625  -5.749  38.674  1.00  0.00     0.038 A 
BRANCH  16  19
HETATM   19  C4  UNK     1      31.744  -4.897  36.713  1.00  0.00    -0.024 C 
HETATM   20  C10 UNK     1      31.720  -5.196  35.182  1.00  0.00     0.019 C 
HETATM   21  C11 UNK     1      31.625  -3.341  36.834  1.00  0.00     0.019 C 
HETATM   22  C12 UNK     1      33.171  -5.245  37.237  1.00  0.00     0.019 C 
ENDBRANCH  16  19
ENDBRANCH  12  13
ENDBRANCH  10  12
BRANCH   3  23
HETATM   23  C3  UNK     1      22.270  -8.774  36.319  1.00  0.00     0.317 C 
BRANCH  23  24
HETATM   24  N1  UNK     1      21.324  -9.073  37.392  1.00  0.00     0.097 N 
HETATM   25  C1  UNK     1      21.064  -7.878  38.208  1.00  0.00     0.299 C 
HETATM   26  C5  UNK     1      20.065  -8.212  39.311  1.00  0.00     0.198 C 
HETATM   27  O1  UNK     1      18.848  -8.705  38.749  1.00  0.00    -0.388 OA
HETATM   28  C6  UNK     1      19.087  -9.885  37.980  1.00  0.00     0.198 C 
HETATM   29  C2  UNK     1      20.062  -9.593  36.844  1.00  0.00     0.299 C 
ENDBRANCH  23  24
ENDBRANCH   3  23
BRANCH   5  30
HETATM   30  O4  UNK     1      22.383 -11.320  35.073  1.00  0.00    -0.360 OA
HETATM   31  H27 UNK     1      22.266 -12.279  35.191  1.00  0.00     0.217 HD
ENDBRANCH   5  30
TORSDOF 6
ENDMDL
MODEL 5
REMARK VINA RESULT:      -8.5     23.640     26.024
REMARK  6 active torsions:
REMARK  status: ('A' for Active; 'I' for Inactive)
REMARK    1  A    between atoms: C20_26  and  O3_3 
REMARK    2  A    between atoms: C21_27  and  O3_3 
REMARK    3  A    between atoms: C13_19  and  O4_4 
REMARK    4  A    between atoms: C3_9  and  N1_6 
REMARK    5  A    between atoms: C3_9  and  C7_13 
REMARK    6  A    between atoms: C4_10  and  C8_14 
ROOT
HETATM    1  O2  UNK     1      18.555   1.074  33.312  1.00  0.00    -0.318 OA
HETATM    2  O5  UNK     1      19.436   1.597  29.358  1.00  0.00    -0.284 OA
HETATM    3  C7  UNK     1      19.426  -1.123  33.287  1.00  0.00     0.038 A 
HETATM    4  C9  UNK     1      19.149   0.060  32.600  1.00  0.00     0.100 A 
HETATM    5  C13 UNK     1      20.029  -2.188  32.617  1.00  0.00     0.076 A 
HETATM    6  C14 UNK     1      19.476   0.175  31.247  1.00  0.00     0.051 A 
HETATM    7  C17 UNK     1      20.355  -2.071  31.265  1.00  0.00     0.038 A 
HETATM    8  C18 UNK     1      20.079  -0.890  30.574  1.00  0.00     0.021 A 
HETATM    9  C19 UNK     1      19.173   1.435  30.543  1.00  0.00     0.220 A 
HETATM   10  C21 UNK     1      18.533   2.494  31.354  1.00  0.00     0.149 A 
HETATM   11  C24 UNK     1      18.279   2.242  32.642  1.00  0.00     0.184 A 
ENDROOT
BRANCH  10  12
HETATM   12  O3  UNK     1      18.220   3.698  30.771  1.00  0.00    -0.305 OA
BRANCH  12  13
HETATM   13  C20 UNK     1      18.313   4.813  31.559  1.00  0.00     0.076 A 
HETATM   14  C22 UNK     1      17.169   5.338  32.151  1.00  0.00     0.038 A 
HETATM   15  C15 UNK     1      17.265   6.473  32.956  1.00  0.00     0.011 A 
HETATM   16  C8  UNK     1      18.503   7.079  33.163  1.00  0.00    -0.050 A 
HETATM   17  C16 UNK     1      19.648   6.549  32.566  1.00  0.00     0.011 A 
HETATM   18  C23 UNK     1      19.553   5.413  31.762  1.00  0.00     0.038 A 
BRANCH  16  19
HETATM   19  C4  UNK     1      18.605   8.293  34.022  1.00  0.00    -0.024 C 
HETATM   20  C10 UNK     1      20.093   8.688  34.271  1.00  0.00     0.019 C 
HETATM   21  C11 UNK     1      17.923   9.580  33.449  1.00  0.00     0.019 C 
HETATM   22  C12 UNK     1      17.942   8.059  35.414  1.00  0.00     0.019 C 
ENDBRANCH  16  19
ENDBRANCH  12  13
ENDBRANCH  10  12
BRANCH   3  23
HETATM   23  C3  UNK     1      19.082  -1.256  34.736  1.00  0.00     0.317 C 
BRANCH  23  24
HETATM   24  N1  UNK     1      18.025  -0.307  35.081  1.00  0.00     0.097 N 
HETATM   25  C1  UNK     1      16.711  -0.965  35.081  1.00  0.00     0.299 C 
HETATM   26  C5  UNK     1      15.629   0.042  35.457  1.00  0.00     0.198 C 
HETATM   27  O1  UNK     1      15.901   0.611  36.738  1.00  0.00    -0.388 OA
HETATM   28  C6  UNK     1      17.163   1.281  36.738  1.00  0.00     0.198 C 
HETATM   29  C2  UNK     1      18.284   0.305  36.393  1.00  0.00     0.299 C 
ENDBRANCH  23  24
ENDBRANCH   3  23
BRANCH   5  30
HETATM   30  O4  UNK     1      20.309  -3.352  33.268  1.00  0.00    -0.360 OA
HETATM   31  H27 UNK     1      20.466  -3.160  34.209  1.00  0.00     0.217 HD
ENDBRANCH   5  30
TORSDOF 6
ENDMDL
MODEL 6
REMARK VINA RESULT:      -8.5      4.054     10.567
REMARK  6 active torsions:
REMARK  status: ('A' for Active; 'I' for Inactive)
REMARK    1  A    between atoms: C20_26  and  O3_3 
REMARK    2  A    between atoms: C21_27  and  O3_3 
REMARK    3  A    between atoms: C13_19  and  O4_4 
REMARK    4  A    between atoms: C3_9  and  N1_6 
REMARK    5  A    between atoms: C3_9  and  C7_13 
REMARK    6  A    between atoms: C4_10  and  C8_14 
ROOT
HETATM    1  O2  UNK     1      13.893   8.661   8.169  1.00  0.00    -0.318 OA
HETATM    2  O5  UNK     1      16.761   8.131  11.029  1.00  0.00    -0.284 OA
HETATM    3  C7  UNK     1      13.297   6.375   8.246  1.00  0.00     0.038 A 
HETATM    4  C9  UNK     1      14.100   7.416   8.713  1.00  0.00     0.100 A 
HETATM    5  C13 UNK     1      13.461   5.089   8.761  1.00  0.00     0.076 A 
HETATM    6  C14 UNK     1      15.063   7.169   9.694  1.00  0.00     0.051 A 
HETATM    7  C17 UNK     1      14.424   4.843   9.741  1.00  0.00     0.038 A 
HETATM    8  C18 UNK     1      15.229   5.882  10.211  1.00  0.00     0.021 A 
HETATM    9  C19 UNK     1      15.902   8.285  10.171  1.00  0.00     0.220 A 
HETATM   10  C21 UNK     1      15.639   9.603   9.553  1.00  0.00     0.149 A 
HETATM   11  C24 UNK     1      14.682   9.690   8.624  1.00  0.00     0.184 A 
ENDROOT
BRANCH  10  12
HETATM   12  O3  UNK     1      16.377  10.695   9.945  1.00  0.00    -0.305 OA
BRANCH  12  13
HETATM   13  C20 UNK     1      17.028  11.390   8.963  1.00  0.00     0.076 A 
HETATM   14  C22 UNK     1      16.463  12.554   8.451  1.00  0.00     0.038 A 
HETATM   15  C15 UNK     1      17.128  13.265   7.452  1.00  0.00     0.011 A 
HETATM   16  C8  UNK     1      18.353  12.807   6.968  1.00  0.00    -0.050 A 
HETATM   17  C16 UNK     1      18.915  11.639   7.485  1.00  0.00     0.011 A 
HETATM   18  C23 UNK     1      18.251  10.929   8.486  1.00  0.00     0.038 A 
BRANCH  16  19
HETATM   19  C4  UNK     1      19.063  13.566   5.899  1.00  0.00    -0.024 C 
HETATM   20  C10 UNK     1      20.445  14.090   6.398  1.00  0.00     0.019 C 
HETATM   21  C11 UNK     1      19.372  12.759   4.594  1.00  0.00     0.019 C 
HETATM   22  C12 UNK     1      18.232  14.801   5.435  1.00  0.00     0.019 C 
ENDBRANCH  16  19
ENDBRANCH  12  13
ENDBRANCH  10  12
BRANCH   3  23
HETATM   23  C3  UNK     1      12.261   6.629   7.198  1.00  0.00     0.317 C 
BRANCH  23  24
HETATM   24  N1  UNK     1      10.928   6.476   7.775  1.00  0.00     0.097 N 
HETATM   25  C1  UNK     1      10.520   7.698   8.482  1.00  0.00     0.299 C 
HETATM   26  C5  UNK     1       9.121   7.518   9.063  1.00  0.00     0.198 C 
HETATM   27  O1  UNK     1       8.188   7.206   8.028  1.00  0.00    -0.388 OA
HETATM   28  C6  UNK     1       8.559   6.002   7.356  1.00  0.00     0.198 C 
HETATM   29  C2  UNK     1       9.944   6.144   6.733  1.00  0.00     0.299 C 
ENDBRANCH  23  24
ENDBRANCH   3  23
BRANCH   5  30
HETATM   30  O4  UNK     1      12.686   4.058   8.320  1.00  0.00    -0.360 OA
HETATM   31  H27 UNK     1      11.914   3.967   8.905  1.00  0.00     0.217 HD
ENDBRANCH   5  30
TORSDOF 6
ENDMDL
MODEL 7
REMARK VINA RESULT:      -8.4     22.224     24.474
REMARK  6 active torsions:
REMARK  status: ('A' for Active; 'I' for Inactive)
REMARK    1  A    between atoms: C20_26  and  O3_3 
REMARK    2  A    between atoms: C21_27  and  O3_3 
REMARK    3  A    between atoms: C13_19  and  O4_4 
REMARK    4  A    between atoms: C3_9  and  N1_6 
REMARK    5  A    between atoms: C3_9  and  C7_13 
REMARK    6  A    between atoms: C4_10  and  C8_14 
ROOT
HETATM    1  O2  UNK     1      16.686   6.399  31.822  1.00  0.00    -0.318 OA
HETATM    2  O5  UNK     1      17.404   8.367  35.327  1.00  0.00    -0.284 OA
HETATM    3  C7  UNK     1      18.994   6.018  31.482  1.00  0.00     0.038 A 
HETATM    4  C9  UNK     1      17.975   6.555  32.270  1.00  0.00     0.100 A 
HETATM    5  C13 UNK     1      20.323   6.146  31.887  1.00  0.00     0.076 A 
HETATM    6  C14 UNK     1      18.287   7.217  33.460  1.00  0.00     0.051 A 
HETATM    7  C17 UNK     1      20.634   6.808  33.075  1.00  0.00     0.038 A 
HETATM    8  C18 UNK     1      19.617   7.347  33.867  1.00  0.00     0.021 A 
HETATM    9  C19 UNK     1      17.194   7.778  34.275  1.00  0.00     0.220 A 
HETATM   10  C21 UNK     1      15.826   7.582  33.747  1.00  0.00     0.149 A 
HETATM   11  C24 UNK     1      15.678   6.926  32.592  1.00  0.00     0.184 A 
ENDROOT
BRANCH  10  12
HETATM   12  O3  UNK     1      14.751   8.074  34.450  1.00  0.00    -0.305 OA
BRANCH  12  13
HETATM   13  C20 UNK     1      14.445   9.396  34.274  1.00  0.00     0.076 A 
HETATM   14  C22 UNK     1      14.043   9.851  33.022  1.00  0.00     0.038 A 
HETATM   15  C15 UNK     1      13.729  11.198  32.844  1.00  0.00     0.011 A 
HETATM   16  C8  UNK     1      13.820  12.084  33.917  1.00  0.00    -0.050 A 
HETATM   17  C16 UNK     1      14.223  11.622  35.170  1.00  0.00     0.011 A 
HETATM   18  C23 UNK     1      14.536  10.274  35.349  1.00  0.00     0.038 A 
BRANCH  16  19
HETATM   19  C4  UNK     1      13.486  13.524  33.726  1.00  0.00    -0.024 C 
HETATM   20  C10 UNK     1      11.947  13.765  33.813  1.00  0.00     0.019 C 
HETATM   21  C11 UNK     1      14.120  14.505  34.767  1.00  0.00     0.019 C 
HETATM   22  C12 UNK     1      13.963  14.035  32.331  1.00  0.00     0.019 C 
ENDBRANCH  16  19
ENDBRANCH  12  13
ENDBRANCH  10  12
BRANCH   3  23
HETATM   23  C3  UNK     1      18.670   5.306  30.208  1.00  0.00     0.317 C 
BRANCH  23  24
HETATM   24  N1  UNK     1      18.966   3.882  30.350  1.00  0.00     0.097 N 
HETATM   25  C1  UNK     1      18.284   3.322  31.525  1.00  0.00     0.299 C 
HETATM   26  C5  UNK     1      18.598   1.834  31.644  1.00  0.00     0.198 C 
HETATM   27  O1  UNK     1      18.198   1.144  30.459  1.00  0.00    -0.388 OA
HETATM   28  C6  UNK     1      18.879   1.661  29.316  1.00  0.00     0.198 C 
HETATM   29  C2  UNK     1      18.573   3.146  29.140  1.00  0.00     0.299 C 
ENDBRANCH  23  24
ENDBRANCH   3  23
BRANCH   5  30
HETATM   30  O4  UNK     1      21.333   5.628  31.133  1.00  0.00    -0.360 OA
HETATM   31  H27 UNK     1      21.624   6.296  30.488  1.00  0.00     0.217 HD
ENDBRANCH   5  30
TORSDOF 6
ENDMDL
MODEL 8
REMARK VINA RESULT:      -8.4      2.702      8.900
REMARK  6 active torsions:
REMARK  status: ('A' for Active; 'I' for Inactive)
REMARK    1  A    between atoms: C20_26  and  O3_3 
REMARK    2  A    between atoms: C21_27  and  O3_3 
REMARK    3  A    between atoms: C13_19  and  O4_4 
REMARK    4  A    between atoms: C3_9  and  N1_6 
REMARK    5  A    between atoms: C3_9  and  C7_13 
REMARK    6  A    between atoms: C4_10  and  C8_14 
ROOT
HETATM    1  O2  UNK     1      11.135   7.335   9.651  1.00  0.00    -0.318 OA
HETATM    2  O5  UNK     1      13.656   6.690   6.504  1.00  0.00    -0.284 OA
HETATM    3  C7  UNK     1       9.234   7.101   8.267  1.00  0.00     0.038 A 
HETATM    4  C9  UNK     1      10.623   7.103   8.398  1.00  0.00     0.100 A 
HETATM    5  C13 UNK     1       8.656   6.871   7.018  1.00  0.00     0.076 A 
HETATM    6  C14 UNK     1      11.430   6.876   7.281  1.00  0.00     0.051 A 
HETATM    7  C17 UNK     1       9.464   6.644   5.903  1.00  0.00     0.038 A 
HETATM    8  C18 UNK     1      10.854   6.646   6.030  1.00  0.00     0.021 A 
HETATM    9  C19 UNK     1      12.896   6.884   7.444  1.00  0.00     0.220 A 
HETATM   10  C21 UNK     1      13.395   7.139   8.813  1.00  0.00     0.149 A 
HETATM   11  C24 UNK     1      12.503   7.340   9.787  1.00  0.00     0.184 A 
ENDROOT
BRANCH  10  12
HETATM   12  O3  UNK     1      14.749   7.161   9.048  1.00  0.00    -0.305 OA
BRANCH  12  13
HETATM   13  C20 UNK     1      15.337   8.390   9.183  1.00  0.00     0.076 A 
HETATM   14  C22 UNK     1      14.778   9.496   8.550  1.00  0.00     0.038 A 
HETATM   15  C15 UNK     1      15.376  10.748   8.690  1.00  0.00     0.011 A 
HETATM   16  C8  UNK     1      16.530  10.888   9.459  1.00  0.00    -0.050 A 
HETATM   17  C16 UNK     1      17.087   9.776  10.092  1.00  0.00     0.011 A 
HETATM   18  C23 UNK     1      16.488   8.523   9.954  1.00  0.00     0.038 A 
BRANCH  16  19
HETATM   19  C4  UNK     1      17.170  12.226   9.607  1.00  0.00    -0.024 C 
HETATM   20  C10 UNK     1      18.476  12.327   8.760  1.00  0.00     0.019 C 
HETATM   21  C11 UNK     1      16.292  13.443   9.163  1.00  0.00     0.019 C 
HETATM   22  C12 UNK     1      17.551  12.511  11.092  1.00  0.00     0.019 C 
ENDBRANCH  16  19
ENDBRANCH  12  13
ENDBRANCH  10  12
BRANCH   3  23
HETATM   23  C3  UNK     1       8.361   7.342   9.457  1.00  0.00     0.317 C 
BRANCH  23  24
HETATM   24  N1  UNK     1       7.467   6.203   9.651  1.00  0.00     0.097 N 
HETATM   25  C1  UNK     1       8.218   5.017  10.086  1.00  0.00     0.299 C 
HETATM   26  C5  UNK     1       7.262   3.847  10.295  1.00  0.00     0.198 C 
HETATM   27  O1  UNK     1       6.263   4.185  11.258  1.00  0.00    -0.388 OA
HETATM   28  C6  UNK     1       5.506   5.317  10.827  1.00  0.00     0.198 C 
HETATM   29  C2  UNK     1       6.419   6.524  10.631  1.00  0.00     0.299 C 
ENDBRANCH  23  24
ENDBRANCH   3  23
BRANCH   5  30
HETATM   30  O4  UNK     1       7.301   6.864   6.868  1.00  0.00    -0.360 OA
HETATM   31  H27 UNK     1       6.894   6.518   7.681  1.00  0.00     0.217 HD
ENDBRANCH   5  30
TORSDOF 6
ENDMDL
MODEL 9
REMARK VINA RESULT:      -8.4     33.080     35.734
REMARK  6 active torsions:
REMARK  status: ('A' for Active; 'I' for Inactive)
REMARK    1  A    between atoms: C20_26  and  O3_3 
REMARK    2  A    between atoms: C21_27  and  O3_3 
REMARK    3  A    between atoms: C13_19  and  O4_4 
REMARK    4  A    between atoms: C3_9  and  N1_6 
REMARK    5  A    between atoms: C3_9  and  C7_13 
REMARK    6  A    between atoms: C4_10  and  C8_14 
ROOT
HETATM    1  O2  UNK     1      29.478  -7.570  35.878  1.00  0.00    -0.318 OA
HETATM    2  O5  UNK     1      27.773  -7.800  39.582  1.00  0.00    -0.284 OA
HETATM    3  C7  UNK     1      30.442  -5.471  36.376  1.00  0.00     0.038 A 
HETATM    4  C9  UNK     1      29.662  -6.553  36.784  1.00  0.00     0.100 A 
HETATM    5  C13 UNK     1      30.664  -4.408  37.252  1.00  0.00     0.076 A 
HETATM    6  C14 UNK     1      29.107  -6.571  38.065  1.00  0.00     0.051 A 
HETATM    7  C17 UNK     1      30.109  -4.427  38.532  1.00  0.00     0.038 A 
HETATM    8  C18 UNK     1      29.328  -5.508  38.944  1.00  0.00     0.021 A 
HETATM    9  C19 UNK     1      28.285  -7.726  38.473  1.00  0.00     0.220 A 
HETATM   10  C21 UNK     1      28.118  -8.792  37.461  1.00  0.00     0.149 A 
HETATM   11  C24 UNK     1      28.710  -8.640  36.273  1.00  0.00     0.184 A 
ENDROOT
BRANCH  10  12
HETATM   12  O3  UNK     1      27.367  -9.903  37.765  1.00  0.00    -0.305 OA
BRANCH  12  13
HETATM   13  C20 UNK     1      26.066  -9.909  37.342  1.00  0.00     0.076 A 
HETATM   14  C22 UNK     1      25.599 -10.959  36.558  1.00  0.00     0.038 A 
HETATM   15  C15 UNK     1      24.271 -10.965  36.130  1.00  0.00     0.011 A 
HETATM   16  C8  UNK     1      23.419  -9.921  36.486  1.00  0.00    -0.050 A 
HETATM   17  C16 UNK     1      23.892  -8.871  37.273  1.00  0.00     0.011 A 
HETATM   18  C23 UNK     1      25.219  -8.865  37.702  1.00  0.00     0.038 A 
BRANCH  16  19
HETATM   19  C4  UNK     1      22.000  -9.928  36.026  1.00  0.00    -0.024 C 
HETATM   20  C10 UNK     1      21.050 -10.486  37.130  1.00  0.00     0.019 C 
HETATM   21  C11 UNK     1      21.413  -8.530  35.640  1.00  0.00     0.019 C 
HETATM   22  C12 UNK     1      21.820 -10.817  34.758  1.00  0.00     0.019 C 
ENDBRANCH  16  19
ENDBRANCH  12  13
ENDBRANCH  10  12
BRANCH   3  23
HETATM   23  C3  UNK     1      31.043  -5.443  35.007  1.00  0.00     0.317 C 
BRANCH  23  24
HETATM   24  N1  UNK     1      32.421  -5.924  35.063  1.00  0.00     0.097 N 
HETATM   25  C1  UNK     1      32.572  -7.167  34.292  1.00  0.00     0.299 C 
HETATM   26  C5  UNK     1      34.020  -7.642  34.355  1.00  0.00     0.198 C 
HETATM   27  O1  UNK     1      34.897  -6.633  33.851  1.00  0.00    -0.388 OA
HETATM   28  C6  UNK     1      34.781  -5.432  34.614  1.00  0.00     0.198 C 
HETATM   29  C2  UNK     1      33.350  -4.903  34.558  1.00  0.00     0.299 C 
ENDBRANCH  23  24
ENDBRANCH   3  23
BRANCH   5  30
HETATM   30  O4  UNK     1      31.424  -3.341  36.875  1.00  0.00    -0.360 OA
HETATM   31  H27 UNK     1      31.948  -3.585  36.092  1.00  0.00     0.217 HD
ENDBRANCH   5  30
TORSDOF 6
ENDMDL
MODEL 10
REMARK VINA RESULT:      -8.3     32.441     35.979
REMARK  6 active torsions:
REMARK  status: ('A' for Active; 'I' for Inactive)
REMARK    1  A    between atoms: C20_26  and  O3_3 
REMARK    2  A    between atoms: C21_27  and  O3_3 
REMARK    3  A    between atoms: C13_19  and  O4_4 
REMARK    4  A    between atoms: C3_9  and  N1_6 
REMARK    5  A    between atoms: C3_9  and  C7_13 
REMARK    6  A    between atoms: C4_10  and  C8_14 
ROOT
HETATM    1  O2  UNK     1      30.883  -7.621  36.870  1.00  0.00    -0.318 OA
HETATM    2  O5  UNK     1      26.895  -8.264  36.265  1.00  0.00    -0.284 OA
HETATM    3  C7  UNK     1      30.442  -5.767  38.267  1.00  0.00     0.038 A 
HETATM    4  C9  UNK     1      29.956  -6.801  37.467  1.00  0.00     0.100 A 
HETATM    5  C13 UNK     1      29.549  -4.901  38.899  1.00  0.00     0.076 A 
HETATM    6  C14 UNK     1      28.580  -6.967  37.300  1.00  0.00     0.051 A 
HETATM    7  C17 UNK     1      28.174  -5.068  38.732  1.00  0.00     0.038 A 
HETATM    8  C18 UNK     1      27.683  -6.101  37.931  1.00  0.00     0.021 A 
HETATM    9  C19 UNK     1      28.089  -8.067  36.448  1.00  0.00     0.220 A 
HETATM   10  C21 UNK     1      29.127  -8.920  35.830  1.00  0.00     0.149 A 
HETATM   11  C24 UNK     1      30.410  -8.642  36.080  1.00  0.00     0.184 A 
ENDROOT
BRANCH  10  12
HETATM   12  O3  UNK     1      28.752  -9.967  35.023  1.00  0.00    -0.305 OA
BRANCH  12  13
HETATM   13  C20 UNK     1      28.968  -9.826  33.679  1.00  0.00     0.076 A 
HETATM   14  C22 UNK     1      29.707 -10.786  32.994  1.00  0.00     0.038 A 
HETATM   15  C15 UNK     1      29.925 -10.643  31.624  1.00  0.00     0.011 A 
HETATM   16  C8  UNK     1      29.405  -9.540  30.946  1.00  0.00    -0.050 A 
HETATM   17  C16 UNK     1      28.665  -8.581  31.638  1.00  0.00     0.011 A 
HETATM   18  C23 UNK     1      28.445  -8.725  33.008  1.00  0.00     0.038 A 
BRANCH  16  19
HETATM   19  C4  UNK     1      29.640  -9.387  29.482  1.00  0.00    -0.024 C 
HETATM   20  C10 UNK     1      28.373  -9.780  28.661  1.00  0.00     0.019 C 
HETATM   21  C11 UNK     1      30.010  -7.942  29.008  1.00  0.00     0.019 C 
HETATM   22  C12 UNK     1      30.813 -10.294  28.999  1.00  0.00     0.019 C 
ENDBRANCH  16  19
ENDBRANCH  12  13
ENDBRANCH  10  12
BRANCH   3  23
HETATM   23  C3  UNK     1      31.914  -5.581  38.453  1.00  0.00     0.317 C 
BRANCH  23  24
HETATM   24  N1  UNK     1      32.559  -5.416  37.152  1.00  0.00     0.097 N 
HETATM   25  C1  UNK     1      32.405  -4.039  36.663  1.00  0.00     0.299 C 
HETATM   26  C5  UNK     1      33.097  -3.889  35.312  1.00  0.00     0.198 C 
HETATM   27  O1  UNK     1      34.480  -4.228  35.420  1.00  0.00    -0.388 OA
HETATM   28  C6  UNK     1      34.639  -5.575  35.864  1.00  0.00     0.198 C 
HETATM   29  C2  UNK     1      33.985  -5.767  37.229  1.00  0.00     0.299 C 
ENDBRANCH  23  24
ENDBRANCH   3  23
BRANCH   5  30
HETATM   30  O4  UNK     1      30.003  -3.885  39.686  1.00  0.00    -0.360 OA
HETATM   31  H27 UNK     1      30.423  -3.211  39.124  1.00  0.00     0.217 HD
ENDBRANCH   5  30
TORSDOF 6
ENDMDL
