MODEL 1
REMARK VINA RESULT:      -9.5      0.000      0.000
REMARK  4 active torsions:
REMARK  status: ('A' for Active; 'I' for Inactive)
REMARK    1  A    between atoms: C20_28  and  O4_4 
REMARK    2  A    between atoms: C4_12  and  N2_7 
REMARK    3  A    between atoms: C2_10  and  N3_8 
REMARK       I    between atoms: C7_15  and  N3_8 
REMARK    4  A    between atoms: C10_18  and  C7_15 
ROOT
HETATM    1  O3  UNK     1      17.977  -1.055  32.465  1.00  0.00    -0.267 OA
HETATM    2  N3  UNK     1      19.049   0.139  34.163  1.00  0.00    -0.316 N 
HETATM    3  C7  UNK     1      18.521  -0.039  32.895  1.00  0.00     0.262 C 
HETATM    4  H7  UNK     1      19.655   0.937  34.327  1.00  0.00     0.169 HD
ENDROOT
BRANCH   2   5
HETATM    5  C2  UNK     1      19.032  -0.813  35.123  1.00  0.00     0.130 A 
HETATM    6  C1  UNK     1      18.168  -1.014  36.126  1.00  0.00     0.057 A 
HETATM    7  N1  UNK     1      18.542  -2.105  36.910  1.00  0.00    -0.289 N 
HETATM    8  C6  UNK     1      16.968  -0.194  36.464  1.00  0.00     0.072 C 
HETATM    9  C5  UNK     1      18.491  -2.032  38.368  1.00  0.00     0.178 C 
HETATM   10  N2  UNK     1      19.676  -2.685  36.309  1.00  0.00    -0.217 N 
HETATM   11  C3  UNK     1      20.060  -1.880  35.229  1.00  0.00     0.295 A 
HETATM   12  O1  UNK     1      20.979  -2.004  34.435  1.00  0.00    -0.264 OA
BRANCH  10  13
HETATM   13  C4  UNK     1      20.103  -4.012  36.567  1.00  0.00     0.060 A 
HETATM   14  C8  UNK     1      19.643  -5.066  35.772  1.00  0.00     0.031 A 
HETATM   15  C14 UNK     1      20.062  -6.372  36.026  1.00  0.00     0.002 A 
HETATM   16  C18 UNK     1      20.943  -6.630  37.076  1.00  0.00     0.000 A 
HETATM   17  C15 UNK     1      21.405  -5.582  37.872  1.00  0.00     0.002 A 
HETATM   18  C9  UNK     1      20.986  -4.276  37.618  1.00  0.00     0.031 A 
ENDBRANCH  10  13
ENDBRANCH   2   5
BRANCH   3  19
HETATM   19  C10 UNK     1      18.669   1.149  32.047  1.00  0.00     0.108 A 
HETATM   20  C12 UNK     1      18.291   2.314  32.587  1.00  0.00     0.037 A 
HETATM   21  C11 UNK     1      18.399   3.547  31.823  1.00  0.00     0.002 A 
HETATM   22  C13 UNK     1      18.899   3.493  30.526  1.00  0.00     0.089 A 
HETATM   23  C17 UNK     1      18.017   4.784  32.348  1.00  0.00     0.051 A 
HETATM   24  O2  UNK     1      19.295   2.264  29.962  1.00  0.00    -0.274 OA
HETATM   25  C19 UNK     1      19.028   4.637  29.740  1.00  0.00     0.041 A 
HETATM   26  C16 UNK     1      19.203   1.068  30.669  1.00  0.00     0.304 A 
HETATM   27  O5  UNK     1      19.549   0.003  30.169  1.00  0.00    -0.259 OA
HETATM   28  C21 UNK     1      18.644   5.867  30.271  1.00  0.00     0.039 A 
HETATM   29  C20 UNK     1      18.140   5.940  31.572  1.00  0.00     0.069 A 
BRANCH  29  30
HETATM   30  O4  UNK     1      17.768   7.145  32.086  1.00  0.00    -0.356 OA
HETATM   31  C22 UNK     1      16.563   7.720  31.584  1.00  0.00     0.210 C 
ENDBRANCH  29  30
ENDBRANCH   3  19
TORSDOF 4
ENDMDL
MODEL 2
REMARK VINA RESULT:      -9.0      2.979      5.561
REMARK  4 active torsions:
REMARK  status: ('A' for Active; 'I' for Inactive)
REMARK    1  A    between atoms: C20_28  and  O4_4 
REMARK    2  A    between atoms: C4_12  and  N2_7 
REMARK    3  A    between atoms: C2_10  and  N3_8 
REMARK       I    between atoms: C7_15  and  N3_8 
REMARK    4  A    between atoms: C10_18  and  C7_15 
ROOT
HETATM    1  O3  UNK     1      20.418  -3.847  34.756  1.00  0.00    -0.267 OA
HETATM    2  N3  UNK     1      19.062  -4.458  36.558  1.00  0.00    -0.316 N 
HETATM    3  C7  UNK     1      19.637  -3.568  35.665  1.00  0.00     0.262 C 
HETATM    4  H7  UNK     1      18.608  -4.085  37.387  1.00  0.00     0.169 HD
ENDROOT
BRANCH   2   5
HETATM    5  C2  UNK     1      19.291  -5.789  36.543  1.00  0.00     0.130 A 
HETATM    6  C1  UNK     1      18.456  -6.808  36.301  1.00  0.00     0.057 A 
HETATM    7  N1  UNK     1      19.105  -8.037  36.418  1.00  0.00    -0.289 N 
HETATM    8  C6  UNK     1      16.999  -6.728  35.994  1.00  0.00     0.072 C 
HETATM    9  C5  UNK     1      18.474  -9.152  37.119  1.00  0.00     0.178 C 
HETATM   10  N2  UNK     1      20.465  -7.772  36.668  1.00  0.00    -0.217 N 
HETATM   11  C3  UNK     1      20.623  -6.389  36.819  1.00  0.00     0.295 A 
HETATM   12  O1  UNK     1      21.621  -5.725  37.044  1.00  0.00    -0.264 OA
BRANCH  10  13
HETATM   13  C4  UNK     1      21.496  -8.721  36.453  1.00  0.00     0.060 A 
HETATM   14  C8  UNK     1      21.314  -9.762  35.537  1.00  0.00     0.031 A 
HETATM   15  C14 UNK     1      22.329 -10.697  35.326  1.00  0.00     0.002 A 
HETATM   16  C18 UNK     1      23.530 -10.594  36.029  1.00  0.00     0.000 A 
HETATM   17  C15 UNK     1      23.716  -9.557  36.943  1.00  0.00     0.002 A 
HETATM   18  C9  UNK     1      22.702  -8.623  37.154  1.00  0.00     0.031 A 
ENDBRANCH  10  13
ENDBRANCH   2   5
BRANCH   3  19
HETATM   19  C10 UNK     1      19.222  -2.180  35.898  1.00  0.00     0.108 A 
HETATM   20  C12 UNK     1      19.038  -1.426  34.808  1.00  0.00     0.037 A 
HETATM   21  C11 UNK     1      18.628  -0.037  34.938  1.00  0.00     0.002 A 
HETATM   22  C13 UNK     1      18.431   0.491  36.210  1.00  0.00     0.089 A 
HETATM   23  C17 UNK     1      18.425   0.787  33.828  1.00  0.00     0.051 A 
HETATM   24  O2  UNK     1      18.626  -0.308  37.354  1.00  0.00    -0.274 OA
HETATM   25  C19 UNK     1      18.037   1.814  36.404  1.00  0.00     0.041 A 
HETATM   26  C16 UNK     1      19.018  -1.640  37.262  1.00  0.00     0.304 A 
HETATM   27  O5  UNK     1      19.187  -2.328  38.263  1.00  0.00    -0.259 OA
HETATM   28  C21 UNK     1      17.837   2.628  35.292  1.00  0.00     0.039 A 
HETATM   29  C20 UNK     1      18.030   2.116  34.006  1.00  0.00     0.069 A 
BRANCH  29  30
HETATM   30  O4  UNK     1      17.832   2.916  32.922  1.00  0.00    -0.356 OA
HETATM   31  C22 UNK     1      18.210   4.285  33.049  1.00  0.00     0.210 C 
ENDBRANCH  29  30
ENDBRANCH   3  19
TORSDOF 4
ENDMDL
MODEL 3
REMARK VINA RESULT:      -9.0     24.215     27.085
REMARK  4 active torsions:
REMARK  status: ('A' for Active; 'I' for Inactive)
REMARK    1  A    between atoms: C20_28  and  O4_4 
REMARK    2  A    between atoms: C4_12  and  N2_7 
REMARK    3  A    between atoms: C2_10  and  N3_8 
REMARK       I    between atoms: C7_15  and  N3_8 
REMARK    4  A    between atoms: C10_18  and  C7_15 
ROOT
HETATM    1  O3  UNK     1       8.795   7.334   9.872  1.00  0.00    -0.267 OA
HETATM    2  N3  UNK     1       9.838   5.349   9.215  1.00  0.00    -0.316 N 
HETATM    3  C7  UNK     1       8.807   6.110   9.739  1.00  0.00     0.262 C 
HETATM    4  H7  UNK     1       9.815   4.343   9.354  1.00  0.00     0.169 HD
ENDROOT
BRANCH   2   5
HETATM    5  C2  UNK     1      11.001   5.869   8.765  1.00  0.00     0.130 A 
HETATM    6  C1  UNK     1      11.298   6.433   7.588  1.00  0.00     0.057 A 
HETATM    7  N1  UNK     1      12.639   6.813   7.528  1.00  0.00    -0.289 N 
HETATM    8  C6  UNK     1      10.389   6.620   6.419  1.00  0.00     0.072 C 
HETATM    9  C5  UNK     1      13.440   6.548   6.336  1.00  0.00     0.178 C 
HETATM   10  N2  UNK     1      13.207   6.547   8.789  1.00  0.00    -0.217 N 
HETATM   11  C3  UNK     1      12.247   5.899   9.575  1.00  0.00     0.295 A 
HETATM   12  O1  UNK     1      12.307   5.491  10.724  1.00  0.00    -0.264 OA
BRANCH  10  13
HETATM   13  C4  UNK     1      14.407   7.148   9.245  1.00  0.00     0.060 A 
HETATM   14  C8  UNK     1      14.531   8.540   9.270  1.00  0.00     0.031 A 
HETATM   15  C14 UNK     1      15.712   9.133   9.719  1.00  0.00     0.002 A 
HETATM   16  C18 UNK     1      16.774   8.334  10.146  1.00  0.00     0.000 A 
HETATM   17  C15 UNK     1      16.655   6.945  10.123  1.00  0.00     0.002 A 
HETATM   18  C9  UNK     1      15.474   6.353   9.674  1.00  0.00     0.031 A 
ENDBRANCH  10  13
ENDBRANCH   2   5
BRANCH   3  19
HETATM   19  C10 UNK     1       7.656   5.301  10.154  1.00  0.00     0.108 A 
HETATM   20  C12 UNK     1       7.227   5.479  11.409  1.00  0.00     0.037 A 
HETATM   21  C11 UNK     1       6.092   4.720  11.912  1.00  0.00     0.002 A 
HETATM   22  C13 UNK     1       5.464   3.810  11.068  1.00  0.00     0.089 A 
HETATM   23  C17 UNK     1       5.612   4.875  13.215  1.00  0.00     0.051 A 
HETATM   24  O2  UNK     1       5.920   3.626   9.748  1.00  0.00    -0.274 OA
HETATM   25  C19 UNK     1       4.373   3.052  11.487  1.00  0.00     0.041 A 
HETATM   26  C16 UNK     1       7.003   4.338   9.238  1.00  0.00     0.304 A 
HETATM   27  O5  UNK     1       7.393   4.170   8.088  1.00  0.00    -0.259 OA
HETATM   28  C21 UNK     1       3.900   3.212  12.788  1.00  0.00     0.039 A 
HETATM   29  C20 UNK     1       4.517   4.122  13.650  1.00  0.00     0.069 A 
BRANCH  29  30
HETATM   30  O4  UNK     1       4.051   4.275  14.920  1.00  0.00    -0.356 OA
HETATM   31  C22 UNK     1       5.020   4.469  15.948  1.00  0.00     0.210 C 
ENDBRANCH  29  30
ENDBRANCH   3  19
TORSDOF 4
ENDMDL
MODEL 4
REMARK VINA RESULT:      -9.0     10.179     13.741
REMARK  4 active torsions:
REMARK  status: ('A' for Active; 'I' for Inactive)
REMARK    1  A    between atoms: C20_28  and  O4_4 
REMARK    2  A    between atoms: C4_12  and  N2_7 
REMARK    3  A    between atoms: C2_10  and  N3_8 
REMARK       I    between atoms: C7_15  and  N3_8 
REMARK    4  A    between atoms: C10_18  and  C7_15 
ROOT
HETATM    1  O3  UNK     1      26.992  -8.731  39.399  1.00  0.00    -0.267 OA
HETATM    2  N3  UNK     1      27.191  -7.382  37.502  1.00  0.00    -0.316 N 
HETATM    3  C7  UNK     1      26.534  -7.918  38.597  1.00  0.00     0.262 C 
HETATM    4  H7  UNK     1      26.643  -6.892  36.801  1.00  0.00     0.169 HD
ENDROOT
BRANCH   2   5
HETATM    5  C2  UNK     1      28.462  -7.693  37.164  1.00  0.00     0.130 A 
HETATM    6  C1  UNK     1      28.930  -8.622  36.322  1.00  0.00     0.057 A 
HETATM    7  N1  UNK     1      30.325  -8.625  36.289  1.00  0.00    -0.289 N 
HETATM    8  C6  UNK     1      28.136  -9.604  35.526  1.00  0.00     0.072 C 
HETATM    9  C5  UNK     1      31.072  -9.879  36.318  1.00  0.00     0.178 C 
HETATM   10  N2  UNK     1      30.766  -7.564  37.104  1.00  0.00    -0.217 N 
HETATM   11  C3  UNK     1      29.648  -6.992  37.723  1.00  0.00     0.295 A 
HETATM   12  O1  UNK     1      29.564  -6.057  38.503  1.00  0.00    -0.264 OA
BRANCH  10  13
HETATM   13  C4  UNK     1      32.062  -6.999  37.013  1.00  0.00     0.060 A 
HETATM   14  C8  UNK     1      32.342  -6.031  36.044  1.00  0.00     0.031 A 
HETATM   15  C14 UNK     1      33.618  -5.474  35.954  1.00  0.00     0.002 A 
HETATM   16  C18 UNK     1      34.620  -5.883  36.834  1.00  0.00     0.000 A 
HETATM   17  C15 UNK     1      34.347  -6.848  37.803  1.00  0.00     0.002 A 
HETATM   18  C9  UNK     1      33.070  -7.404  37.893  1.00  0.00     0.031 A 
ENDBRANCH  10  13
ENDBRANCH   2   5
BRANCH   3  19
HETATM   19  C10 UNK     1      25.163  -7.414  38.739  1.00  0.00     0.108 A 
HETATM   20  C12 UNK     1      24.193  -8.336  38.765  1.00  0.00     0.037 A 
HETATM   21  C11 UNK     1      22.802  -7.934  38.901  1.00  0.00     0.002 A 
HETATM   22  C13 UNK     1      22.499  -6.581  39.005  1.00  0.00     0.089 A 
HETATM   23  C17 UNK     1      21.758  -8.863  38.933  1.00  0.00     0.051 A 
HETATM   24  O2  UNK     1      23.524  -5.614  38.977  1.00  0.00    -0.274 OA
HETATM   25  C19 UNK     1      21.188  -6.129  39.138  1.00  0.00     0.041 A 
HETATM   26  C16 UNK     1      24.864  -5.969  38.847  1.00  0.00     0.304 A 
HETATM   27  O5  UNK     1      25.750  -5.121  38.823  1.00  0.00    -0.259 OA
HETATM   28  C21 UNK     1      20.153  -7.061  39.168  1.00  0.00     0.039 A 
HETATM   29  C20 UNK     1      20.437  -8.425  39.066  1.00  0.00     0.069 A 
BRANCH  29  30
HETATM   30  O4  UNK     1      19.422  -9.332  39.097  1.00  0.00    -0.356 OA
HETATM   31  C22 UNK     1      19.527 -10.453  38.221  1.00  0.00     0.210 C 
ENDBRANCH  29  30
ENDBRANCH   3  19
TORSDOF 4
ENDMDL
MODEL 5
REMARK VINA RESULT:      -8.7     25.893     27.852
REMARK  4 active torsions:
REMARK  status: ('A' for Active; 'I' for Inactive)
REMARK    1  A    between atoms: C20_28  and  O4_4 
REMARK    2  A    between atoms: C4_12  and  N2_7 
REMARK    3  A    between atoms: C2_10  and  N3_8 
REMARK       I    between atoms: C7_15  and  N3_8 
REMARK    4  A    between atoms: C10_18  and  C7_15 
ROOT
HETATM    1  O3  UNK     1      13.426   7.014  10.188  1.00  0.00    -0.267 OA
HETATM    2  N3  UNK     1      12.577   8.309   8.437  1.00  0.00    -0.316 N 
HETATM    3  C7  UNK     1      13.532   7.922   9.363  1.00  0.00     0.262 C 
HETATM    4  H7  UNK     1      12.698   9.199   7.962  1.00  0.00     0.169 HD
ENDROOT
BRANCH   2   5
HETATM    5  C2  UNK     1      11.368   7.719   8.315  1.00  0.00     0.130 A 
HETATM    6  C1  UNK     1      10.945   6.783   7.456  1.00  0.00     0.057 A 
HETATM    7  N1  UNK     1       9.600   6.473   7.661  1.00  0.00    -0.289 N 
HETATM    8  C6  UNK     1      11.728   6.143   6.359  1.00  0.00     0.072 C 
HETATM    9  C5  UNK     1       8.685   6.328   6.532  1.00  0.00     0.178 C 
HETATM   10  N2  UNK     1       9.167   7.204   8.784  1.00  0.00    -0.217 N 
HETATM   11  C3  UNK     1      10.211   8.044   9.190  1.00  0.00     0.295 A 
HETATM   12  O1  UNK     1      10.274   8.842  10.111  1.00  0.00    -0.264 OA
BRANCH  10  13
HETATM   13  C4  UNK     1       8.013   6.868   9.535  1.00  0.00     0.060 A 
HETATM   14  C8  UNK     1       7.914   5.616  10.150  1.00  0.00     0.031 A 
HETATM   15  C14 UNK     1       6.777   5.285  10.889  1.00  0.00     0.002 A 
HETATM   16  C18 UNK     1       5.736   6.205  11.016  1.00  0.00     0.000 A 
HETATM   17  C15 UNK     1       5.830   7.454  10.405  1.00  0.00     0.002 A 
HETATM   18  C9  UNK     1       6.966   7.786   9.666  1.00  0.00     0.031 A 
ENDBRANCH  10  13
ENDBRANCH   2   5
BRANCH   3  19
HETATM   19  C10 UNK     1      14.757   8.725   9.286  1.00  0.00     0.108 A 
HETATM   20  C12 UNK     1      14.716   9.793   8.480  1.00  0.00     0.037 A 
HETATM   21  C11 UNK     1      15.883  10.650   8.337  1.00  0.00     0.002 A 
HETATM   22  C13 UNK     1      17.036  10.341   9.051  1.00  0.00     0.089 A 
HETATM   23  C17 UNK     1      15.884  11.773   7.507  1.00  0.00     0.051 A 
HETATM   24  O2  UNK     1      17.074   9.216   9.898  1.00  0.00    -0.274 OA
HETATM   25  C19 UNK     1      18.188  11.120   8.959  1.00  0.00     0.041 A 
HETATM   26  C16 UNK     1      15.973   8.377  10.055  1.00  0.00     0.304 A 
HETATM   27  O5  UNK     1      16.015   7.400  10.794  1.00  0.00    -0.259 OA
HETATM   28  C21 UNK     1      18.181  12.239   8.129  1.00  0.00     0.039 A 
HETATM   29  C20 UNK     1      17.032  12.565   7.405  1.00  0.00     0.069 A 
BRANCH  29  30
HETATM   30  O4  UNK     1      17.030  13.660   6.595  1.00  0.00    -0.356 OA
HETATM   31  C22 UNK     1      18.163  13.844   5.749  1.00  0.00     0.210 C 
ENDBRANCH  29  30
ENDBRANCH   3  19
TORSDOF 4
ENDMDL
MODEL 6
REMARK VINA RESULT:      -8.7      3.951      7.055
REMARK  4 active torsions:
REMARK  status: ('A' for Active; 'I' for Inactive)
REMARK    1  A    between atoms: C20_28  and  O4_4 
REMARK    2  A    between atoms: C4_12  and  N2_7 
REMARK    3  A    between atoms: C2_10  and  N3_8 
REMARK       I    between atoms: C7_15  and  N3_8 
REMARK    4  A    between atoms: C10_18  and  C7_15 
ROOT
HETATM    1  O3  UNK     1      19.695   5.941  32.801  1.00  0.00    -0.267 OA
HETATM    2  N3  UNK     1      17.634   4.976  32.272  1.00  0.00    -0.316 N 
HETATM    3  C7  UNK     1      18.464   5.941  32.817  1.00  0.00     0.262 C 
HETATM    4  H7  UNK     1      16.652   4.979  32.534  1.00  0.00     0.169 HD
ENDROOT
BRANCH   2   5
HETATM    5  C2  UNK     1      18.083   3.875  31.629  1.00  0.00     0.130 A 
HETATM    6  C1  UNK     1      18.554   3.733  30.384  1.00  0.00     0.057 A 
HETATM    7  N1  UNK     1      18.885   2.405  30.113  1.00  0.00    -0.289 N 
HETATM    8  C6  UNK     1      18.689   4.792  29.342  1.00  0.00     0.072 C 
HETATM    9  C5  UNK     1      18.512   1.785  28.844  1.00  0.00     0.178 C 
HETATM   10  N2  UNK     1      18.689   1.673  31.300  1.00  0.00    -0.217 N 
HETATM   11  C3  UNK     1      18.129   2.528  32.256  1.00  0.00     0.295 A 
HETATM   12  O1  UNK     1      17.799   2.318  33.412  1.00  0.00    -0.264 OA
BRANCH  10  13
HETATM   13  C4  UNK     1      19.280   0.408  31.541  1.00  0.00     0.060 A 
HETATM   14  C8  UNK     1      18.760  -0.435  32.527  1.00  0.00     0.031 A 
HETATM   15  C14 UNK     1      19.342  -1.681  32.766  1.00  0.00     0.002 A 
HETATM   16  C18 UNK     1      20.447  -2.089  32.018  1.00  0.00     0.000 A 
HETATM   17  C15 UNK     1      20.970  -1.252  31.033  1.00  0.00     0.002 A 
HETATM   18  C9  UNK     1      20.388  -0.006  30.795  1.00  0.00     0.031 A 
ENDBRANCH  10  13
ENDBRANCH   2   5
BRANCH   3  19
HETATM   19  C10 UNK     1      17.723   7.033  33.459  1.00  0.00     0.108 A 
HETATM   20  C12 UNK     1      16.611   7.441  32.835  1.00  0.00     0.037 A 
HETATM   21  C11 UNK     1      15.810   8.518  33.393  1.00  0.00     0.002 A 
HETATM   22  C13 UNK     1      16.218   9.114  34.582  1.00  0.00     0.089 A 
HETATM   23  C17 UNK     1      14.643   8.976  32.775  1.00  0.00     0.051 A 
HETATM   24  O2  UNK     1      17.388   8.680  35.235  1.00  0.00    -0.274 OA
HETATM   25  C19 UNK     1      15.495  10.151  35.170  1.00  0.00     0.041 A 
HETATM   26  C16 UNK     1      18.176   7.652  34.725  1.00  0.00     0.304 A 
HETATM   27  O5  UNK     1      19.194   7.281  35.299  1.00  0.00    -0.259 OA
HETATM   28  C21 UNK     1      14.334  10.601  34.548  1.00  0.00     0.039 A 
HETATM   29  C20 UNK     1      13.908  10.015  33.353  1.00  0.00     0.069 A 
BRANCH  29  30
HETATM   30  O4  UNK     1      12.770  10.458  32.749  1.00  0.00    -0.356 OA
HETATM   31  C22 UNK     1      12.374  11.802  33.018  1.00  0.00     0.210 C 
ENDBRANCH  29  30
ENDBRANCH   3  19
TORSDOF 4
ENDMDL
MODEL 7
REMARK VINA RESULT:      -8.4     12.349     14.678
REMARK  4 active torsions:
REMARK  status: ('A' for Active; 'I' for Inactive)
REMARK    1  A    between atoms: C20_28  and  O4_4 
REMARK    2  A    between atoms: C4_12  and  N2_7 
REMARK    3  A    between atoms: C2_10  and  N3_8 
REMARK       I    between atoms: C7_15  and  N3_8 
REMARK    4  A    between atoms: C10_18  and  C7_15 
ROOT
HETATM    1  O3  UNK     1      28.854  -6.406  34.781  1.00  0.00    -0.267 OA
HETATM    2  N3  UNK     1      29.699  -7.840  36.421  1.00  0.00    -0.316 N 
HETATM    3  C7  UNK     1      29.792  -6.918  35.391  1.00  0.00     0.262 C 
HETATM    4  H7  UNK     1      30.538  -8.344  36.695  1.00  0.00     0.169 HD
ENDROOT
BRANCH   2   5
HETATM    5  C2  UNK     1      28.528  -8.308  36.905  1.00  0.00     0.130 A 
HETATM    6  C1  UNK     1      27.832  -7.940  37.988  1.00  0.00     0.057 A 
HETATM    7  N1  UNK     1      26.679  -8.712  38.138  1.00  0.00    -0.289 N 
HETATM    8  C6  UNK     1      28.196  -6.892  38.984  1.00  0.00     0.072 C 
HETATM    9  C5  UNK     1      26.294  -9.235  39.447  1.00  0.00     0.178 C 
HETATM   10  N2  UNK     1      26.600  -9.570  37.025  1.00  0.00    -0.217 N 
HETATM   11  C3  UNK     1      27.760  -9.404  36.259  1.00  0.00     0.295 A 
HETATM   12  O1  UNK     1      28.108  -9.941  35.220  1.00  0.00    -0.264 OA
BRANCH  10  13
HETATM   13  C4  UNK     1      25.401 -10.206  36.615  1.00  0.00     0.060 A 
HETATM   14  C8  UNK     1      25.414 -11.549  36.226  1.00  0.00     0.031 A 
HETATM   15  C14 UNK     1      24.235 -12.175  35.823  1.00  0.00     0.002 A 
HETATM   16  C18 UNK     1      23.036 -11.461  35.807  1.00  0.00     0.000 A 
HETATM   17  C15 UNK     1      23.017 -10.121  36.193  1.00  0.00     0.002 A 
HETATM   18  C9  UNK     1      24.197  -9.495  36.597  1.00  0.00     0.031 A 
ENDBRANCH  10  13
ENDBRANCH   2   5
BRANCH   3  19
HETATM   19  C10 UNK     1      31.179  -6.577  35.056  1.00  0.00     0.108 A 
HETATM   20  C12 UNK     1      31.659  -7.093  33.918  1.00  0.00     0.037 A 
HETATM   21  C11 UNK     1      33.024  -6.812  33.503  1.00  0.00     0.002 A 
HETATM   22  C13 UNK     1      33.818  -6.000  34.306  1.00  0.00     0.089 A 
HETATM   23  C17 UNK     1      33.565  -7.330  32.324  1.00  0.00     0.051 A 
HETATM   24  O2  UNK     1      33.308  -5.459  35.503  1.00  0.00    -0.274 OA
HETATM   25  C19 UNK     1      35.134  -5.691  33.965  1.00  0.00     0.041 A 
HETATM   26  C16 UNK     1      32.006  -5.710  35.926  1.00  0.00     0.304 A 
HETATM   27  O5  UNK     1      31.571  -5.236  36.970  1.00  0.00    -0.259 OA
HETATM   28  C21 UNK     1      35.666  -6.212  32.789  1.00  0.00     0.039 A 
HETATM   29  C20 UNK     1      34.883  -7.029  31.969  1.00  0.00     0.069 A 
BRANCH  29  30
HETATM   30  O4  UNK     1      35.408  -7.535  30.818  1.00  0.00    -0.356 OA
HETATM   31  C22 UNK     1      34.951  -6.967  29.592  1.00  0.00     0.210 C 
ENDBRANCH  29  30
ENDBRANCH   3  19
TORSDOF 4
ENDMDL
MODEL 8
REMARK VINA RESULT:      -8.4      6.674     10.588
REMARK  4 active torsions:
REMARK  status: ('A' for Active; 'I' for Inactive)
REMARK    1  A    between atoms: C20_28  and  O4_4 
REMARK    2  A    between atoms: C4_12  and  N2_7 
REMARK    3  A    between atoms: C2_10  and  N3_8 
REMARK       I    between atoms: C7_15  and  N3_8 
REMARK    4  A    between atoms: C10_18  and  C7_15 
ROOT
HETATM    1  O3  UNK     1      15.221   8.260  34.216  1.00  0.00    -0.267 OA
HETATM    2  N3  UNK     1      16.994   9.329  33.133  1.00  0.00    -0.316 N 
HETATM    3  C7  UNK     1      15.763   9.268  33.764  1.00  0.00     0.262 C 
HETATM    4  H7  UNK     1      17.233  10.172  32.619  1.00  0.00     0.169 HD
ENDROOT
BRANCH   2   5
HETATM    5  C2  UNK     1      17.785   8.253  32.927  1.00  0.00     0.130 A 
HETATM    6  C1  UNK     1      18.844   7.813  33.618  1.00  0.00     0.057 A 
HETATM    7  N1  UNK     1      19.392   6.669  33.039  1.00  0.00    -0.289 N 
HETATM    8  C6  UNK     1      19.456   8.437  34.828  1.00  0.00     0.072 C 
HETATM    9  C5  UNK     1      20.838   6.524  32.890  1.00  0.00     0.178 C 
HETATM   10  N2  UNK     1      18.569   6.312  31.953  1.00  0.00    -0.217 N 
HETATM   11  C3  UNK     1      17.591   7.302  31.801  1.00  0.00     0.295 A 
HETATM   12  O1  UNK     1      16.678   7.398  30.996  1.00  0.00    -0.264 OA
BRANCH  10  13
HETATM   13  C4  UNK     1      18.558   5.018  31.376  1.00  0.00     0.060 A 
HETATM   14  C8  UNK     1      18.898   4.846  30.030  1.00  0.00     0.031 A 
HETATM   15  C14 UNK     1      18.887   3.572  29.461  1.00  0.00     0.002 A 
HETATM   16  C18 UNK     1      18.538   2.465  30.236  1.00  0.00     0.000 A 
HETATM   17  C15 UNK     1      18.199   2.631  31.578  1.00  0.00     0.002 A 
HETATM   18  C9  UNK     1      18.209   3.905  32.147  1.00  0.00     0.031 A 
ENDBRANCH  10  13
ENDBRANCH   2   5
BRANCH   3  19
HETATM   19  C10 UNK     1      15.108  10.578  33.859  1.00  0.00     0.108 A 
HETATM   20  C12 UNK     1      13.833  10.634  33.457  1.00  0.00     0.037 A 
HETATM   21  C11 UNK     1      13.100  11.889  33.513  1.00  0.00     0.002 A 
HETATM   22  C13 UNK     1      13.745  13.025  33.990  1.00  0.00     0.089 A 
HETATM   23  C17 UNK     1      11.768  11.992  33.104  1.00  0.00     0.051 A 
HETATM   24  O2  UNK     1      15.088  12.961  34.412  1.00  0.00    -0.274 OA
HETATM   25  C19 UNK     1      13.100  14.258  34.069  1.00  0.00     0.041 A 
HETATM   26  C16 UNK     1      15.815  11.774  34.370  1.00  0.00     0.304 A 
HETATM   27  O5  UNK     1      16.984  11.728  34.738  1.00  0.00    -0.259 OA
HETATM   28  C21 UNK     1      11.773  14.352  33.659  1.00  0.00     0.039 A 
HETATM   29  C20 UNK     1      11.107  13.222  33.178  1.00  0.00     0.069 A 
BRANCH  29  30
HETATM   30  O4  UNK     1       9.809  13.319  32.778  1.00  0.00    -0.356 OA
HETATM   31  C22 UNK     1       9.319  14.624  32.477  1.00  0.00     0.210 C 
ENDBRANCH  29  30
ENDBRANCH   3  19
TORSDOF 4
ENDMDL
MODEL 9
REMARK VINA RESULT:      -8.3     25.259     27.293
REMARK  4 active torsions:
REMARK  status: ('A' for Active; 'I' for Inactive)
REMARK    1  A    between atoms: C20_28  and  O4_4 
REMARK    2  A    between atoms: C4_12  and  N2_7 
REMARK    3  A    between atoms: C2_10  and  N3_8 
REMARK       I    between atoms: C7_15  and  N3_8 
REMARK    4  A    between atoms: C10_18  and  C7_15 
ROOT
HETATM    1  O3  UNK     1      19.294  11.052   7.885  1.00  0.00    -0.267 OA
HETATM    2  N3  UNK     1      19.006  12.169   9.917  1.00  0.00    -0.316 N 
HETATM    3  C7  UNK     1      18.627  11.332   8.881  1.00  0.00     0.262 C 
HETATM    4  H7  UNK     1      18.293  12.487  10.568  1.00  0.00     0.169 HD
ENDROOT
BRANCH   2   5
HETATM    5  C2  UNK     1      20.197  12.806   9.970  1.00  0.00     0.130 A 
HETATM    6  C1  UNK     1      20.570  13.985   9.458  1.00  0.00     0.057 A 
HETATM    7  N1  UNK     1      21.913  14.254   9.724  1.00  0.00    -0.289 N 
HETATM    8  C6  UNK     1      19.739  14.923   8.648  1.00  0.00     0.072 C 
HETATM    9  C5  UNK     1      22.789  14.790   8.686  1.00  0.00     0.178 C 
HETATM   10  N2  UNK     1      22.397  13.210  10.536  1.00  0.00    -0.217 N 
HETATM   11  C3  UNK     1      21.387  12.250  10.665  1.00  0.00     0.295 A 
HETATM   12  O1  UNK     1      21.371  11.193  11.275  1.00  0.00    -0.264 OA
BRANCH  10  13
HETATM   13  C4  UNK     1      23.566  13.320  11.331  1.00  0.00     0.060 A 
HETATM   14  C8  UNK     1      23.508  13.936  12.585  1.00  0.00     0.031 A 
HETATM   15  C14 UNK     1      24.658  14.044  13.367  1.00  0.00     0.002 A 
HETATM   16  C18 UNK     1      25.870  13.535  12.900  1.00  0.00     0.000 A 
HETATM   17  C15 UNK     1      25.933  12.919  11.651  1.00  0.00     0.002 A 
HETATM   18  C9  UNK     1      24.783  12.811  10.868  1.00  0.00     0.031 A 
ENDBRANCH  10  13
ENDBRANCH   2   5
BRANCH   3  19
HETATM   19  C10 UNK     1      17.285  10.768   9.067  1.00  0.00     0.108 A 
HETATM   20  C12 UNK     1      17.229   9.480   9.427  1.00  0.00     0.037 A 
HETATM   21  C11 UNK     1      15.943   8.832   9.634  1.00  0.00     0.002 A 
HETATM   22  C13 UNK     1      14.779   9.572   9.452  1.00  0.00     0.089 A 
HETATM   23  C17 UNK     1      15.838   7.490  10.010  1.00  0.00     0.051 A 
HETATM   24  O2  UNK     1      14.845  10.927   9.074  1.00  0.00    -0.274 OA
HETATM   25  C19 UNK     1      13.516   9.011   9.635  1.00  0.00     0.041 A 
HETATM   26  C16 UNK     1      16.060  11.575   8.868  1.00  0.00     0.304 A 
HETATM   27  O5  UNK     1      16.107  12.755   8.538  1.00  0.00    -0.259 OA
HETATM   28  C21 UNK     1      13.420   7.673  10.009  1.00  0.00     0.039 A 
HETATM   29  C20 UNK     1      14.578   6.914  10.197  1.00  0.00     0.069 A 
BRANCH  29  30
HETATM   30  O4  UNK     1      14.479   5.606  10.564  1.00  0.00    -0.356 OA
HETATM   31  C22 UNK     1      15.253   4.664   9.824  1.00  0.00     0.210 C 
ENDBRANCH  29  30
ENDBRANCH   3  19
TORSDOF 4
ENDMDL
MODEL 10
REMARK VINA RESULT:      -8.3     25.637     28.885
REMARK  4 active torsions:
REMARK  status: ('A' for Active; 'I' for Inactive)
REMARK    1  A    between atoms: C20_28  and  O4_4 
REMARK    2  A    between atoms: C4_12  and  N2_7 
REMARK    3  A    between atoms: C2_10  and  N3_8 
REMARK       I    between atoms: C7_15  and  N3_8 
REMARK    4  A    between atoms: C10_18  and  C7_15 
ROOT
HETATM    1  O3  UNK     1      16.449  11.066  10.470  1.00  0.00    -0.267 OA
HETATM    2  N3  UNK     1      17.942  10.409   8.797  1.00  0.00    -0.316 N 
HETATM    3  C7  UNK     1      16.888  10.233   9.678  1.00  0.00     0.262 C 
HETATM    4  H7  UNK     1      18.344   9.588   8.353  1.00  0.00     0.169 HD
ENDROOT
BRANCH   2   5
HETATM    5  C2  UNK     1      18.646  11.557   8.690  1.00  0.00     0.130 A 
HETATM    6  C1  UNK     1      19.619  12.051   9.466  1.00  0.00     0.057 A 
HETATM    7  N1  UNK     1      20.057  13.293   9.007  1.00  0.00    -0.289 N 
HETATM    8  C6  UNK     1      20.181  11.443  10.708  1.00  0.00     0.072 C 
HETATM    9  C5  UNK     1      20.290  14.395   9.936  1.00  0.00     0.178 C 
HETATM   10  N2  UNK     1      19.371  13.563   7.807  1.00  0.00    -0.217 N 
HETATM   11  C3  UNK     1      18.434  12.544   7.599  1.00  0.00     0.295 A 
HETATM   12  O1  UNK     1      17.633  12.376   6.693  1.00  0.00    -0.264 OA
BRANCH  10  13
HETATM   13  C4  UNK     1      19.816  14.509   6.850  1.00  0.00     0.060 A 
HETATM   14  C8  UNK     1      19.101  15.693   6.646  1.00  0.00     0.031 A 
HETATM   15  C14 UNK     1      19.539  16.625   5.705  1.00  0.00     0.002 A 
HETATM   16  C18 UNK     1      20.695  16.377   4.964  1.00  0.00     0.000 A 
HETATM   17  C15 UNK     1      21.412  15.198   5.163  1.00  0.00     0.002 A 
HETATM   18  C9  UNK     1      20.974  14.266   6.105  1.00  0.00     0.031 A 
ENDBRANCH  10  13
ENDBRANCH   2   5
BRANCH   3  19
HETATM   19  C10 UNK     1      16.295   8.893   9.595  1.00  0.00     0.108 A 
HETATM   20  C12 UNK     1      15.071   8.819   9.059  1.00  0.00     0.037 A 
HETATM   21  C11 UNK     1      14.400   7.535   8.935  1.00  0.00     0.002 A 
HETATM   22  C13 UNK     1      15.052   6.389   9.381  1.00  0.00     0.089 A 
HETATM   23  C17 UNK     1      13.123   7.412   8.383  1.00  0.00     0.051 A 
HETATM   24  O2  UNK     1      16.341   6.473   9.944  1.00  0.00    -0.274 OA
HETATM   25  C19 UNK     1      14.465   5.128   9.291  1.00  0.00     0.041 A 
HETATM   26  C16 UNK     1      17.008   7.688  10.076  1.00  0.00     0.304 A 
HETATM   27  O5  UNK     1      18.129   7.751  10.568  1.00  0.00    -0.259 OA
HETATM   28  C21 UNK     1      13.191   5.014   8.740  1.00  0.00     0.039 A 
HETATM   29  C20 UNK     1      12.521   6.153   8.286  1.00  0.00     0.069 A 
BRANCH  29  30
HETATM   30  O4  UNK     1      11.276   6.037   7.746  1.00  0.00    -0.356 OA
HETATM   31  C22 UNK     1      11.160   6.227   6.337  1.00  0.00     0.210 C 
ENDBRANCH  29  30
ENDBRANCH   3  19
TORSDOF 4
ENDMDL
