MODEL 1
REMARK VINA RESULT:      -7.4      0.000      0.000
REMARK  5 active torsions:
REMARK  status: ('A' for Active; 'I' for Inactive)
REMARK    1  A    between atoms: C15_20  and  O2_2 
REMARK    2  A    between atoms: C18_23  and  O4_4 
REMARK    3  A    between atoms: C16_21  and  O5_5 
REMARK    4  A    between atoms: C1_6  and  C5_10 
REMARK    5  A    between atoms: C2_7  and  C4_9 
ROOT
HETATM    1  O1  UNK     1      31.953  -3.966  36.292  1.00  0.00    -0.274 OA
HETATM    2  O3  UNK     1      33.216  -4.090  34.406  1.00  0.00    -0.259 OA
HETATM    3  C1  UNK     1      30.690  -6.398  35.525  1.00  0.00     0.004 A 
HETATM    4  C2  UNK     1      31.658  -5.855  34.745  1.00  0.00     0.062 A 
HETATM    5  C3  UNK     1      30.315  -5.697  36.771  1.00  0.00     0.010 A 
HETATM    6  C6  UNK     1      30.955  -4.511  37.112  1.00  0.00     0.093 A 
HETATM    7  C7  UNK     1      32.342  -4.581  35.115  1.00  0.00     0.300 A 
HETATM    8  C8  UNK     1      29.328  -6.178  37.645  1.00  0.00     0.018 A 
HETATM    9  C10 UNK     1      30.645  -3.804  38.276  1.00  0.00     0.074 A 
HETATM   10  C14 UNK     1      29.005  -5.481  38.814  1.00  0.00     0.037 A 
HETATM   11  C16 UNK     1      29.663  -4.294  39.130  1.00  0.00     0.068 A 
ENDROOT
BRANCH   4  12
HETATM   12  C4  UNK     1      32.071  -6.504  33.498  1.00  0.00    -0.016 A 
HETATM   13  C11 UNK     1      33.209  -7.302  33.483  1.00  0.00     0.015 A 
HETATM   14  C17 UNK     1      33.602  -7.920  32.296  1.00  0.00     0.040 A 
HETATM   15  C18 UNK     1      32.855  -7.735  31.133  1.00  0.00     0.101 A 
HETATM   16  C15 UNK     1      31.714  -6.932  31.156  1.00  0.00     0.102 A 
HETATM   17  C9  UNK     1      31.321  -6.315  32.343  1.00  0.00     0.052 A 
BRANCH  15  18
HETATM   18  O4  UNK     1      33.250  -8.343  29.979  1.00  0.00    -0.353 OA
HETATM   19  C23 UNK     1      34.279  -7.703  29.228  1.00  0.00     0.210 C 
ENDBRANCH  15  18
BRANCH  16  20
HETATM   20  O2  UNK     1      30.977  -6.744  30.026  1.00  0.00    -0.353 OA
HETATM   21  C22 UNK     1      29.640  -7.242  30.034  1.00  0.00     0.210 C 
ENDBRANCH  16  20
ENDBRANCH   4  12
BRANCH   3  22
HETATM   22  C5  UNK     1      30.068  -7.653  35.085  1.00  0.00    -0.024 A 
HETATM   23  C12 UNK     1      30.639  -8.864  35.451  1.00  0.00     0.012 A 
HETATM   24  C19 UNK     1      30.049 -10.057  35.033  1.00  0.00     0.001 A 
HETATM   25  C21 UNK     1      28.893 -10.027  34.253  1.00  0.00     0.000 A 
HETATM   26  C20 UNK     1      28.328  -8.804  33.892  1.00  0.00     0.001 A 
HETATM   27  C13 UNK     1      28.917  -7.611  34.310  1.00  0.00     0.012 A 
ENDBRANCH   3  22
BRANCH  11  28
HETATM   28  O5  UNK     1      29.348  -3.620  40.269  1.00  0.00    -0.361 OA
HETATM   29  H12 UNK     1      30.153  -3.207  40.623  1.00  0.00     0.217 HD
ENDBRANCH  11  28
TORSDOF 5
ENDMDL
MODEL 2
REMARK VINA RESULT:      -7.4      2.427      4.085
REMARK  5 active torsions:
REMARK  status: ('A' for Active; 'I' for Inactive)
REMARK    1  A    between atoms: C15_20  and  O2_2 
REMARK    2  A    between atoms: C18_23  and  O4_4 
REMARK    3  A    between atoms: C16_21  and  O5_5 
REMARK    4  A    between atoms: C1_6  and  C5_10 
REMARK    5  A    between atoms: C2_7  and  C4_9 
ROOT
HETATM    1  O1  UNK     1      27.937  -7.161  37.380  1.00  0.00    -0.274 OA
HETATM    2  O3  UNK     1      27.209  -8.868  36.068  1.00  0.00    -0.259 OA
HETATM    3  C1  UNK     1      30.397  -7.202  35.950  1.00  0.00     0.004 A 
HETATM    4  C2  UNK     1      29.407  -8.071  35.630  1.00  0.00     0.062 A 
HETATM    5  C3  UNK     1      30.164  -6.244  37.052  1.00  0.00     0.010 A 
HETATM    6  C6  UNK     1      28.949  -6.255  37.727  1.00  0.00     0.093 A 
HETATM    7  C7  UNK     1      28.104  -8.080  36.358  1.00  0.00     0.300 A 
HETATM    8  C8  UNK     1      31.125  -5.305  37.458  1.00  0.00     0.018 A 
HETATM    9  C10 UNK     1      28.670  -5.375  38.775  1.00  0.00     0.074 A 
HETATM   10  C14 UNK     1      30.861  -4.418  38.506  1.00  0.00     0.037 A 
HETATM   11  C16 UNK     1      29.634  -4.452  39.165  1.00  0.00     0.068 A 
ENDROOT
BRANCH   4  12
HETATM   12  C4  UNK     1      29.580  -9.043  34.548  1.00  0.00    -0.016 A 
HETATM   13  C11 UNK     1      30.192 -10.263  34.811  1.00  0.00     0.015 A 
HETATM   14  C17 UNK     1      30.357 -11.188  33.781  1.00  0.00     0.040 A 
HETATM   15  C18 UNK     1      29.910 -10.888  32.495  1.00  0.00     0.101 A 
HETATM   16  C15 UNK     1      29.297  -9.661  32.239  1.00  0.00     0.102 A 
HETATM   17  C9  UNK     1      29.132  -8.736  33.269  1.00  0.00     0.052 A 
BRANCH  15  18
HETATM   18  O4  UNK     1      30.078 -11.800  31.497  1.00  0.00    -0.353 OA
HETATM   19  C23 UNK     1      30.631 -13.063  31.860  1.00  0.00     0.210 C 
ENDBRANCH  15  18
BRANCH  16  20
HETATM   20  O2  UNK     1      28.856  -9.356  30.986  1.00  0.00    -0.353 OA
HETATM   21  C22 UNK     1      27.770  -8.437  30.887  1.00  0.00     0.210 C 
ENDBRANCH  16  20
ENDBRANCH   4  12
BRANCH   3  22
HETATM   22  C5  UNK     1      31.648  -7.262  35.183  1.00  0.00    -0.024 A 
HETATM   23  C12 UNK     1      31.764  -6.536  34.007  1.00  0.00     0.012 A 
HETATM   24  C19 UNK     1      32.952  -6.594  33.277  1.00  0.00     0.001 A 
HETATM   25  C21 UNK     1      34.012  -7.378  33.733  1.00  0.00     0.000 A 
HETATM   26  C20 UNK     1      33.884  -8.103  34.917  1.00  0.00     0.001 A 
HETATM   27  C13 UNK     1      32.697  -8.045  35.646  1.00  0.00     0.012 A 
ENDBRANCH   3  22
BRANCH  11  28
HETATM   28  O5  UNK     1      29.380  -3.586  40.183  1.00  0.00    -0.361 OA
HETATM   29  H12 UNK     1      28.681  -2.971  39.906  1.00  0.00     0.217 HD
ENDBRANCH  11  28
TORSDOF 5
ENDMDL
MODEL 3
REMARK VINA RESULT:      -7.4      1.388      2.584
REMARK  5 active torsions:
REMARK  status: ('A' for Active; 'I' for Inactive)
REMARK    1  A    between atoms: C15_20  and  O2_2 
REMARK    2  A    between atoms: C18_23  and  O4_4 
REMARK    3  A    between atoms: C16_21  and  O5_5 
REMARK    4  A    between atoms: C1_6  and  C5_10 
REMARK    5  A    between atoms: C2_7  and  C4_9 
ROOT
HETATM    1  O1  UNK     1      32.140  -3.870  36.338  1.00  0.00    -0.274 OA
HETATM    2  O3  UNK     1      33.530  -3.927  34.540  1.00  0.00    -0.259 OA
HETATM    3  C1  UNK     1      31.491  -6.595  35.836  1.00  0.00     0.004 A 
HETATM    4  C2  UNK     1      32.371  -5.944  35.035  1.00  0.00     0.062 A 
HETATM    5  C3  UNK     1      30.886  -5.856  36.964  1.00  0.00     0.010 A 
HETATM    6  C6  UNK     1      31.228  -4.526  37.177  1.00  0.00     0.093 A 
HETATM    7  C7  UNK     1      32.735  -4.515  35.267  1.00  0.00     0.300 A 
HETATM    8  C8  UNK     1      29.967  -6.440  37.849  1.00  0.00     0.018 A 
HETATM    9  C10 UNK     1      30.691  -3.775  38.226  1.00  0.00     0.074 A 
HETATM   10  C14 UNK     1      29.419  -5.702  38.904  1.00  0.00     0.037 A 
HETATM   11  C16 UNK     1      29.781  -4.370  39.093  1.00  0.00     0.068 A 
ENDROOT
BRANCH   4  12
HETATM   12  C4  UNK     1      33.002  -6.625  33.902  1.00  0.00    -0.016 A 
HETATM   13  C11 UNK     1      32.291  -6.793  32.719  1.00  0.00     0.015 A 
HETATM   14  C17 UNK     1      32.892  -7.441  31.641  1.00  0.00     0.040 A 
HETATM   15  C18 UNK     1      34.198  -7.916  31.752  1.00  0.00     0.101 A 
HETATM   16  C15 UNK     1      34.905  -7.743  32.942  1.00  0.00     0.102 A 
HETATM   17  C9  UNK     1      34.304  -7.095  34.021  1.00  0.00     0.052 A 
BRANCH  15  18
HETATM   18  O4  UNK     1      34.775  -8.549  30.690  1.00  0.00    -0.353 OA
HETATM   19  C23 UNK     1      35.037  -7.760  29.531  1.00  0.00     0.210 C 
ENDBRANCH  15  18
BRANCH  16  20
HETATM   20  O2  UNK     1      36.182  -8.203  33.063  1.00  0.00    -0.353 OA
HETATM   21  C22 UNK     1      36.971  -7.656  34.117  1.00  0.00     0.210 C 
ENDBRANCH  16  20
ENDBRANCH   4  12
BRANCH   3  22
HETATM   22  C5  UNK     1      31.189  -8.000  35.536  1.00  0.00    -0.024 A 
HETATM   23  C12 UNK     1      30.078  -8.311  34.766  1.00  0.00     0.012 A 
HETATM   24  C19 UNK     1      29.789  -9.646  34.481  1.00  0.00     0.001 A 
HETATM   25  C21 UNK     1      30.616 -10.657  34.971  1.00  0.00     0.000 A 
HETATM   26  C20 UNK     1      31.730 -10.333  35.744  1.00  0.00     0.001 A 
HETATM   27  C13 UNK     1      32.019  -8.999  36.028  1.00  0.00     0.012 A 
ENDBRANCH   3  22
BRANCH  11  28
HETATM   28  O5  UNK     1      29.247  -3.656  40.120  1.00  0.00    -0.361 OA
HETATM   29  H12 UNK     1      28.289  -3.819  40.152  1.00  0.00     0.217 HD
ENDBRANCH  11  28
TORSDOF 5
ENDMDL
MODEL 4
REMARK VINA RESULT:      -7.3      2.311      3.624
REMARK  5 active torsions:
REMARK  status: ('A' for Active; 'I' for Inactive)
REMARK    1  A    between atoms: C15_20  and  O2_2 
REMARK    2  A    between atoms: C18_23  and  O4_4 
REMARK    3  A    between atoms: C16_21  and  O5_5 
REMARK    4  A    between atoms: C1_6  and  C5_10 
REMARK    5  A    between atoms: C2_7  and  C4_9 
ROOT
HETATM    1  O1  UNK     1      33.761  -8.104  35.565  1.00  0.00    -0.274 OA
HETATM    2  O3  UNK     1      34.235  -9.571  33.894  1.00  0.00    -0.259 OA
HETATM    3  C1  UNK     1      31.547  -7.181  34.034  1.00  0.00     0.004 A 
HETATM    4  C2  UNK     1      32.343  -8.169  33.556  1.00  0.00     0.062 A 
HETATM    5  C3  UNK     1      31.860  -6.604  35.359  1.00  0.00     0.010 A 
HETATM    6  C6  UNK     1      32.950  -7.082  36.077  1.00  0.00     0.093 A 
HETATM    7  C7  UNK     1      33.514  -8.678  34.329  1.00  0.00     0.300 A 
HETATM    8  C8  UNK     1      31.097  -5.580  35.941  1.00  0.00     0.018 A 
HETATM    9  C10 UNK     1      33.296  -6.578  37.333  1.00  0.00     0.074 A 
HETATM   10  C14 UNK     1      31.430  -5.064  37.198  1.00  0.00     0.037 A 
HETATM   11  C16 UNK     1      32.529  -5.562  37.894  1.00  0.00     0.068 A 
ENDROOT
BRANCH   4  12
HETATM   12  C4  UNK     1      32.083  -8.778  32.249  1.00  0.00    -0.016 A 
HETATM   13  C11 UNK     1      31.117  -9.770  32.134  1.00  0.00     0.015 A 
HETATM   14  C17 UNK     1      30.869 -10.350  30.890  1.00  0.00     0.040 A 
HETATM   15  C18 UNK     1      31.589  -9.934  29.771  1.00  0.00     0.101 A 
HETATM   16  C15 UNK     1      32.558  -8.938  29.895  1.00  0.00     0.102 A 
HETATM   17  C9  UNK     1      32.805  -8.358  31.139  1.00  0.00     0.052 A 
BRANCH  15  18
HETATM   18  O4  UNK     1      31.338 -10.509  28.561  1.00  0.00    -0.353 OA
HETATM   19  C23 UNK     1      30.188 -10.052  27.852  1.00  0.00     0.210 C 
ENDBRANCH  15  18
BRANCH  16  20
HETATM   20  O2  UNK     1      33.268  -8.523  28.809  1.00  0.00    -0.353 OA
HETATM   21  C22 UNK     1      34.322  -7.590  29.041  1.00  0.00     0.210 C 
ENDBRANCH  16  20
ENDBRANCH   4  12
BRANCH   3  22
HETATM   22  C5  UNK     1      30.417  -6.739  33.207  1.00  0.00    -0.024 A 
HETATM   23  C12 UNK     1      29.173  -7.326  33.380  1.00  0.00     0.012 A 
HETATM   24  C19 UNK     1      28.099  -6.907  32.593  1.00  0.00     0.001 A 
HETATM   25  C21 UNK     1      28.282  -5.903  31.642  1.00  0.00     0.000 A 
HETATM   26  C20 UNK     1      29.538  -5.319  31.478  1.00  0.00     0.001 A 
HETATM   27  C13 UNK     1      30.611  -5.738  32.264  1.00  0.00     0.012 A 
ENDBRANCH   3  22
BRANCH  11  28
HETATM   28  O5  UNK     1      32.850  -5.059  39.116  1.00  0.00    -0.361 OA
HETATM   29  H12 UNK     1      33.382  -5.715  39.597  1.00  0.00     0.217 HD
ENDBRANCH  11  28
TORSDOF 5
ENDMDL
MODEL 5
REMARK VINA RESULT:      -7.3      2.955      4.663
REMARK  5 active torsions:
REMARK  status: ('A' for Active; 'I' for Inactive)
REMARK    1  A    between atoms: C15_20  and  O2_2 
REMARK    2  A    between atoms: C18_23  and  O4_4 
REMARK    3  A    between atoms: C16_21  and  O5_5 
REMARK    4  A    between atoms: C1_6  and  C5_10 
REMARK    5  A    between atoms: C2_7  and  C4_9 
ROOT
HETATM    1  O1  UNK     1      28.530  -6.134  38.984  1.00  0.00    -0.274 OA
HETATM    2  O3  UNK     1      30.496  -4.996  39.045  1.00  0.00    -0.259 OA
HETATM    3  C1  UNK     1      29.710  -7.935  37.122  1.00  0.00     0.004 A 
HETATM    4  C2  UNK     1      30.429  -6.899  37.620  1.00  0.00     0.062 A 
HETATM    5  C3  UNK     1      28.310  -8.099  37.570  1.00  0.00     0.010 A 
HETATM    6  C6  UNK     1      27.769  -7.199  38.480  1.00  0.00     0.093 A 
HETATM    7  C7  UNK     1      29.844  -5.934  38.597  1.00  0.00     0.300 A 
HETATM    8  C8  UNK     1      27.484  -9.138  37.115  1.00  0.00     0.018 A 
HETATM    9  C10 UNK     1      26.455  -7.303  38.941  1.00  0.00     0.074 A 
HETATM   10  C14 UNK     1      26.165  -9.256  37.565  1.00  0.00     0.037 A 
HETATM   11  C16 UNK     1      25.650  -8.338  38.478  1.00  0.00     0.068 A 
ENDROOT
BRANCH   4  12
HETATM   12  C4  UNK     1      31.820  -6.685  37.212  1.00  0.00    -0.016 A 
HETATM   13  C11 UNK     1      32.846  -7.301  37.920  1.00  0.00     0.015 A 
HETATM   14  C17 UNK     1      34.169  -7.097  37.532  1.00  0.00     0.040 A 
HETATM   15  C18 UNK     1      34.459  -6.279  36.441  1.00  0.00     0.101 A 
HETATM   16  C15 UNK     1      33.423  -5.663  35.736  1.00  0.00     0.102 A 
HETATM   17  C9  UNK     1      32.100  -5.867  36.124  1.00  0.00     0.052 A 
BRANCH  15  18
HETATM   18  O4  UNK     1      35.757  -6.087  36.072  1.00  0.00    -0.353 OA
HETATM   19  C23 UNK     1      36.280  -6.955  35.069  1.00  0.00     0.210 C 
ENDBRANCH  15  18
BRANCH  16  20
HETATM   20  O2  UNK     1      33.693  -4.861  34.668  1.00  0.00    -0.353 OA
HETATM   21  C22 UNK     1      34.045  -3.507  34.948  1.00  0.00     0.210 C 
ENDBRANCH  16  20
ENDBRANCH   4  12
BRANCH   3  22
HETATM   22  C5  UNK     1      30.362  -8.836  36.165  1.00  0.00    -0.024 A 
HETATM   23  C12 UNK     1      31.056  -9.943  36.631  1.00  0.00     0.012 A 
HETATM   24  C19 UNK     1      31.678 -10.799  35.721  1.00  0.00     0.001 A 
HETATM   25  C21 UNK     1      31.598 -10.539  34.353  1.00  0.00     0.000 A 
HETATM   26  C20 UNK     1      30.897  -9.423  33.895  1.00  0.00     0.001 A 
HETATM   27  C13 UNK     1      30.276  -8.567  34.805  1.00  0.00     0.012 A 
ENDBRANCH   3  22
BRANCH  11  28
HETATM   28  O5  UNK     1      24.367  -8.456  38.916  1.00  0.00    -0.361 OA
HETATM   29  H12 UNK     1      24.147  -7.679  39.457  1.00  0.00     0.217 HD
ENDBRANCH  11  28
TORSDOF 5
ENDMDL
MODEL 6
REMARK VINA RESULT:      -7.3      2.158      6.912
REMARK  5 active torsions:
REMARK  status: ('A' for Active; 'I' for Inactive)
REMARK    1  A    between atoms: C15_20  and  O2_2 
REMARK    2  A    between atoms: C18_23  and  O4_4 
REMARK    3  A    between atoms: C16_21  and  O5_5 
REMARK    4  A    between atoms: C1_6  and  C5_10 
REMARK    5  A    between atoms: C2_7  and  C4_9 
ROOT
HETATM    1  O1  UNK     1      34.833  -7.450  33.198  1.00  0.00    -0.274 OA
HETATM    2  O3  UNK     1      34.450  -7.347  35.436  1.00  0.00    -0.259 OA
HETATM    3  C1  UNK     1      32.038  -7.124  32.773  1.00  0.00     0.004 A 
HETATM    4  C2  UNK     1      32.539  -7.151  34.033  1.00  0.00     0.062 A 
HETATM    5  C3  UNK     1      32.977  -7.268  31.640  1.00  0.00     0.010 A 
HETATM    6  C6  UNK     1      34.335  -7.425  31.888  1.00  0.00     0.093 A 
HETATM    7  C7  UNK     1      33.999  -7.321  34.295  1.00  0.00     0.300 A 
HETATM    8  C8  UNK     1      32.558  -7.253  30.301  1.00  0.00     0.018 A 
HETATM    9  C10 UNK     1      35.270  -7.565  30.859  1.00  0.00     0.074 A 
HETATM   10  C14 UNK     1      33.481  -7.392  29.259  1.00  0.00     0.037 A 
HETATM   11  C16 UNK     1      34.838  -7.548  29.538  1.00  0.00     0.068 A 
ENDROOT
BRANCH   4  12
HETATM   12  C4  UNK     1      31.658  -7.015  35.195  1.00  0.00    -0.016 A 
HETATM   13  C11 UNK     1      31.281  -5.748  35.627  1.00  0.00     0.015 A 
HETATM   14  C17 UNK     1      30.442  -5.618  36.733  1.00  0.00     0.040 A 
HETATM   15  C18 UNK     1      29.987  -6.755  37.401  1.00  0.00     0.101 A 
HETATM   16  C15 UNK     1      30.370  -8.022  36.962  1.00  0.00     0.102 A 
HETATM   17  C9  UNK     1      31.209  -8.152  35.855  1.00  0.00     0.052 A 
BRANCH  15  18
HETATM   18  O4  UNK     1      29.168  -6.614  38.481  1.00  0.00    -0.353 OA
HETATM   19  C23 UNK     1      29.021  -5.301  39.017  1.00  0.00     0.210 C 
ENDBRANCH  15  18
BRANCH  16  20
HETATM   20  O2  UNK     1      29.931  -9.140  37.606  1.00  0.00    -0.353 OA
HETATM   21  C22 UNK     1      30.912  -9.923  38.285  1.00  0.00     0.210 C 
ENDBRANCH  16  20
ENDBRANCH   4  12
BRANCH   3  22
HETATM   22  C5  UNK     1      30.590  -6.955  32.606  1.00  0.00    -0.024 A 
HETATM   23  C12 UNK     1      30.065  -5.682  32.434  1.00  0.00     0.012 A 
HETATM   24  C19 UNK     1      28.688  -5.521  32.276  1.00  0.00     0.001 A 
HETATM   25  C21 UNK     1      27.850  -6.635  32.291  1.00  0.00     0.000 A 
HETATM   26  C20 UNK     1      28.388  -7.910  32.464  1.00  0.00     0.001 A 
HETATM   27  C13 UNK     1      29.764  -8.072  32.622  1.00  0.00     0.012 A 
ENDBRANCH   3  22
BRANCH  11  28
HETATM   28  O5  UNK     1      35.733  -7.682  28.523  1.00  0.00    -0.361 OA
HETATM   29  H12 UNK     1      36.379  -6.958  28.575  1.00  0.00     0.217 HD
ENDBRANCH  11  28
TORSDOF 5
ENDMDL
MODEL 7
REMARK VINA RESULT:      -7.3      1.932      6.851
REMARK  5 active torsions:
REMARK  status: ('A' for Active; 'I' for Inactive)
REMARK    1  A    between atoms: C15_20  and  O2_2 
REMARK    2  A    between atoms: C18_23  and  O4_4 
REMARK    3  A    between atoms: C16_21  and  O5_5 
REMARK    4  A    between atoms: C1_6  and  C5_10 
REMARK    5  A    between atoms: C2_7  and  C4_9 
ROOT
HETATM    1  O1  UNK     1      30.042  -6.357  30.146  1.00  0.00    -0.274 OA
HETATM    2  O3  UNK     1      30.016  -4.605  31.593  1.00  0.00    -0.259 OA
HETATM    3  C1  UNK     1      30.747  -8.053  32.319  1.00  0.00     0.004 A 
HETATM    4  C2  UNK     1      30.557  -6.726  32.522  1.00  0.00     0.062 A 
HETATM    5  C3  UNK     1      30.580  -8.587  30.951  1.00  0.00     0.010 A 
HETATM    6  C6  UNK     1      30.235  -7.727  29.915  1.00  0.00     0.093 A 
HETATM    7  C7  UNK     1      30.187  -5.806  31.407  1.00  0.00     0.300 A 
HETATM    8  C8  UNK     1      30.754  -9.943  30.638  1.00  0.00     0.018 A 
HETATM    9  C10 UNK     1      30.062  -8.171  28.602  1.00  0.00     0.074 A 
HETATM   10  C14 UNK     1      30.586 -10.405  29.328  1.00  0.00     0.037 A 
HETATM   11  C16 UNK     1      30.240  -9.519  28.310  1.00  0.00     0.068 A 
ENDROOT
BRANCH   4  12
HETATM   12  C4  UNK     1      30.710  -6.140  33.857  1.00  0.00    -0.016 A 
HETATM   13  C11 UNK     1      29.701  -6.304  34.799  1.00  0.00     0.015 A 
HETATM   14  C17 UNK     1      29.847  -5.747  36.069  1.00  0.00     0.040 A 
HETATM   15  C18 UNK     1      30.998  -5.029  36.387  1.00  0.00     0.101 A 
HETATM   16  C15 UNK     1      32.006  -4.868  35.436  1.00  0.00     0.102 A 
HETATM   17  C9  UNK     1      31.861  -5.426  34.166  1.00  0.00     0.052 A 
BRANCH  15  18
HETATM   18  O4  UNK     1      31.128  -4.488  37.632  1.00  0.00    -0.353 OA
HETATM   19  C23 UNK     1      29.926  -4.211  38.347  1.00  0.00     0.210 C 
ENDBRANCH  15  18
BRANCH  16  20
HETATM   20  O2  UNK     1      33.136  -4.168  35.735  1.00  0.00    -0.353 OA
HETATM   21  C22 UNK     1      34.254  -4.340  34.867  1.00  0.00     0.210 C 
ENDBRANCH  16  20
ENDBRANCH   4  12
BRANCH   3  22
HETATM   22  C5  UNK     1      31.111  -8.886  33.472  1.00  0.00    -0.024 A 
HETATM   23  C12 UNK     1      32.435  -8.948  33.881  1.00  0.00     0.012 A 
HETATM   24  C19 UNK     1      32.781  -9.740  34.976  1.00  0.00     0.001 A 
HETATM   25  C21 UNK     1      31.798 -10.464  35.651  1.00  0.00     0.000 A 
HETATM   26  C20 UNK     1      30.470 -10.394  35.231  1.00  0.00     0.001 A 
HETATM   27  C13 UNK     1      30.124  -9.602  34.137  1.00  0.00     0.012 A 
ENDBRANCH   3  22
BRANCH  11  28
HETATM   28  O5  UNK     1      30.075  -9.971  27.038  1.00  0.00    -0.361 OA
HETATM   29  H12 UNK     1      30.158 -10.940  27.034  1.00  0.00     0.217 HD
ENDBRANCH  11  28
TORSDOF 5
ENDMDL
MODEL 8
REMARK VINA RESULT:      -7.3      2.042      6.838
REMARK  5 active torsions:
REMARK  status: ('A' for Active; 'I' for Inactive)
REMARK    1  A    between atoms: C15_20  and  O2_2 
REMARK    2  A    between atoms: C18_23  and  O4_4 
REMARK    3  A    between atoms: C16_21  and  O5_5 
REMARK    4  A    between atoms: C1_6  and  C5_10 
REMARK    5  A    between atoms: C2_7  and  C4_9 
ROOT
HETATM    1  O1  UNK     1      34.538  -7.723  33.238  1.00  0.00    -0.274 OA
HETATM    2  O3  UNK     1      33.992  -7.784  35.443  1.00  0.00    -0.259 OA
HETATM    3  C1  UNK     1      31.790  -7.288  32.640  1.00  0.00     0.004 A 
HETATM    4  C2  UNK     1      32.195  -7.427  33.926  1.00  0.00     0.062 A 
HETATM    5  C3  UNK     1      32.807  -7.369  31.569  1.00  0.00     0.010 A 
HETATM    6  C6  UNK     1      34.139  -7.583  31.901  1.00  0.00     0.093 A 
HETATM    7  C7  UNK     1      33.628  -7.657  34.278  1.00  0.00     0.300 A 
HETATM    8  C8  UNK     1      32.489  -7.238  30.209  1.00  0.00     0.018 A 
HETATM    9  C10 UNK     1      35.144  -7.667  30.935  1.00  0.00     0.074 A 
HETATM   10  C14 UNK     1      33.483  -7.321  29.229  1.00  0.00     0.037 A 
HETATM   11  C16 UNK     1      34.811  -7.536  29.591  1.00  0.00     0.068 A 
ENDROOT
BRANCH   4  12
HETATM   12  C4  UNK     1      31.234  -7.357  35.029  1.00  0.00    -0.016 A 
HETATM   13  C11 UNK     1      30.590  -8.513  35.455  1.00  0.00     0.015 A 
HETATM   14  C17 UNK     1      29.675  -8.446  36.504  1.00  0.00     0.040 A 
HETATM   15  C18 UNK     1      29.409  -7.224  37.121  1.00  0.00     0.101 A 
HETATM   16  C15 UNK     1      30.059  -6.068  36.688  1.00  0.00     0.102 A 
HETATM   17  C9  UNK     1      30.974  -6.135  35.638  1.00  0.00     0.052 A 
BRANCH  15  18
HETATM   18  O4  UNK     1      28.511  -7.171  38.146  1.00  0.00    -0.353 OA
HETATM   19  C23 UNK     1      28.281  -8.379  38.868  1.00  0.00     0.210 C 
ENDBRANCH  15  18
BRANCH  16  20
HETATM   20  O2  UNK     1      29.807  -4.868  37.282  1.00  0.00    -0.353 OA
HETATM   21  C22 UNK     1      30.879  -3.929  37.326  1.00  0.00     0.210 C 
ENDBRANCH  16  20
ENDBRANCH   4  12
BRANCH   3  22
HETATM   22  C5  UNK     1      30.362  -7.066  32.382  1.00  0.00    -0.024 A 
HETATM   23  C12 UNK     1      29.534  -8.152  32.137  1.00  0.00     0.012 A 
HETATM   24  C19 UNK     1      28.177  -7.941  31.891  1.00  0.00     0.001 A 
HETATM   25  C21 UNK     1      27.661  -6.645  31.894  1.00  0.00     0.000 A 
HETATM   26  C20 UNK     1      28.503  -5.561  32.142  1.00  0.00     0.001 A 
HETATM   27  C13 UNK     1      29.859  -5.771  32.388  1.00  0.00     0.012 A 
ENDBRANCH   3  22
BRANCH  11  28
HETATM   28  O5  UNK     1      35.776  -7.615  28.636  1.00  0.00    -0.361 OA
HETATM   29  H12 UNK     1      35.895  -8.547  28.385  1.00  0.00     0.217 HD
ENDBRANCH  11  28
TORSDOF 5
ENDMDL
MODEL 9
REMARK VINA RESULT:      -7.2      1.091      1.563
REMARK  5 active torsions:
REMARK  status: ('A' for Active; 'I' for Inactive)
REMARK    1  A    between atoms: C15_20  and  O2_2 
REMARK    2  A    between atoms: C18_23  and  O4_4 
REMARK    3  A    between atoms: C16_21  and  O5_5 
REMARK    4  A    between atoms: C1_6  and  C5_10 
REMARK    5  A    between atoms: C2_7  and  C4_9 
ROOT
HETATM    1  O1  UNK     1      32.130  -3.916  36.321  1.00  0.00    -0.274 OA
HETATM    2  O3  UNK     1      33.511  -3.989  34.517  1.00  0.00    -0.259 OA
HETATM    3  C1  UNK     1      31.466  -6.640  35.837  1.00  0.00     0.004 A 
HETATM    4  C2  UNK     1      32.345  -5.997  35.029  1.00  0.00     0.062 A 
HETATM    5  C3  UNK     1      30.870  -5.892  36.964  1.00  0.00     0.010 A 
HETATM    6  C6  UNK     1      31.219  -4.562  37.168  1.00  0.00     0.093 A 
HETATM    7  C7  UNK     1      32.717  -4.569  35.251  1.00  0.00     0.300 A 
HETATM    8  C8  UNK     1      29.952  -6.467  37.856  1.00  0.00     0.018 A 
HETATM    9  C10 UNK     1      30.690  -3.804  38.215  1.00  0.00     0.074 A 
HETATM   10  C14 UNK     1      29.412  -5.721  38.909  1.00  0.00     0.037 A 
HETATM   11  C16 UNK     1      29.781  -4.389  39.089  1.00  0.00     0.068 A 
ENDROOT
BRANCH   4  12
HETATM   12  C4  UNK     1      32.968  -6.687  33.896  1.00  0.00    -0.016 A 
HETATM   13  C11 UNK     1      34.226  -7.257  34.046  1.00  0.00     0.015 A 
HETATM   14  C17 UNK     1      34.818  -7.914  32.967  1.00  0.00     0.040 A 
HETATM   15  C18 UNK     1      34.149  -7.995  31.747  1.00  0.00     0.101 A 
HETATM   16  C15 UNK     1      32.886  -7.420  31.604  1.00  0.00     0.102 A 
HETATM   17  C9  UNK     1      32.294  -6.764  32.683  1.00  0.00     0.052 A 
BRANCH  15  18
HETATM   18  O4  UNK     1      34.739  -8.639  30.700  1.00  0.00    -0.353 OA
HETATM   19  C23 UNK     1      35.903  -9.411  30.987  1.00  0.00     0.210 C 
ENDBRANCH  15  18
BRANCH  16  20
HETATM   20  O2  UNK     1      32.222  -7.493  30.417  1.00  0.00    -0.353 OA
HETATM   21  C22 UNK     1      31.115  -8.390  30.347  1.00  0.00     0.210 C 
ENDBRANCH  16  20
ENDBRANCH   4  12
BRANCH   3  22
HETATM   22  C5  UNK     1      31.156  -8.045  35.546  1.00  0.00    -0.024 A 
HETATM   23  C12 UNK     1      30.067  -8.353  34.744  1.00  0.00     0.012 A 
HETATM   24  C19 UNK     1      29.771  -9.688  34.468  1.00  0.00     0.001 A 
HETATM   25  C21 UNK     1      30.568 -10.703  34.998  1.00  0.00     0.000 A 
HETATM   26  C20 UNK     1      31.660 -10.382  35.803  1.00  0.00     0.001 A 
HETATM   27  C13 UNK     1      31.957  -9.047  36.079  1.00  0.00     0.012 A 
ENDBRANCH   3  22
BRANCH  11  28
HETATM   28  O5  UNK     1      29.255  -3.667  40.115  1.00  0.00    -0.361 OA
HETATM   29  H12 UNK     1      29.240  -2.728  39.863  1.00  0.00     0.217 HD
ENDBRANCH  11  28
TORSDOF 5
ENDMDL
MODEL 10
REMARK VINA RESULT:      -7.2      2.558      3.710
REMARK  5 active torsions:
REMARK  status: ('A' for Active; 'I' for Inactive)
REMARK    1  A    between atoms: C15_20  and  O2_2 
REMARK    2  A    between atoms: C18_23  and  O4_4 
REMARK    3  A    between atoms: C16_21  and  O5_5 
REMARK    4  A    between atoms: C1_6  and  C5_10 
REMARK    5  A    between atoms: C2_7  and  C4_9 
ROOT
HETATM    1  O1  UNK     1      33.816  -8.056  35.542  1.00  0.00    -0.274 OA
HETATM    2  O3  UNK     1      34.271  -9.500  33.847  1.00  0.00    -0.259 OA
HETATM    3  C1  UNK     1      31.535  -7.174  34.088  1.00  0.00     0.004 A 
HETATM    4  C2  UNK     1      32.338  -8.139  33.578  1.00  0.00     0.062 A 
HETATM    5  C3  UNK     1      31.875  -6.599  35.407  1.00  0.00     0.010 A 
HETATM    6  C6  UNK     1      32.998  -7.056  36.087  1.00  0.00     0.093 A 
HETATM    7  C7  UNK     1      33.544  -8.626  34.311  1.00  0.00     0.300 A 
HETATM    8  C8  UNK     1      31.107  -5.597  36.020  1.00  0.00     0.018 A 
HETATM    9  C10 UNK     1      33.371  -6.553  37.336  1.00  0.00     0.074 A 
HETATM   10  C14 UNK     1      31.467  -5.082  37.270  1.00  0.00     0.037 A 
HETATM   11  C16 UNK     1      32.599  -5.559  37.928  1.00  0.00     0.068 A 
ENDROOT
BRANCH   4  12
HETATM   12  C4  UNK     1      32.052  -8.746  32.275  1.00  0.00    -0.016 A 
HETATM   13  C11 UNK     1      32.543  -8.153  31.118  1.00  0.00     0.015 A 
HETATM   14  C17 UNK     1      32.270  -8.730  29.879  1.00  0.00     0.040 A 
HETATM   15  C18 UNK     1      31.507  -9.895  29.804  1.00  0.00     0.101 A 
HETATM   16  C15 UNK     1      31.017 -10.484  30.971  1.00  0.00     0.102 A 
HETATM   17  C9  UNK     1      31.290  -9.907  32.210  1.00  0.00     0.052 A 
BRANCH  15  18
HETATM   18  O4  UNK     1      31.246 -10.449  28.587  1.00  0.00    -0.353 OA
HETATM   19  C23 UNK     1      30.177  -9.883  27.833  1.00  0.00     0.210 C 
ENDBRANCH  15  18
BRANCH  16  20
HETATM   20  O2  UNK     1      30.271 -11.622  30.911  1.00  0.00    -0.353 OA
HETATM   21  C22 UNK     1      30.450 -12.570  31.961  1.00  0.00     0.210 C 
ENDBRANCH  16  20
ENDBRANCH   4  12
BRANCH   3  22
HETATM   22  C5  UNK     1      30.370  -6.753  33.300  1.00  0.00    -0.024 A 
HETATM   23  C12 UNK     1      29.180  -7.458  33.408  1.00  0.00     0.012 A 
HETATM   24  C19 UNK     1      28.073  -7.058  32.658  1.00  0.00     0.001 A 
HETATM   25  C21 UNK     1      28.168  -5.956  31.808  1.00  0.00     0.000 A 
HETATM   26  C20 UNK     1      29.369  -5.255  31.708  1.00  0.00     0.001 A 
HETATM   27  C13 UNK     1      30.476  -5.654  32.458  1.00  0.00     0.012 A 
ENDBRANCH   3  22
BRANCH  11  28
HETATM   28  O5  UNK     1      32.945  -5.057  39.144  1.00  0.00    -0.361 OA
HETATM   29  H12 UNK     1      32.747  -4.105  39.159  1.00  0.00     0.217 HD
ENDBRANCH  11  28
TORSDOF 5
ENDMDL
