MODEL 1
REMARK VINA RESULT:      -8.9      0.000      0.000
REMARK  7 active torsions:
REMARK  status: ('A' for Active; 'I' for Inactive)
REMARK    1  A    between atoms: C5_13  and  O2_2 
REMARK    2  A    between atoms: C7_15  and  O3_3 
REMARK    3  A    between atoms: C11_19  and  O5_5 
REMARK    4  A    between atoms: C13_21  and  O6_6 
REMARK    5  A    between atoms: C14_22  and  O7_7 
REMARK    6  A    between atoms: C15_23  and  O8_8 
REMARK    7  A    between atoms: C2_10  and  C4_12 
ROOT
HETATM    1  O1  UNK     1      19.268  -1.198  17.651  1.00  0.00    -0.306 OA
HETATM    2  O4  UNK     1      19.158   2.139  15.315  1.00  0.00    -0.284 OA
HETATM    3  C1  UNK     1      19.132   1.220  17.486  1.00  0.00     0.084 A 
HETATM    4  C2  UNK     1      19.340  -1.280  16.270  1.00  0.00     0.123 A 
HETATM    5  C3  UNK     1      19.173   0.041  18.229  1.00  0.00     0.096 A 
HETATM    6  C5  UNK     1      19.302  -0.222  15.439  1.00  0.00     0.152 A 
HETATM    7  C6  UNK     1      19.195   1.139  16.019  1.00  0.00     0.223 A 
HETATM    8  C7  UNK     1      19.033   2.456  18.130  1.00  0.00     0.085 A 
HETATM    9  C8  UNK     1      19.112   0.091  19.621  1.00  0.00     0.075 A 
HETATM   10  C11 UNK     1      19.014   1.324  20.268  1.00  0.00     0.071 A 
HETATM   11  C12 UNK     1      18.974   2.503  19.523  1.00  0.00     0.074 A 
ENDROOT
BRANCH   4  12
HETATM   12  C4  UNK     1      19.438  -2.667  15.780  1.00  0.00     0.006 A 
HETATM   13  C10 UNK     1      18.315  -3.303  15.251  1.00  0.00     0.054 A 
HETATM   14  C13 UNK     1      18.409  -4.616  14.790  1.00  0.00     0.102 A 
HETATM   15  C15 UNK     1      19.627  -5.294  14.859  1.00  0.00     0.132 A 
HETATM   16  C14 UNK     1      20.750  -4.658  15.388  1.00  0.00     0.102 A 
HETATM   17  C9  UNK     1      20.656  -3.344  15.848  1.00  0.00     0.054 A 
BRANCH  14  18
HETATM   18  O6  UNK     1      17.305  -5.226  14.277  1.00  0.00    -0.358 OA
HETATM   19  H8  UNK     1      17.011  -4.723  13.499  1.00  0.00     0.217 HD
ENDBRANCH  14  18
BRANCH  15  20
HETATM   20  O8  UNK     1      19.718  -6.578  14.409  1.00  0.00    -0.356 OA
HETATM   21  H10 UNK     1      18.977  -6.769  13.814  1.00  0.00     0.218 HD
ENDBRANCH  15  20
BRANCH  16  22
HETATM   22  O7  UNK     1      21.944  -5.308  15.459  1.00  0.00    -0.358 OA
HETATM   23  H9  UNK     1      21.796  -6.244  15.669  1.00  0.00     0.217 HD
ENDBRANCH  16  22
ENDBRANCH   4  12
BRANCH   6  24
HETATM   24  O2  UNK     1      19.343  -0.340  14.067  1.00  0.00    -0.355 OA
HETATM   25  H5  UNK     1      19.329   0.540  13.659  1.00  0.00     0.218 HD
ENDBRANCH   6  24
BRANCH   8  26
HETATM   26  O3  UNK     1      18.991   3.637  17.452  1.00  0.00    -0.360 OA
HETATM   27  H6  UNK     1      19.180   3.496  16.512  1.00  0.00     0.217 HD
ENDBRANCH   8  26
BRANCH  10  28
HETATM   28  O5  UNK     1      18.956   1.376  21.627  1.00  0.00    -0.361 OA
HETATM   29  H7  UNK     1      18.470   2.176  21.892  1.00  0.00     0.217 HD
ENDBRANCH  10  28
TORSDOF 7
ENDMDL
MODEL 2
REMARK VINA RESULT:      -8.5     14.444     17.721
REMARK  7 active torsions:
REMARK  status: ('A' for Active; 'I' for Inactive)
REMARK    1  A    between atoms: C5_13  and  O2_2 
REMARK    2  A    between atoms: C7_15  and  O3_3 
REMARK    3  A    between atoms: C11_19  and  O5_5 
REMARK    4  A    between atoms: C13_21  and  O6_6 
REMARK    5  A    between atoms: C14_22  and  O7_7 
REMARK    6  A    between atoms: C15_23  and  O8_8 
REMARK    7  A    between atoms: C2_10  and  C4_12 
ROOT
HETATM    1  O1  UNK     1      18.046   3.008  33.155  1.00  0.00    -0.306 OA
HETATM    2  O4  UNK     1      19.360   1.568  29.576  1.00  0.00    -0.284 OA
HETATM    3  C1  UNK     1      18.748   1.114  31.808  1.00  0.00     0.084 A 
HETATM    4  C2  UNK     1      18.233   3.843  32.065  1.00  0.00     0.123 A 
HETATM    5  C3  UNK     1      18.298   1.669  33.005  1.00  0.00     0.096 A 
HETATM    6  C5  UNK     1      18.670   3.436  30.859  1.00  0.00     0.152 A 
HETATM    7  C6  UNK     1      18.961   1.997  30.651  1.00  0.00     0.223 A 
HETATM    8  C7  UNK     1      18.990  -0.258  31.714  1.00  0.00     0.085 A 
HETATM    9  C8  UNK     1      18.091   0.853  34.117  1.00  0.00     0.075 A 
HETATM   10  C11 UNK     1      18.331  -0.518  34.028  1.00  0.00     0.071 A 
HETATM   11  C12 UNK     1      18.780  -1.072  32.828  1.00  0.00     0.074 A 
ENDROOT
BRANCH   4  12
HETATM   12  C4  UNK     1      17.927   5.254  32.362  1.00  0.00     0.006 A 
HETATM   13  C10 UNK     1      17.414   6.083  31.365  1.00  0.00     0.054 A 
HETATM   14  C13 UNK     1      17.126   7.418  31.646  1.00  0.00     0.102 A 
HETATM   15  C15 UNK     1      17.353   7.926  32.926  1.00  0.00     0.132 A 
HETATM   16  C14 UNK     1      17.867   7.097  33.924  1.00  0.00     0.102 A 
HETATM   17  C9  UNK     1      18.154   5.761  33.642  1.00  0.00     0.054 A 
BRANCH  14  18
HETATM   18  O6  UNK     1      16.627   8.217  30.663  1.00  0.00    -0.358 OA
HETATM   19  H8  UNK     1      17.166   9.025  30.622  1.00  0.00     0.217 HD
ENDBRANCH  14  18
BRANCH  15  20
HETATM   20  O8  UNK     1      17.073   9.231  33.201  1.00  0.00    -0.356 OA
HETATM   21  H10 UNK     1      16.302   9.516  32.686  1.00  0.00     0.218 HD
ENDBRANCH  15  20
BRANCH  16  22
HETATM   22  O7  UNK     1      18.091   7.579  35.177  1.00  0.00    -0.358 OA
HETATM   23  H9  UNK     1      18.881   7.158  35.554  1.00  0.00     0.217 HD
ENDBRANCH  16  22
ENDBRANCH   4  12
BRANCH   6  24
HETATM   24  O2  UNK     1      18.878   4.298  29.804  1.00  0.00    -0.355 OA
HETATM   25  H5  UNK     1      18.062   4.788  29.613  1.00  0.00     0.218 HD
ENDBRANCH   6  24
BRANCH   8  26
HETATM   26  O3  UNK     1      19.429  -0.850  30.568  1.00  0.00    -0.360 OA
HETATM   27  H6  UNK     1      18.719  -0.884  29.909  1.00  0.00     0.217 HD
ENDBRANCH   8  26
BRANCH  10  28
HETATM   28  O5  UNK     1      18.128  -1.317  35.111  1.00  0.00    -0.361 OA
HETATM   29  H7  UNK     1      17.476  -2.000  34.881  1.00  0.00     0.217 HD
ENDBRANCH  10  28
TORSDOF 7
ENDMDL
MODEL 3
REMARK VINA RESULT:      -8.2     13.603     15.848
REMARK  7 active torsions:
REMARK  status: ('A' for Active; 'I' for Inactive)
REMARK    1  A    between atoms: C5_13  and  O2_2 
REMARK    2  A    between atoms: C7_15  and  O3_3 
REMARK    3  A    between atoms: C11_19  and  O5_5 
REMARK    4  A    between atoms: C13_21  and  O6_6 
REMARK    5  A    between atoms: C14_22  and  O7_7 
REMARK    6  A    between atoms: C15_23  and  O8_8 
REMARK    7  A    between atoms: C2_10  and  C4_12 
ROOT
HETATM    1  O1  UNK     1       9.670   5.799   9.687  1.00  0.00    -0.306 OA
HETATM    2  O4  UNK     1       9.671   6.842   5.747  1.00  0.00    -0.284 OA
HETATM    3  C1  UNK     1      10.886   6.030   7.598  1.00  0.00     0.084 A 
HETATM    4  C2  UNK     1       8.521   6.251   9.059  1.00  0.00     0.123 A 
HETATM    5  C3  UNK     1      10.820   5.691   8.949  1.00  0.00     0.096 A 
HETATM    6  C5  UNK     1       8.452   6.618   7.766  1.00  0.00     0.152 A 
HETATM    7  C6  UNK     1       9.672   6.524   6.930  1.00  0.00     0.223 A 
HETATM    8  C7  UNK     1      12.087   5.901   6.897  1.00  0.00     0.085 A 
HETATM    9  C8  UNK     1      11.958   5.223   9.606  1.00  0.00     0.075 A 
HETATM   10  C11 UNK     1      13.159   5.093   8.909  1.00  0.00     0.071 A 
HETATM   11  C12 UNK     1      13.223   5.432   7.556  1.00  0.00     0.074 A 
ENDROOT
BRANCH   4  12
HETATM   12  C4  UNK     1       7.360   6.320   9.964  1.00  0.00     0.006 A 
HETATM   13  C10 UNK     1       6.468   5.250  10.040  1.00  0.00     0.054 A 
HETATM   14  C13 UNK     1       5.369   5.317  10.895  1.00  0.00     0.102 A 
HETATM   15  C15 UNK     1       5.160   6.454  11.676  1.00  0.00     0.132 A 
HETATM   16  C14 UNK     1       6.053   7.524  11.601  1.00  0.00     0.102 A 
HETATM   17  C9  UNK     1       7.153   7.457  10.746  1.00  0.00     0.054 A 
BRANCH  14  18
HETATM   18  O6  UNK     1       4.505   4.266  10.958  1.00  0.00    -0.358 OA
HETATM   19  H8  UNK     1       4.672   3.686  10.195  1.00  0.00     0.217 HD
ENDBRANCH  14  18
BRANCH  15  20
HETATM   20  O8  UNK     1       4.085   6.520  12.511  1.00  0.00    -0.356 OA
HETATM   21  H10 UNK     1       4.205   5.901  13.248  1.00  0.00     0.218 HD
ENDBRANCH  15  20
BRANCH  16  22
HETATM   22  O7  UNK     1       5.862   8.639  12.359  1.00  0.00    -0.358 OA
HETATM   23  H9  UNK     1       6.679   8.855  12.836  1.00  0.00     0.217 HD
ENDBRANCH  16  22
ENDBRANCH   4  12
BRANCH   6  24
HETATM   24  O2  UNK     1       7.300   7.096   7.180  1.00  0.00    -0.355 OA
HETATM   25  H5  UNK     1       6.564   7.045   7.811  1.00  0.00     0.218 HD
ENDBRANCH   6  24
BRANCH   8  26
HETATM   26  O3  UNK     1      12.204   6.218   5.577  1.00  0.00    -0.360 OA
HETATM   27  H6  UNK     1      11.502   6.831   5.310  1.00  0.00     0.217 HD
ENDBRANCH   8  26
BRANCH  10  28
HETATM   28  O5  UNK     1      14.271   4.635   9.548  1.00  0.00    -0.361 OA
HETATM   29  H7  UNK     1      14.320   5.046  10.427  1.00  0.00     0.217 HD
ENDBRANCH  10  28
TORSDOF 7
ENDMDL
MODEL 4
REMARK VINA RESULT:      -8.1      1.567      6.716
REMARK  7 active torsions:
REMARK  status: ('A' for Active; 'I' for Inactive)
REMARK    1  A    between atoms: C5_13  and  O2_2 
REMARK    2  A    between atoms: C7_15  and  O3_3 
REMARK    3  A    between atoms: C11_19  and  O5_5 
REMARK    4  A    between atoms: C13_21  and  O6_6 
REMARK    5  A    between atoms: C14_22  and  O7_7 
REMARK    6  A    between atoms: C15_23  and  O8_8 
REMARK    7  A    between atoms: C2_10  and  C4_12 
ROOT
HETATM    1  O1  UNK     1      18.606  -1.880  16.719  1.00  0.00    -0.306 OA
HETATM    2  O4  UNK     1      19.547  -0.517  12.996  1.00  0.00    -0.284 OA
HETATM    3  C1  UNK     1      18.816  -2.312  14.340  1.00  0.00     0.084 A 
HETATM    4  C2  UNK     1      19.012  -0.572  16.510  1.00  0.00     0.123 A 
HETATM    5  C3  UNK     1      18.510  -2.717  15.638  1.00  0.00     0.096 A 
HETATM    6  C5  UNK     1      19.344  -0.058  15.310  1.00  0.00     0.152 A 
HETATM    7  C6  UNK     1      19.260  -0.928  14.113  1.00  0.00     0.223 A 
HETATM    8  C7  UNK     1      18.700  -3.209  13.276  1.00  0.00     0.085 A 
HETATM    9  C8  UNK     1      18.089  -4.024  15.880  1.00  0.00     0.075 A 
HETATM   10  C11 UNK     1      17.973  -4.924  14.819  1.00  0.00     0.071 A 
HETATM   11  C12 UNK     1      18.278  -4.516  13.520  1.00  0.00     0.074 A 
ENDROOT
BRANCH   4  12
HETATM   12  C4  UNK     1      19.073   0.218  17.753  1.00  0.00     0.006 A 
HETATM   13  C10 UNK     1      19.066   1.611  17.697  1.00  0.00     0.054 A 
HETATM   14  C13 UNK     1      19.126   2.357  18.874  1.00  0.00     0.102 A 
HETATM   15  C15 UNK     1      19.194   1.709  20.108  1.00  0.00     0.132 A 
HETATM   16  C14 UNK     1      19.200   0.315  20.164  1.00  0.00     0.102 A 
HETATM   17  C9  UNK     1      19.140  -0.431  18.987  1.00  0.00     0.054 A 
BRANCH  14  18
HETATM   18  O6  UNK     1      19.120   3.717  18.806  1.00  0.00    -0.358 OA
HETATM   19  H8  UNK     1      18.207   4.026  18.932  1.00  0.00     0.217 HD
ENDBRANCH  14  18
BRANCH  15  20
HETATM   20  O8  UNK     1      19.253   2.438  21.258  1.00  0.00    -0.356 OA
HETATM   21  H10 UNK     1      20.142   2.371  21.642  1.00  0.00     0.218 HD
ENDBRANCH  15  20
BRANCH  16  22
HETATM   22  O7  UNK     1      19.264  -0.329  21.362  1.00  0.00    -0.358 OA
HETATM   23  H9  UNK     1      18.595  -1.032  21.392  1.00  0.00     0.217 HD
ENDBRANCH  16  22
ENDBRANCH   4  12
BRANCH   6  24
HETATM   24  O2  UNK     1      19.776   1.239  15.141  1.00  0.00    -0.355 OA
HETATM   25  H5  UNK     1      20.417   1.281  14.414  1.00  0.00     0.218 HD
ENDBRANCH   6  24
BRANCH   8  26
HETATM   26  O3  UNK     1      18.986  -2.864  11.989  1.00  0.00    -0.360 OA
HETATM   27  H6  UNK     1      18.595  -2.004  11.772  1.00  0.00     0.217 HD
ENDBRANCH   8  26
BRANCH  10  28
HETATM   28  O5  UNK     1      17.561  -6.200  15.052  1.00  0.00    -0.361 OA
HETATM   29  H7  UNK     1      16.598  -6.201  15.189  1.00  0.00     0.217 HD
ENDBRANCH  10  28
TORSDOF 7
ENDMDL
MODEL 5
REMARK VINA RESULT:      -8.1      1.366      6.950
REMARK  7 active torsions:
REMARK  status: ('A' for Active; 'I' for Inactive)
REMARK    1  A    between atoms: C5_13  and  O2_2 
REMARK    2  A    between atoms: C7_15  and  O3_3 
REMARK    3  A    between atoms: C11_19  and  O5_5 
REMARK    4  A    between atoms: C13_21  and  O6_6 
REMARK    5  A    between atoms: C14_22  and  O7_7 
REMARK    6  A    between atoms: C15_23  and  O8_8 
REMARK    7  A    between atoms: C2_10  and  C4_12 
ROOT
HETATM    1  O1  UNK     1      20.568  -2.262  16.791  1.00  0.00    -0.306 OA
HETATM    2  O4  UNK     1      17.750  -4.505  14.885  1.00  0.00    -0.284 OA
HETATM    3  C1  UNK     1      19.932  -4.370  15.770  1.00  0.00     0.084 A 
HETATM    4  C2  UNK     1      19.308  -1.757  16.514  1.00  0.00     0.123 A 
HETATM    5  C3  UNK     1      20.852  -3.551  16.422  1.00  0.00     0.096 A 
HETATM    6  C5  UNK     1      18.333  -2.438  15.884  1.00  0.00     0.152 A 
HETATM    7  C6  UNK     1      18.597  -3.835  15.461  1.00  0.00     0.223 A 
HETATM    8  C7  UNK     1      20.277  -5.676  15.416  1.00  0.00     0.085 A 
HETATM    9  C8  UNK     1      22.125  -4.034  16.723  1.00  0.00     0.075 A 
HETATM   10  C11 UNK     1      22.474  -5.339  16.372  1.00  0.00     0.071 A 
HETATM   11  C12 UNK     1      21.551  -6.158  15.719  1.00  0.00     0.074 A 
ENDROOT
BRANCH   4  12
HETATM   12  C4  UNK     1      19.136  -0.363  16.962  1.00  0.00     0.006 A 
HETATM   13  C10 UNK     1      19.253   0.685  16.049  1.00  0.00     0.054 A 
HETATM   14  C13 UNK     1      19.092   2.003  16.475  1.00  0.00     0.102 A 
HETATM   15  C15 UNK     1      18.814   2.275  17.815  1.00  0.00     0.132 A 
HETATM   16  C14 UNK     1      18.697   1.227  18.729  1.00  0.00     0.102 A 
HETATM   17  C9  UNK     1      18.858  -0.092  18.303  1.00  0.00     0.054 A 
BRANCH  14  18
HETATM   18  O6  UNK     1      19.210   3.017  15.573  1.00  0.00    -0.358 OA
HETATM   19  H8  UNK     1      18.326   3.219  15.222  1.00  0.00     0.217 HD
ENDBRANCH  14  18
BRANCH  15  20
HETATM   20  O8  UNK     1      18.658   3.563  18.231  1.00  0.00    -0.356 OA
HETATM   21  H10 UNK     1      17.733   3.833  18.119  1.00  0.00     0.218 HD
ENDBRANCH  15  20
BRANCH  16  22
HETATM   22  O7  UNK     1      18.425   1.478  20.039  1.00  0.00    -0.358 OA
HETATM   23  H9  UNK     1      17.652   2.062  20.107  1.00  0.00     0.217 HD
ENDBRANCH  16  22
ENDBRANCH   4  12
BRANCH   6  24
HETATM   24  O2  UNK     1      17.101  -1.895  15.595  1.00  0.00    -0.355 OA
HETATM   25  H5  UNK     1      16.837  -2.138  14.693  1.00  0.00     0.218 HD
ENDBRANCH   6  24
BRANCH   8  26
HETATM   26  O3  UNK     1      19.416  -6.517  14.778  1.00  0.00    -0.360 OA
HETATM   27  H6  UNK     1      19.903  -7.205  14.300  1.00  0.00     0.217 HD
ENDBRANCH   8  26
BRANCH  10  28
HETATM   28  O5  UNK     1      23.716  -5.813  16.665  1.00  0.00    -0.361 OA
HETATM   29  H7  UNK     1      24.345  -5.072  16.664  1.00  0.00     0.217 HD
ENDBRANCH  10  28
TORSDOF 7
ENDMDL
MODEL 6
REMARK VINA RESULT:      -8.1      2.252      7.171
REMARK  7 active torsions:
REMARK  status: ('A' for Active; 'I' for Inactive)
REMARK    1  A    between atoms: C5_13  and  O2_2 
REMARK    2  A    between atoms: C7_15  and  O3_3 
REMARK    3  A    between atoms: C11_19  and  O5_5 
REMARK    4  A    between atoms: C13_21  and  O6_6 
REMARK    5  A    between atoms: C14_22  and  O7_7 
REMARK    6  A    between atoms: C15_23  and  O8_8 
REMARK    7  A    between atoms: C2_10  and  C4_12 
ROOT
HETATM    1  O1  UNK     1      19.704  -0.700  14.689  1.00  0.00    -0.306 OA
HETATM    2  O4  UNK     1      17.556  -4.157  14.471  1.00  0.00    -0.284 OA
HETATM    3  C1  UNK     1      19.059  -2.671  13.426  1.00  0.00     0.084 A 
HETATM    4  C2  UNK     1      18.910  -1.126  15.742  1.00  0.00     0.123 A 
HETATM    5  C3  UNK     1      19.767  -1.478  13.562  1.00  0.00     0.096 A 
HETATM    6  C5  UNK     1      18.172  -2.251  15.735  1.00  0.00     0.152 A 
HETATM    7  C6  UNK     1      18.205  -3.121  14.535  1.00  0.00     0.223 A 
HETATM    8  C7  UNK     1      19.162  -3.422  12.253  1.00  0.00     0.085 A 
HETATM    9  C8  UNK     1      20.582  -1.028  12.522  1.00  0.00     0.075 A 
HETATM   10  C11 UNK     1      20.687  -1.776  11.349  1.00  0.00     0.071 A 
HETATM   11  C12 UNK     1      19.978  -2.971  11.215  1.00  0.00     0.074 A 
ENDROOT
BRANCH   4  12
HETATM   12  C4  UNK     1      18.931  -0.200  16.888  1.00  0.00     0.006 A 
HETATM   13  C10 UNK     1      18.900  -0.697  18.191  1.00  0.00     0.054 A 
HETATM   14  C13 UNK     1      18.918   0.180  19.274  1.00  0.00     0.102 A 
HETATM   15  C15 UNK     1      18.966   1.558  19.056  1.00  0.00     0.132 A 
HETATM   16  C14 UNK     1      18.997   2.056  17.753  1.00  0.00     0.102 A 
HETATM   17  C9  UNK     1      18.980   1.178  16.669  1.00  0.00     0.054 A 
BRANCH  14  18
HETATM   18  O6  UNK     1      18.886  -0.319  20.540  1.00  0.00    -0.358 OA
HETATM   19  H8  UNK     1      19.542  -1.034  20.605  1.00  0.00     0.217 HD
ENDBRANCH  14  18
BRANCH  15  20
HETATM   20  O8  UNK     1      18.982   2.416  20.115  1.00  0.00    -0.356 OA
HETATM   21  H10 UNK     1      18.100   2.803  20.235  1.00  0.00     0.218 HD
ENDBRANCH  15  20
BRANCH  16  22
HETATM   22  O7  UNK     1      19.045   3.398  17.526  1.00  0.00    -0.358 OA
HETATM   23  H9  UNK     1      18.667   3.872  18.284  1.00  0.00     0.217 HD
ENDBRANCH  16  22
ENDBRANCH   4  12
BRANCH   6  24
HETATM   24  O2  UNK     1      17.367  -2.629  16.788  1.00  0.00    -0.355 OA
HETATM   25  H5  UNK     1      17.406  -3.592  16.904  1.00  0.00     0.218 HD
ENDBRANCH   6  24
BRANCH   8  26
HETATM   26  O3  UNK     1      18.492  -4.594  12.069  1.00  0.00    -0.360 OA
HETATM   27  H6  UNK     1      17.584  -4.425  11.774  1.00  0.00     0.217 HD
ENDBRANCH   8  26
BRANCH  10  28
HETATM   28  O5  UNK     1      21.482  -1.340  10.334  1.00  0.00    -0.361 OA
HETATM   29  H7  UNK     1      20.932  -0.877   9.679  1.00  0.00     0.217 HD
ENDBRANCH  10  28
TORSDOF 7
ENDMDL
MODEL 7
REMARK VINA RESULT:      -7.9     15.948     19.031
REMARK  7 active torsions:
REMARK  status: ('A' for Active; 'I' for Inactive)
REMARK    1  A    between atoms: C5_13  and  O2_2 
REMARK    2  A    between atoms: C7_15  and  O3_3 
REMARK    3  A    between atoms: C11_19  and  O5_5 
REMARK    4  A    between atoms: C13_21  and  O6_6 
REMARK    5  A    between atoms: C14_22  and  O7_7 
REMARK    6  A    between atoms: C15_23  and  O8_8 
REMARK    7  A    between atoms: C2_10  and  C4_12 
ROOT
HETATM    1  O1  UNK     1      18.261   3.945  34.508  1.00  0.00    -0.306 OA
HETATM    2  O4  UNK     1      18.397   1.660  31.136  1.00  0.00    -0.284 OA
HETATM    3  C1  UNK     1      18.346   1.741  33.493  1.00  0.00     0.084 A 
HETATM    4  C2  UNK     1      18.254   4.517  33.247  1.00  0.00     0.123 A 
HETATM    5  C3  UNK     1      18.300   2.578  34.607  1.00  0.00     0.096 A 
HETATM    6  C5  UNK     1      18.304   3.824  32.094  1.00  0.00     0.152 A 
HETATM    7  C6  UNK     1      18.352   2.344  32.151  1.00  0.00     0.223 A 
HETATM    8  C7  UNK     1      18.386   0.354  33.654  1.00  0.00     0.085 A 
HETATM    9  C8  UNK     1      18.296   2.031  35.890  1.00  0.00     0.075 A 
HETATM   10  C11 UNK     1      18.335   0.646  36.055  1.00  0.00     0.071 A 
HETATM   11  C12 UNK     1      18.380  -0.190  34.939  1.00  0.00     0.074 A 
ENDROOT
BRANCH   4  12
HETATM   12  C4  UNK     1      18.212   5.990  33.284  1.00  0.00     0.006 A 
HETATM   13  C10 UNK     1      19.221   6.703  33.931  1.00  0.00     0.054 A 
HETATM   14  C13 UNK     1      19.178   8.096  33.967  1.00  0.00     0.102 A 
HETATM   15  C15 UNK     1      18.125   8.778  33.356  1.00  0.00     0.132 A 
HETATM   16  C14 UNK     1      17.116   8.066  32.708  1.00  0.00     0.102 A 
HETATM   17  C9  UNK     1      17.159   6.671  32.672  1.00  0.00     0.054 A 
BRANCH  14  18
HETATM   18  O6  UNK     1      20.169   8.780  34.604  1.00  0.00    -0.358 OA
HETATM   19  H8  UNK     1      20.060   8.654  35.562  1.00  0.00     0.217 HD
ENDBRANCH  14  18
BRANCH  15  20
HETATM   20  O8  UNK     1      18.083  10.140  33.392  1.00  0.00    -0.356 OA
HETATM   21  H10 UNK     1      18.957  10.500  33.175  1.00  0.00     0.218 HD
ENDBRANCH  15  20
BRANCH  16  22
HETATM   22  O7  UNK     1      16.084   8.719  32.106  1.00  0.00    -0.358 OA
HETATM   23  H9  UNK     1      16.142   8.605  31.143  1.00  0.00     0.217 HD
ENDBRANCH  16  22
ENDBRANCH   4  12
BRANCH   6  24
HETATM   24  O2  UNK     1      18.329   4.426  30.855  1.00  0.00    -0.355 OA
HETATM   25  H5  UNK     1      17.761   3.936  30.238  1.00  0.00     0.218 HD
ENDBRANCH   6  24
BRANCH   8  26
HETATM   26  O3  UNK     1      18.431  -0.507  32.599  1.00  0.00    -0.360 OA
HETATM   27  H6  UNK     1      18.184  -1.401  32.880  1.00  0.00     0.217 HD
ENDBRANCH   8  26
BRANCH  10  28
HETATM   28  O5  UNK     1      18.330   0.110  37.306  1.00  0.00    -0.361 OA
HETATM   29  H7  UNK     1      17.413  -0.088  37.561  1.00  0.00     0.217 HD
ENDBRANCH  10  28
TORSDOF 7
ENDMDL
MODEL 8
REMARK VINA RESULT:      -7.9     13.507     18.356
REMARK  7 active torsions:
REMARK  status: ('A' for Active; 'I' for Inactive)
REMARK    1  A    between atoms: C5_13  and  O2_2 
REMARK    2  A    between atoms: C7_15  and  O3_3 
REMARK    3  A    between atoms: C11_19  and  O5_5 
REMARK    4  A    between atoms: C13_21  and  O6_6 
REMARK    5  A    between atoms: C14_22  and  O7_7 
REMARK    6  A    between atoms: C15_23  and  O8_8 
REMARK    7  A    between atoms: C2_10  and  C4_12 
ROOT
HETATM    1  O1  UNK     1      18.673  -0.006  32.720  1.00  0.00    -0.306 OA
HETATM    2  O4  UNK     1      20.681  -3.516  33.226  1.00  0.00    -0.284 OA
HETATM    3  C1  UNK     1      19.994  -1.802  31.759  1.00  0.00     0.084 A 
HETATM    4  C2  UNK     1      18.763  -0.615  33.962  1.00  0.00     0.123 A 
HETATM    5  C3  UNK     1      19.291  -0.603  31.652  1.00  0.00     0.096 A 
HETATM    6  C5  UNK     1      19.404  -1.775  34.198  1.00  0.00     0.152 A 
HETATM    7  C6  UNK     1      20.082  -2.460  33.072  1.00  0.00     0.223 A 
HETATM    8  C7  UNK     1      20.602  -2.365  30.635  1.00  0.00     0.085 A 
HETATM    9  C8  UNK     1      19.190   0.038  30.418  1.00  0.00     0.075 A 
HETATM   10  C11 UNK     1      19.797  -0.521  29.293  1.00  0.00     0.071 A 
HETATM   11  C12 UNK     1      20.502  -1.721  29.402  1.00  0.00     0.074 A 
ENDROOT
BRANCH   4  12
HETATM   12  C4  UNK     1      18.057   0.129  35.019  1.00  0.00     0.006 A 
HETATM   13  C10 UNK     1      18.765   0.975  35.872  1.00  0.00     0.054 A 
HETATM   14  C13 UNK     1      18.096   1.677  36.874  1.00  0.00     0.102 A 
HETATM   15  C15 UNK     1      16.716   1.532  37.025  1.00  0.00     0.132 A 
HETATM   16  C14 UNK     1      16.006   0.687  36.172  1.00  0.00     0.102 A 
HETATM   17  C9  UNK     1      16.677  -0.015  35.169  1.00  0.00     0.054 A 
BRANCH  14  18
HETATM   18  O6  UNK     1      18.800   2.498  37.701  1.00  0.00    -0.358 OA
HETATM   19  H8  UNK     1      18.495   2.349  38.613  1.00  0.00     0.217 HD
ENDBRANCH  14  18
BRANCH  15  20
HETATM   20  O8  UNK     1      16.062   2.217  38.005  1.00  0.00    -0.356 OA
HETATM   21  H10 UNK     1      16.366   1.915  38.874  1.00  0.00     0.218 HD
ENDBRANCH  15  20
BRANCH  16  22
HETATM   22  O7  UNK     1      14.660   0.538  36.306  1.00  0.00    -0.358 OA
HETATM   23  H9  UNK     1      14.203   1.054  35.622  1.00  0.00     0.217 HD
ENDBRANCH  16  22
ENDBRANCH   4  12
BRANCH   6  24
HETATM   24  O2  UNK     1      19.446  -2.371  35.440  1.00  0.00    -0.355 OA
HETATM   25  H5  UNK     1      18.546  -2.573  35.740  1.00  0.00     0.218 HD
ENDBRANCH   6  24
BRANCH   8  26
HETATM   26  O3  UNK     1      21.301  -3.534  30.686  1.00  0.00    -0.360 OA
HETATM   27  H6  UNK     1      22.108  -3.425  31.211  1.00  0.00     0.217 HD
ENDBRANCH   8  26
BRANCH  10  28
HETATM   28  O5  UNK     1      19.702   0.104  28.087  1.00  0.00    -0.361 OA
HETATM   29  H7  UNK     1      20.593   0.356  27.791  1.00  0.00     0.217 HD
ENDBRANCH  10  28
TORSDOF 7
ENDMDL
MODEL 9
REMARK VINA RESULT:      -7.9     12.878     17.641
REMARK  7 active torsions:
REMARK  status: ('A' for Active; 'I' for Inactive)
REMARK    1  A    between atoms: C5_13  and  O2_2 
REMARK    2  A    between atoms: C7_15  and  O3_3 
REMARK    3  A    between atoms: C11_19  and  O5_5 
REMARK    4  A    between atoms: C13_21  and  O6_6 
REMARK    5  A    between atoms: C14_22  and  O7_7 
REMARK    6  A    between atoms: C15_23  and  O8_8 
REMARK    7  A    between atoms: C2_10  and  C4_12 
ROOT
HETATM    1  O1  UNK     1      19.086  -0.586  32.933  1.00  0.00    -0.306 OA
HETATM    2  O4  UNK     1      18.945   1.911  29.716  1.00  0.00    -0.284 OA
HETATM    3  C1  UNK     1      19.592  -0.180  30.594  1.00  0.00     0.084 A 
HETATM    4  C2  UNK     1      18.502   0.668  33.016  1.00  0.00     0.123 A 
HETATM    5  C3  UNK     1      19.610  -0.985  31.731  1.00  0.00     0.096 A 
HETATM    6  C5  UNK     1      18.426   1.544  31.997  1.00  0.00     0.152 A 
HETATM    7  C6  UNK     1      18.985   1.157  30.679  1.00  0.00     0.223 A 
HETATM    8  C7  UNK     1      20.143  -0.639  29.396  1.00  0.00     0.085 A 
HETATM    9  C8  UNK     1      20.183  -2.256  31.677  1.00  0.00     0.075 A 
HETATM   10  C11 UNK     1      20.734  -2.719  30.482  1.00  0.00     0.071 A 
HETATM   11  C12 UNK     1      20.714  -1.911  29.344  1.00  0.00     0.074 A 
ENDROOT
BRANCH   4  12
HETATM   12  C4  UNK     1      17.980   0.971  34.361  1.00  0.00     0.006 A 
HETATM   13  C10 UNK     1      18.782   1.633  35.290  1.00  0.00     0.054 A 
HETATM   14  C13 UNK     1      18.288   1.918  36.562  1.00  0.00     0.102 A 
HETATM   15  C15 UNK     1      16.990   1.539  36.907  1.00  0.00     0.132 A 
HETATM   16  C14 UNK     1      16.186   0.877  35.978  1.00  0.00     0.102 A 
HETATM   17  C9  UNK     1      16.681   0.593  34.705  1.00  0.00     0.054 A 
BRANCH  14  18
HETATM   18  O6  UNK     1      19.082   2.563  37.460  1.00  0.00    -0.358 OA
HETATM   19  H8  UNK     1      19.887   2.858  37.001  1.00  0.00     0.217 HD
ENDBRANCH  14  18
BRANCH  15  20
HETATM   20  O8  UNK     1      16.507   1.817  38.151  1.00  0.00    -0.356 OA
HETATM   21  H10 UNK     1      15.547   1.951  38.107  1.00  0.00     0.218 HD
ENDBRANCH  15  20
BRANCH  16  22
HETATM   22  O7  UNK     1      14.918   0.504  36.302  1.00  0.00    -0.358 OA
HETATM   23  H9  UNK     1      14.939  -0.319  36.816  1.00  0.00     0.217 HD
ENDBRANCH  16  22
ENDBRANCH   4  12
BRANCH   6  24
HETATM   24  O2  UNK     1      17.868   2.797  32.122  1.00  0.00    -0.355 OA
HETATM   25  H5  UNK     1      18.324   3.293  32.820  1.00  0.00     0.218 HD
ENDBRANCH   6  24
BRANCH   8  26
HETATM   26  O3  UNK     1      20.151   0.107  28.256  1.00  0.00    -0.360 OA
HETATM   27  H6  UNK     1      20.650  -0.343  27.558  1.00  0.00     0.217 HD
ENDBRANCH   8  26
BRANCH  10  28
HETATM   28  O5  UNK     1      21.292  -3.959  30.425  1.00  0.00    -0.361 OA
HETATM   29  H7  UNK     1      22.255  -3.868  30.329  1.00  0.00     0.217 HD
ENDBRANCH  10  28
TORSDOF 7
ENDMDL
MODEL 10
REMARK VINA RESULT:      -7.8     15.615     19.341
REMARK  7 active torsions:
REMARK  status: ('A' for Active; 'I' for Inactive)
REMARK    1  A    between atoms: C5_13  and  O2_2 
REMARK    2  A    between atoms: C7_15  and  O3_3 
REMARK    3  A    between atoms: C11_19  and  O5_5 
REMARK    4  A    between atoms: C13_21  and  O6_6 
REMARK    5  A    between atoms: C14_22  and  O7_7 
REMARK    6  A    between atoms: C15_23  and  O8_8 
REMARK    7  A    between atoms: C2_10  and  C4_12 
ROOT
HETATM    1  O1  UNK     1      17.960   9.169  33.261  1.00  0.00    -0.306 OA
HETATM    2  O4  UNK     1      14.029   9.625  34.237  1.00  0.00    -0.284 OA
HETATM    3  C1  UNK     1      16.204  10.538  34.228  1.00  0.00     0.084 A 
HETATM    4  C2  UNK     1      17.026   8.186  32.977  1.00  0.00     0.123 A 
HETATM    5  C3  UNK     1      17.533  10.320  33.871  1.00  0.00     0.096 A 
HETATM    6  C5  UNK     1      15.716   8.267  33.276  1.00  0.00     0.152 A 
HETATM    7  C6  UNK     1      15.210   9.492  33.941  1.00  0.00     0.223 A 
HETATM    8  C7  UNK     1      15.827  11.731  34.849  1.00  0.00     0.085 A 
HETATM    9  C8  UNK     1      18.495  11.295  34.135  1.00  0.00     0.075 A 
HETATM   10  C11 UNK     1      18.123  12.488  34.755  1.00  0.00     0.071 A 
HETATM   11  C12 UNK     1      16.791  12.705  35.111  1.00  0.00     0.074 A 
ENDROOT
BRANCH   4  12
HETATM   12  C4  UNK     1      17.616   7.004  32.324  1.00  0.00     0.006 A 
HETATM   13  C10 UNK     1      17.495   5.745  32.913  1.00  0.00     0.054 A 
HETATM   14  C13 UNK     1      18.055   4.628  32.295  1.00  0.00     0.102 A 
HETATM   15  C15 UNK     1      18.738   4.768  31.086  1.00  0.00     0.132 A 
HETATM   16  C14 UNK     1      18.859   6.027  30.496  1.00  0.00     0.102 A 
HETATM   17  C9  UNK     1      18.298   7.144  31.114  1.00  0.00     0.054 A 
BRANCH  14  18
HETATM   18  O6  UNK     1      17.932   3.406  32.882  1.00  0.00    -0.358 OA
HETATM   19  H8  UNK     1      16.995   3.263  33.098  1.00  0.00     0.217 HD
ENDBRANCH  14  18
BRANCH  15  20
HETATM   20  O8  UNK     1      19.287   3.676  30.482  1.00  0.00    -0.356 OA
HETATM   21  H10 UNK     1      18.906   2.868  30.860  1.00  0.00     0.218 HD
ENDBRANCH  15  20
BRANCH  16  22
HETATM   22  O7  UNK     1      19.521   6.177  29.316  1.00  0.00    -0.358 OA
HETATM   23  H9  UNK     1      19.404   7.084  28.988  1.00  0.00     0.217 HD
ENDBRANCH  16  22
ENDBRANCH   4  12
BRANCH   6  24
HETATM   24  O2  UNK     1      14.819   7.257  33.009  1.00  0.00    -0.355 OA
HETATM   25  H5  UNK     1      14.325   7.460  32.199  1.00  0.00     0.218 HD
ENDBRANCH   6  24
BRANCH   8  26
HETATM   26  O3  UNK     1      14.542  11.994  35.218  1.00  0.00    -0.360 OA
HETATM   27  H6  UNK     1      14.091  11.178  35.484  1.00  0.00     0.217 HD
ENDBRANCH   8  26
BRANCH  10  28
HETATM   28  O5  UNK     1      19.060  13.442  35.013  1.00  0.00    -0.361 OA
HETATM   29  H7  UNK     1      19.631  13.135  35.737  1.00  0.00     0.217 HD
ENDBRANCH  10  28
TORSDOF 7
ENDMDL
