MODEL 1
REMARK VINA RESULT:      -9.5      0.000      0.000
REMARK  2 active torsions:
REMARK  status: ('A' for Active; 'I' for Inactive)
REMARK       I    between atoms: C5_11  and  N1_6 
REMARK    1  A    between atoms: C7_13  and  N1_6 
REMARK    2  A    between atoms: C2_8  and  C5_11 
ROOT
HETATM    1  O2  UNK     1      17.611   3.234  32.856  1.00  0.00    -0.267 OA
HETATM    2  N1  UNK     1      18.665   4.743  31.387  1.00  0.00    -0.323 N 
HETATM    3  C5  UNK     1      18.264   3.497  31.847  1.00  0.00     0.262 C 
HETATM    4  H3  UNK     1      19.187   4.792  30.515  1.00  0.00     0.169 HD
ENDROOT
BRANCH   3   5
HETATM    5  C2  UNK     1      18.711   2.411  30.966  1.00  0.00     0.108 A 
HETATM    6  C4  UNK     1      19.127   1.292  31.571  1.00  0.00     0.037 A 
HETATM    7  C1  UNK     1      19.591   0.161  30.782  1.00  0.00    -0.001 A 
HETATM    8  C3  UNK     1      19.594   0.264  29.395  1.00  0.00     0.089 A 
HETATM    9  C6  UNK     1      20.033  -1.026  31.371  1.00  0.00     0.014 A 
HETATM   10  O1  UNK     1      19.155   1.445  28.764  1.00  0.00    -0.274 OA
HETATM   11  C9  UNK     1      20.025  -0.782  28.582  1.00  0.00     0.038 A 
HETATM   12  C8  UNK     1      18.705   2.544  29.492  1.00  0.00     0.304 A 
HETATM   13  O3  UNK     1      18.326   3.567  28.934  1.00  0.00    -0.259 OA
HETATM   14  C11 UNK     1      20.465  -1.963  29.177  1.00  0.00     0.003 A 
HETATM   15  C10 UNK     1      20.469  -2.085  30.568  1.00  0.00     0.001 A 
ENDBRANCH   3   5
BRANCH   2  16
HETATM   16  C7  UNK     1      18.412   6.005  31.978  1.00  0.00     0.038 A 
HETATM   17  C12 UNK     1      17.203   6.636  31.734  1.00  0.00     0.053 A 
HETATM   18  C15 UNK     1      16.954   7.878  32.318  1.00  0.00     0.037 A 
HETATM   19 Cl2  UNK     1      15.458   8.680  32.029  1.00  0.00    -0.084 Cl
HETATM   20  C16 UNK     1      17.916   8.472  33.134  1.00  0.00     0.048 A 
HETATM   21  C14 UNK     1      19.128   7.822  33.369  1.00  0.00     0.037 A 
HETATM   22  C13 UNK     1      19.378   6.579  32.786  1.00  0.00     0.053 A 
HETATM   23 Cl1  UNK     1      20.316   8.554  34.377  1.00  0.00    -0.084 Cl
ENDBRANCH   2  16
TORSDOF 2
ENDMDL
MODEL 2
REMARK VINA RESULT:      -9.1      1.597      2.296
REMARK  2 active torsions:
REMARK  status: ('A' for Active; 'I' for Inactive)
REMARK       I    between atoms: C5_11  and  N1_6 
REMARK    1  A    between atoms: C7_13  and  N1_6 
REMARK    2  A    between atoms: C2_8  and  C5_11 
ROOT
HETATM    1  O2  UNK     1      17.148   4.505  31.214  1.00  0.00    -0.267 OA
HETATM    2  N1  UNK     1      18.521   4.706  33.117  1.00  0.00    -0.323 N 
HETATM    3  C5  UNK     1      17.948   4.056  32.032  1.00  0.00     0.262 C 
HETATM    4  H3  UNK     1      19.188   4.194  33.690  1.00  0.00     0.169 HD
ENDROOT
BRANCH   3   5
HETATM    5  C2  UNK     1      18.408   2.666  31.914  1.00  0.00     0.108 A 
HETATM    6  C4  UNK     1      18.854   2.292  30.709  1.00  0.00     0.037 A 
HETATM    7  C1  UNK     1      19.330   0.933  30.494  1.00  0.00    -0.001 A 
HETATM    8  C3  UNK     1      19.311   0.037  31.556  1.00  0.00     0.089 A 
HETATM    9  C6  UNK     1      19.805   0.500  29.254  1.00  0.00     0.014 A 
HETATM   10  O1  UNK     1      18.839   0.437  32.822  1.00  0.00    -0.274 OA
HETATM   11  C9  UNK     1      19.751  -1.277  31.416  1.00  0.00     0.038 A 
HETATM   12  C8  UNK     1      18.378   1.729  33.060  1.00  0.00     0.304 A 
HETATM   13  O3  UNK     1      17.969   2.069  34.165  1.00  0.00    -0.259 OA
HETATM   14  C11 UNK     1      20.224  -1.703  30.176  1.00  0.00     0.003 A 
HETATM   15  C10 UNK     1      20.251  -0.816  29.097  1.00  0.00     0.001 A 
ENDBRANCH   3   5
BRANCH   2  16
HETATM   16  C7  UNK     1      18.311   6.043  33.532  1.00  0.00     0.038 A 
HETATM   17  C12 UNK     1      17.016   6.506  33.691  1.00  0.00     0.053 A 
HETATM   18  C15 UNK     1      16.809   7.824  34.101  1.00  0.00     0.037 A 
HETATM   19 Cl2  UNK     1      15.207   8.420  34.305  1.00  0.00    -0.084 Cl
HETATM   20  C16 UNK     1      17.900   8.658  34.344  1.00  0.00     0.048 A 
HETATM   21  C14 UNK     1      19.198   8.174  34.180  1.00  0.00     0.037 A 
HETATM   22  C13 UNK     1      19.406   6.857  33.770  1.00  0.00     0.053 A 
HETATM   23 Cl1  UNK     1      20.545   9.203  34.481  1.00  0.00    -0.084 Cl
ENDBRANCH   2  16
TORSDOF 2
ENDMDL
MODEL 3
REMARK VINA RESULT:      -9.1      1.596      2.935
REMARK  2 active torsions:
REMARK  status: ('A' for Active; 'I' for Inactive)
REMARK       I    between atoms: C5_11  and  N1_6 
REMARK    1  A    between atoms: C7_13  and  N1_6 
REMARK    2  A    between atoms: C2_8  and  C5_11 
ROOT
HETATM    1  O2  UNK     1      17.129   4.502  31.224  1.00  0.00    -0.267 OA
HETATM    2  N1  UNK     1      18.518   4.710  33.114  1.00  0.00    -0.323 N 
HETATM    3  C5  UNK     1      17.939   4.057  32.035  1.00  0.00     0.262 C 
HETATM    4  H3  UNK     1      19.192   4.202  33.682  1.00  0.00     0.169 HD
ENDROOT
BRANCH   3   5
HETATM    5  C2  UNK     1      18.402   2.669  31.915  1.00  0.00     0.108 A 
HETATM    6  C4  UNK     1      18.849   2.298  30.710  1.00  0.00     0.037 A 
HETATM    7  C1  UNK     1      19.329   0.941  30.492  1.00  0.00    -0.001 A 
HETATM    8  C3  UNK     1      19.311   0.042  31.553  1.00  0.00     0.089 A 
HETATM    9  C6  UNK     1      19.805   0.510  29.252  1.00  0.00     0.014 A 
HETATM   10  O1  UNK     1      18.838   0.439  32.820  1.00  0.00    -0.274 OA
HETATM   11  C9  UNK     1      19.755  -1.270  31.411  1.00  0.00     0.038 A 
HETATM   12  C8  UNK     1      18.374   1.730  33.059  1.00  0.00     0.304 A 
HETATM   13  O3  UNK     1      17.964   2.067  34.164  1.00  0.00    -0.259 OA
HETATM   14  C11 UNK     1      20.229  -1.693  30.170  1.00  0.00     0.003 A 
HETATM   15  C10 UNK     1      20.254  -0.805  29.093  1.00  0.00     0.001 A 
ENDBRANCH   3   5
BRANCH   2  16
HETATM   16  C7  UNK     1      18.308   6.048  33.529  1.00  0.00     0.038 A 
HETATM   17  C12 UNK     1      19.402   6.861  33.770  1.00  0.00     0.053 A 
HETATM   18  C15 UNK     1      19.194   8.179  34.178  1.00  0.00     0.037 A 
HETATM   19 Cl2  UNK     1      20.541   9.208  34.482  1.00  0.00    -0.084 Cl
HETATM   20  C16 UNK     1      17.897   8.664  34.339  1.00  0.00     0.048 A 
HETATM   21  C14 UNK     1      16.806   7.830  34.091  1.00  0.00     0.037 A 
HETATM   22  C13 UNK     1      17.012   6.512  33.683  1.00  0.00     0.053 A 
HETATM   23 Cl1  UNK     1      15.204   8.428  34.289  1.00  0.00    -0.084 Cl
ENDBRANCH   2  16
TORSDOF 2
ENDMDL
MODEL 4
REMARK VINA RESULT:      -8.6      8.229      9.943
REMARK  2 active torsions:
REMARK  status: ('A' for Active; 'I' for Inactive)
REMARK       I    between atoms: C5_11  and  N1_6 
REMARK    1  A    between atoms: C7_13  and  N1_6 
REMARK    2  A    between atoms: C2_8  and  C5_11 
ROOT
HETATM    1  O2  UNK     1      20.909  -3.192  37.721  1.00  0.00    -0.267 OA
HETATM    2  N1  UNK     1      19.019  -3.243  36.316  1.00  0.00    -0.323 N 
HETATM    3  C5  UNK     1      20.059  -3.785  37.058  1.00  0.00     0.262 C 
HETATM    4  H3  UNK     1      18.384  -3.877  35.838  1.00  0.00     0.169 HD
ENDROOT
BRANCH   3   5
HETATM    5  C2  UNK     1      20.078  -5.252  36.996  1.00  0.00     0.108 A 
HETATM    6  C4  UNK     1      20.008  -5.895  38.167  1.00  0.00     0.037 A 
HETATM    7  C1  UNK     1      20.021  -7.349  38.207  1.00  0.00    -0.001 A 
HETATM    8  C3  UNK     1      20.108  -8.055  37.012  1.00  0.00     0.089 A 
HETATM    9  C6  UNK     1      19.950  -8.061  39.407  1.00  0.00     0.014 A 
HETATM   10  O1  UNK     1      20.181  -7.373  35.782  1.00  0.00    -0.274 OA
HETATM   11  C9  UNK     1      20.125  -9.448  36.981  1.00  0.00     0.038 A 
HETATM   12  C8  UNK     1      20.170  -5.982  35.711  1.00  0.00     0.304 A 
HETATM   13  O3  UNK     1      20.234  -5.396  34.636  1.00  0.00    -0.259 OA
HETATM   14  C11 UNK     1      20.054 -10.151  38.182  1.00  0.00     0.003 A 
HETATM   15  C10 UNK     1      19.967  -9.459  39.393  1.00  0.00     0.001 A 
ENDBRANCH   3   5
BRANCH   2  16
HETATM   16  C7  UNK     1      18.698  -1.874  36.152  1.00  0.00     0.038 A 
HETATM   17  C12 UNK     1      18.770  -1.309  34.889  1.00  0.00     0.053 A 
HETATM   18  C15 UNK     1      18.452   0.040  34.727  1.00  0.00     0.037 A 
HETATM   19 Cl2  UNK     1      18.535   0.761  33.167  1.00  0.00    -0.084 Cl
HETATM   20  C16 UNK     1      18.068   0.803  35.829  1.00  0.00     0.048 A 
HETATM   21  C14 UNK     1      18.000   0.218  37.094  1.00  0.00     0.037 A 
HETATM   22  C13 UNK     1      18.318  -1.130  37.257  1.00  0.00     0.053 A 
HETATM   23 Cl1  UNK     1      17.526   1.160  38.454  1.00  0.00    -0.084 Cl
ENDBRANCH   2  16
TORSDOF 2
ENDMDL
MODEL 5
REMARK VINA RESULT:      -8.6      8.789     12.003
REMARK  2 active torsions:
REMARK  status: ('A' for Active; 'I' for Inactive)
REMARK       I    between atoms: C5_11  and  N1_6 
REMARK    1  A    between atoms: C7_13  and  N1_6 
REMARK    2  A    between atoms: C2_8  and  C5_11 
ROOT
HETATM    1  O2  UNK     1      21.400  -4.276  37.325  1.00  0.00    -0.267 OA
HETATM    2  N1  UNK     1      19.690  -5.379  36.139  1.00  0.00    -0.323 N 
HETATM    3  C5  UNK     1      20.399  -4.283  36.610  1.00  0.00     0.262 C 
HETATM    4  H3  UNK     1      18.889  -5.213  35.534  1.00  0.00     0.169 HD
ENDROOT
BRANCH   3   5
HETATM    5  C2  UNK     1      19.822  -3.012  36.154  1.00  0.00     0.108 A 
HETATM    6  C4  UNK     1      19.104  -2.332  37.055  1.00  0.00     0.037 A 
HETATM    7  C1  UNK     1      18.491  -1.061  36.696  1.00  0.00    -0.001 A 
HETATM    8  C3  UNK     1      18.663  -0.571  35.406  1.00  0.00     0.089 A 
HETATM    9  C6  UNK     1      17.735  -0.317  37.605  1.00  0.00     0.014 A 
HETATM   10  O1  UNK     1      19.420  -1.293  34.462  1.00  0.00    -0.274 OA
HETATM   11  C9  UNK     1      18.103   0.637  34.999  1.00  0.00     0.038 A 
HETATM   12  C8  UNK     1      20.019  -2.510  34.775  1.00  0.00     0.304 A 
HETATM   13  O3  UNK     1      20.675  -3.132  33.947  1.00  0.00    -0.259 OA
HETATM   14  C11 UNK     1      17.350   1.374  35.911  1.00  0.00     0.003 A 
HETATM   15  C10 UNK     1      17.166   0.898  37.211  1.00  0.00     0.001 A 
ENDBRANCH   3   5
BRANCH   2  16
HETATM   16  C7  UNK     1      19.959  -6.748  36.376  1.00  0.00     0.038 A 
HETATM   17  C12 UNK     1      20.629  -7.483  35.411  1.00  0.00     0.053 A 
HETATM   18  C15 UNK     1      20.895  -8.832  35.645  1.00  0.00     0.037 A 
HETATM   19 Cl2  UNK     1      21.726  -9.763  34.460  1.00  0.00    -0.084 Cl
HETATM   20  C16 UNK     1      20.487  -9.427  36.839  1.00  0.00     0.048 A 
HETATM   21  C14 UNK     1      19.814  -8.672  37.800  1.00  0.00     0.037 A 
HETATM   22  C13 UNK     1      19.547  -7.323  37.566  1.00  0.00     0.053 A 
HETATM   23 Cl1  UNK     1      19.310  -9.406  39.273  1.00  0.00    -0.084 Cl
ENDBRANCH   2  16
TORSDOF 2
ENDMDL
MODEL 6
REMARK VINA RESULT:      -8.6      8.781     11.995
REMARK  2 active torsions:
REMARK  status: ('A' for Active; 'I' for Inactive)
REMARK       I    between atoms: C5_11  and  N1_6 
REMARK    1  A    between atoms: C7_13  and  N1_6 
REMARK    2  A    between atoms: C2_8  and  C5_11 
ROOT
HETATM    1  O2  UNK     1      21.434  -4.278  37.257  1.00  0.00    -0.267 OA
HETATM    2  N1  UNK     1      19.688  -5.381  36.124  1.00  0.00    -0.323 N 
HETATM    3  C5  UNK     1      20.414  -4.285  36.570  1.00  0.00     0.262 C 
HETATM    4  H3  UNK     1      18.871  -5.215  35.541  1.00  0.00     0.169 HD
ENDROOT
BRANCH   3   5
HETATM    5  C2  UNK     1      19.828  -3.015  36.124  1.00  0.00     0.108 A 
HETATM    6  C4  UNK     1      19.102  -2.348  37.029  1.00  0.00     0.037 A 
HETATM    7  C1  UNK     1      18.481  -1.079  36.680  1.00  0.00    -0.001 A 
HETATM    8  C3  UNK     1      18.653  -0.576  35.395  1.00  0.00     0.089 A 
HETATM    9  C6  UNK     1      17.716  -0.349  37.593  1.00  0.00     0.014 A 
HETATM   10  O1  UNK     1      19.418  -1.283  34.446  1.00  0.00    -0.274 OA
HETATM   11  C9  UNK     1      18.085   0.632  34.997  1.00  0.00     0.038 A 
HETATM   12  C8  UNK     1      20.025  -2.499  34.751  1.00  0.00     0.304 A 
HETATM   13  O3  UNK     1      20.689  -3.108  33.918  1.00  0.00    -0.259 OA
HETATM   14  C11 UNK     1      17.323   1.354  35.913  1.00  0.00     0.003 A 
HETATM   15  C10 UNK     1      17.139   0.865  37.209  1.00  0.00     0.001 A 
ENDBRANCH   3   5
BRANCH   2  16
HETATM   16  C7  UNK     1      19.959  -6.750  36.360  1.00  0.00     0.038 A 
HETATM   17  C12 UNK     1      19.542  -7.327  37.548  1.00  0.00     0.053 A 
HETATM   18  C15 UNK     1      19.808  -8.677  37.780  1.00  0.00     0.037 A 
HETATM   19 Cl2  UNK     1      19.297  -9.415  39.249  1.00  0.00    -0.084 Cl
HETATM   20  C16 UNK     1      20.488  -9.429  36.822  1.00  0.00     0.048 A 
HETATM   21  C14 UNK     1      20.902  -8.831  35.631  1.00  0.00     0.037 A 
HETATM   22  C13 UNK     1      20.636  -7.482  35.399  1.00  0.00     0.053 A 
HETATM   23 Cl1  UNK     1      21.742  -9.758  34.449  1.00  0.00    -0.084 Cl
ENDBRANCH   2  16
TORSDOF 2
ENDMDL
MODEL 7
REMARK VINA RESULT:      -8.6      3.432      4.409
REMARK  2 active torsions:
REMARK  status: ('A' for Active; 'I' for Inactive)
REMARK       I    between atoms: C5_11  and  N1_6 
REMARK    1  A    between atoms: C7_13  and  N1_6 
REMARK    2  A    between atoms: C2_8  and  C5_11 
ROOT
HETATM    1  O2  UNK     1      17.900   3.265  32.058  1.00  0.00    -0.267 OA
HETATM    2  N1  UNK     1      18.266   4.345  34.118  1.00  0.00    -0.323 N 
HETATM    3  C5  UNK     1      18.115   3.258  33.269  1.00  0.00     0.262 C 
HETATM    4  H3  UNK     1      18.463   4.167  35.100  1.00  0.00     0.169 HD
ENDROOT
BRANCH   3   5
HETATM    5  C2  UNK     1      18.242   1.979  33.978  1.00  0.00     0.108 A 
HETATM    6  C4  UNK     1      17.965   1.998  35.287  1.00  0.00     0.037 A 
HETATM    7  C1  UNK     1      18.064   0.779  36.075  1.00  0.00    -0.001 A 
HETATM    8  C3  UNK     1      18.451  -0.399  35.447  1.00  0.00     0.089 A 
HETATM    9  C6  UNK     1      17.783   0.753  37.443  1.00  0.00     0.014 A 
HETATM   10  O1  UNK     1      18.743  -0.414  34.069  1.00  0.00    -0.274 OA
HETATM   11  C9  UNK     1      18.566  -1.600  36.144  1.00  0.00     0.038 A 
HETATM   12  C8  UNK     1      18.656   0.736  33.288  1.00  0.00     0.304 A 
HETATM   13  O3  UNK     1      18.913   0.715  32.089  1.00  0.00    -0.259 OA
HETATM   14  C11 UNK     1      18.284  -1.618  37.509  1.00  0.00     0.003 A 
HETATM   15  C10 UNK     1      17.894  -0.444  38.157  1.00  0.00     0.001 A 
ENDBRANCH   3   5
BRANCH   2  16
HETATM   16  C7  UNK     1      18.207   5.719  33.782  1.00  0.00     0.038 A 
HETATM   17  C12 UNK     1      17.160   6.179  33.001  1.00  0.00     0.053 A 
HETATM   18  C15 UNK     1      17.101   7.534  32.671  1.00  0.00     0.037 A 
HETATM   19 Cl2  UNK     1      15.809   8.127  31.702  1.00  0.00    -0.084 Cl
HETATM   20  C16 UNK     1      18.090   8.406  33.126  1.00  0.00     0.048 A 
HETATM   21  C14 UNK     1      19.137   7.925  33.912  1.00  0.00     0.037 A 
HETATM   22  C13 UNK     1      19.196   6.571  34.243  1.00  0.00     0.053 A 
HETATM   23 Cl1  UNK     1      20.357   9.002  34.474  1.00  0.00    -0.084 Cl
ENDBRANCH   2  16
TORSDOF 2
ENDMDL
MODEL 8
REMARK VINA RESULT:      -8.5      8.306     10.097
REMARK  2 active torsions:
REMARK  status: ('A' for Active; 'I' for Inactive)
REMARK       I    between atoms: C5_11  and  N1_6 
REMARK    1  A    between atoms: C7_13  and  N1_6 
REMARK    2  A    between atoms: C2_8  and  C5_11 
ROOT
HETATM    1  O2  UNK     1      21.044  -3.372  37.502  1.00  0.00    -0.267 OA
HETATM    2  N1  UNK     1      19.000  -3.386  36.331  1.00  0.00    -0.323 N 
HETATM    3  C5  UNK     1      20.105  -3.948  36.956  1.00  0.00     0.262 C 
HETATM    4  H3  UNK     1      18.295  -4.008  35.944  1.00  0.00     0.169 HD
ENDROOT
BRANCH   3   5
HETATM    5  C2  UNK     1      20.074  -5.416  36.920  1.00  0.00     0.108 A 
HETATM    6  C4  UNK     1      19.989  -6.035  38.103  1.00  0.00     0.037 A 
HETATM    7  C1  UNK     1      19.952  -7.488  38.169  1.00  0.00    -0.001 A 
HETATM    8  C3  UNK     1      20.009  -8.218  36.987  1.00  0.00     0.089 A 
HETATM    9  C6  UNK     1      19.863  -8.175  39.382  1.00  0.00     0.014 A 
HETATM   10  O1  UNK     1      20.099  -7.560  35.744  1.00  0.00    -0.274 OA
HETATM   11  C9  UNK     1      19.979  -9.610  36.981  1.00  0.00     0.038 A 
HETATM   12  C8  UNK     1      20.134  -6.171  35.648  1.00  0.00     0.304 A 
HETATM   13  O3  UNK     1      20.213  -5.608  34.562  1.00  0.00    -0.259 OA
HETATM   14  C11 UNK     1      19.890 -10.289  38.195  1.00  0.00     0.003 A 
HETATM   15  C10 UNK     1      19.833  -9.573  39.393  1.00  0.00     0.001 A 
ENDBRANCH   3   5
BRANCH   2  16
HETATM   16  C7  UNK     1      18.701  -2.011  36.180  1.00  0.00     0.038 A 
HETATM   17  C12 UNK     1      18.344  -1.269  37.294  1.00  0.00     0.053 A 
HETATM   18  C15 UNK     1      18.050   0.087  37.144  1.00  0.00     0.037 A 
HETATM   19 Cl2  UNK     1      17.605   1.027  38.515  1.00  0.00    -0.084 Cl
HETATM   20  C16 UNK     1      18.117   0.680  35.884  1.00  0.00     0.048 A 
HETATM   21  C14 UNK     1      18.479  -0.082  34.773  1.00  0.00     0.037 A 
HETATM   22  C13 UNK     1      18.773  -1.437  34.921  1.00  0.00     0.053 A 
HETATM   23 Cl1  UNK     1      18.562   0.651  33.217  1.00  0.00    -0.084 Cl
ENDBRANCH   2  16
TORSDOF 2
ENDMDL
MODEL 9
REMARK VINA RESULT:      -8.5      8.997     11.917
REMARK  2 active torsions:
REMARK  status: ('A' for Active; 'I' for Inactive)
REMARK       I    between atoms: C5_11  and  N1_6 
REMARK    1  A    between atoms: C7_13  and  N1_6 
REMARK    2  A    between atoms: C2_8  and  C5_11 
ROOT
HETATM    1  O2  UNK     1      20.080  -5.211  35.376  1.00  0.00    -0.267 OA
HETATM    2  N1  UNK     1      20.587  -4.626  37.600  1.00  0.00    -0.323 N 
HETATM    3  C5  UNK     1      20.150  -4.404  36.301  1.00  0.00     0.262 C 
HETATM    4  H3  UNK     1      20.561  -3.850  38.257  1.00  0.00     0.169 HD
ENDROOT
BRANCH   3   5
HETATM    5  C2  UNK     1      19.735  -3.012  36.087  1.00  0.00     0.108 A 
HETATM    6  C4  UNK     1      19.008  -2.455  37.063  1.00  0.00     0.037 A 
HETATM    7  C1  UNK     1      18.549  -1.079  36.941  1.00  0.00    -0.001 A 
HETATM    8  C3  UNK     1      18.877  -0.359  35.797  1.00  0.00     0.089 A 
HETATM    9  C6  UNK     1      17.790  -0.458  37.935  1.00  0.00     0.014 A 
HETATM   10  O1  UNK     1      19.642  -0.952  34.773  1.00  0.00    -0.274 OA
HETATM   11  C9  UNK     1      18.469   0.960  35.619  1.00  0.00     0.038 A 
HETATM   12  C8  UNK     1      20.096  -2.266  34.861  1.00  0.00     0.304 A 
HETATM   13  O3  UNK     1      20.760  -2.773  33.964  1.00  0.00    -0.259 OA
HETATM   14  C11 UNK     1      17.711   1.574  36.615  1.00  0.00     0.003 A 
HETATM   15  C10 UNK     1      17.372   0.867  37.770  1.00  0.00     0.001 A 
ENDBRANCH   3   5
BRANCH   2  16
HETATM   16  C7  UNK     1      21.056  -5.839  38.158  1.00  0.00     0.038 A 
HETATM   17  C12 UNK     1      20.141  -6.809  38.533  1.00  0.00     0.053 A 
HETATM   18  C15 UNK     1      20.604  -8.006  39.082  1.00  0.00     0.037 A 
HETATM   19 Cl2  UNK     1      19.484  -9.225  39.555  1.00  0.00    -0.084 Cl
HETATM   20  C16 UNK     1      21.972  -8.214  39.249  1.00  0.00     0.048 A 
HETATM   21  C14 UNK     1      22.880  -7.226  38.865  1.00  0.00     0.037 A 
HETATM   22  C13 UNK     1      22.418  -6.030  38.316  1.00  0.00     0.053 A 
HETATM   23 Cl1  UNK     1      24.569  -7.483  39.070  1.00  0.00    -0.084 Cl
ENDBRANCH   2  16
TORSDOF 2
ENDMDL
MODEL 10
REMARK VINA RESULT:      -8.3     14.604     16.075
REMARK  2 active torsions:
REMARK  status: ('A' for Active; 'I' for Inactive)
REMARK       I    between atoms: C5_11  and  N1_6 
REMARK    1  A    between atoms: C7_13  and  N1_6 
REMARK    2  A    between atoms: C2_8  and  C5_11 
ROOT
HETATM    1  O2  UNK     1      25.881  -9.069  39.477  1.00  0.00    -0.267 OA
HETATM    2  N1  UNK     1      24.700  -7.669  37.996  1.00  0.00    -0.323 N 
HETATM    3  C5  UNK     1      25.775  -8.060  38.783  1.00  0.00     0.262 C 
HETATM    4  H3  UNK     1      24.780  -6.808  37.461  1.00  0.00     0.169 HD
ENDROOT
BRANCH   3   5
HETATM    5  C2  UNK     1      26.882  -7.097  38.723  1.00  0.00     0.108 A 
HETATM    6  C4  UNK     1      28.109  -7.615  38.586  1.00  0.00     0.037 A 
HETATM    7  C1  UNK     1      29.270  -6.741  38.519  1.00  0.00    -0.001 A 
HETATM    8  C3  UNK     1      29.083  -5.366  38.600  1.00  0.00     0.089 A 
HETATM    9  C6  UNK     1      30.568  -7.238  38.375  1.00  0.00     0.014 A 
HETATM   10  O1  UNK     1      27.789  -4.826  38.745  1.00  0.00    -0.274 OA
HETATM   11  C9  UNK     1      30.152  -4.474  38.543  1.00  0.00     0.038 A 
HETATM   12  C8  UNK     1      26.659  -5.637  38.812  1.00  0.00     0.304 A 
HETATM   13  O3  UNK     1      25.537  -5.159  38.939  1.00  0.00    -0.259 OA
HETATM   14  C11 UNK     1      31.444  -4.978  38.400  1.00  0.00     0.003 A 
HETATM   15  C10 UNK     1      31.652  -6.356  38.316  1.00  0.00     0.001 A 
ENDBRANCH   3   5
BRANCH   2  16
HETATM   16  C7  UNK     1      23.472  -8.349  37.813  1.00  0.00     0.038 A 
HETATM   17  C12 UNK     1      22.419  -8.089  38.675  1.00  0.00     0.053 A 
HETATM   18  C15 UNK     1      21.209  -8.758  38.494  1.00  0.00     0.037 A 
HETATM   19 Cl2  UNK     1      19.888  -8.449  39.553  1.00  0.00    -0.084 Cl
HETATM   20  C16 UNK     1      21.069  -9.678  37.455  1.00  0.00     0.048 A 
HETATM   21  C14 UNK     1      22.139  -9.928  36.596  1.00  0.00     0.037 A 
HETATM   22  C13 UNK     1      23.350  -9.260  36.777  1.00  0.00     0.053 A 
HETATM   23 Cl1  UNK     1      21.967 -11.064  35.314  1.00  0.00    -0.084 Cl
ENDBRANCH   2  16
TORSDOF 2
ENDMDL
