MODEL 1
REMARK VINA RESULT:      -8.8      0.000      0.000
REMARK  6 active torsions:
REMARK  status: ('A' for Active; 'I' for Inactive)
REMARK    1  A    between atoms: C3_9  and  O1_2 
REMARK    2  A    between atoms: C9_15  and  O1_2 
REMARK    3  A    between atoms: C12_18  and  O3_4 
REMARK    4  A    between atoms: C8_14  and  O3_4 
REMARK    5  A    between atoms: C20_26  and  O5_6 
REMARK    6  A    between atoms: C10_16  and  C9_15 
ROOT
HETATM    1  O2  UNK     1      19.861  -1.923  34.411  1.00  0.00    -0.319 OA
HETATM    2  O4  UNK     1      18.743  -1.680  38.331  1.00  0.00    -0.284 OA
HETATM    3  C1  UNK     1      18.677  -0.728  36.168  1.00  0.00     0.051 A 
HETATM    4  C2  UNK     1      19.092  -0.870  34.842  1.00  0.00     0.092 A 
HETATM    5  C3  UNK     1      17.945   1.175  34.268  1.00  0.00     0.071 A 
HETATM    6  C4  UNK     1      18.727   0.083  33.890  1.00  0.00     0.075 A 
HETATM    7  C5  UNK     1      17.895   0.365  36.549  1.00  0.00     0.021 A 
HETATM    8  C6  UNK     1      19.076  -1.748  37.156  1.00  0.00     0.220 A 
HETATM    9  C7  UNK     1      17.531   1.315  35.595  1.00  0.00     0.038 A 
HETATM   10  C8  UNK     1      19.903  -2.861  36.639  1.00  0.00     0.149 A 
HETATM   11  C11 UNK     1      20.224  -2.866  35.343  1.00  0.00     0.184 A 
ENDROOT
BRANCH   5  12
HETATM   12  O1  UNK     1      17.586   2.106  33.343  1.00  0.00    -0.347 OA
BRANCH  12  13
HETATM   13  C9  UNK     1      17.946   3.460  33.611  1.00  0.00     0.216 C 
BRANCH  13  14
HETATM   14  C10 UNK     1      18.412   4.105  32.340  1.00  0.00    -0.012 A 
HETATM   15  C13 UNK     1      18.889   5.412  32.320  1.00  0.00     0.042 A 
HETATM   16 Cl1  UNK     1      18.970   6.364  33.758  1.00  0.00    -0.084 Cl
HETATM   17  C17 UNK     1      19.315   5.978  31.118  1.00  0.00     0.024 A 
HETATM   18  C19 UNK     1      19.261   5.234  29.940  1.00  0.00     0.002 A 
HETATM   19  C18 UNK     1      18.782   3.924  29.963  1.00  0.00     0.001 A 
HETATM   20  C14 UNK     1      18.357   3.359  31.166  1.00  0.00     0.011 A 
ENDBRANCH  13  14
ENDBRANCH  12  13
ENDBRANCH   5  12
BRANCH  10  21
HETATM   21  O3  UNK     1      20.315  -3.854  37.497  1.00  0.00    -0.305 OA
BRANCH  21  22
HETATM   22  C12 UNK     1      19.909  -5.129  37.214  1.00  0.00     0.076 A 
HETATM   23  C15 UNK     1      20.827  -6.173  37.259  1.00  0.00     0.040 A 
HETATM   24  C21 UNK     1      20.411  -7.473  36.968  1.00  0.00     0.039 A 
HETATM   25  C20 UNK     1      19.080  -7.722  36.633  1.00  0.00     0.068 A 
HETATM   26  C22 UNK     1      18.164  -6.671  36.590  1.00  0.00     0.039 A 
HETATM   27  C16 UNK     1      18.579  -5.372  36.881  1.00  0.00     0.040 A 
BRANCH  25  28
HETATM   28  O5  UNK     1      18.676  -8.990  36.350  1.00  0.00    -0.356 OA
HETATM   29  C23 UNK     1      19.156 -10.029  37.201  1.00  0.00     0.210 C 
ENDBRANCH  25  28
ENDBRANCH  21  22
ENDBRANCH  10  21
TORSDOF 6
ENDMDL
MODEL 2
REMARK VINA RESULT:      -8.8     12.515     16.037
REMARK  6 active torsions:
REMARK  status: ('A' for Active; 'I' for Inactive)
REMARK    1  A    between atoms: C3_9  and  O1_2 
REMARK    2  A    between atoms: C9_15  and  O1_2 
REMARK    3  A    between atoms: C12_18  and  O3_4 
REMARK    4  A    between atoms: C8_14  and  O3_4 
REMARK    5  A    between atoms: C20_26  and  O5_6 
REMARK    6  A    between atoms: C10_16  and  C9_15 
ROOT
HETATM    1  O2  UNK     1      33.015  -7.028  37.941  1.00  0.00    -0.319 OA
HETATM    2  O4  UNK     1      33.460  -3.633  35.717  1.00  0.00    -0.284 OA
HETATM    3  C1  UNK     1      32.096  -4.915  37.161  1.00  0.00     0.051 A 
HETATM    4  C2  UNK     1      32.007  -6.096  37.902  1.00  0.00     0.092 A 
HETATM    5  C3  UNK     1      29.799  -5.459  38.642  1.00  0.00     0.071 A 
HETATM    6  C4  UNK     1      30.857  -6.369  38.643  1.00  0.00     0.075 A 
HETATM    7  C5  UNK     1      31.038  -4.004  37.158  1.00  0.00     0.021 A 
HETATM    8  C6  UNK     1      33.321  -4.648  36.384  1.00  0.00     0.220 A 
HETATM    9  C7  UNK     1      29.891  -4.280  37.901  1.00  0.00     0.038 A 
HETATM   10  C8  UNK     1      34.376  -5.684  36.463  1.00  0.00     0.149 A 
HETATM   11  C11 UNK     1      34.151  -6.765  37.214  1.00  0.00     0.184 A 
ENDROOT
BRANCH   5  12
HETATM   12  O1  UNK     1      28.676  -5.722  39.365  1.00  0.00    -0.347 OA
BRANCH  12  13
HETATM   13  C9  UNK     1      27.477  -5.967  38.633  1.00  0.00     0.216 C 
BRANCH  13  14
HETATM   14  C10 UNK     1      27.326  -7.445  38.420  1.00  0.00    -0.012 A 
HETATM   15  C13 UNK     1      27.489  -8.017  37.162  1.00  0.00     0.042 A 
HETATM   16 Cl1  UNK     1      27.873  -7.059  35.778  1.00  0.00    -0.084 Cl
HETATM   17  C17 UNK     1      27.342  -9.395  37.002  1.00  0.00     0.024 A 
HETATM   18  C19 UNK     1      27.032 -10.195  38.102  1.00  0.00     0.002 A 
HETATM   19  C18 UNK     1      26.869  -9.617  39.361  1.00  0.00     0.001 A 
HETATM   20  C14 UNK     1      27.016  -8.240  39.520  1.00  0.00     0.011 A 
ENDBRANCH  13  14
ENDBRANCH  12  13
ENDBRANCH   5  12
BRANCH  10  21
HETATM   21  O3  UNK     1      35.550  -5.510  35.768  1.00  0.00    -0.305 OA
BRANCH  21  22
HETATM   22  C12 UNK     1      35.772  -6.340  34.704  1.00  0.00     0.076 A 
HETATM   23  C15 UNK     1      36.783  -7.292  34.769  1.00  0.00     0.040 A 
HETATM   24  C21 UNK     1      37.010  -8.137  33.682  1.00  0.00     0.039 A 
HETATM   25  C20 UNK     1      36.223  -8.025  32.536  1.00  0.00     0.068 A 
HETATM   26  C22 UNK     1      35.210  -7.068  32.476  1.00  0.00     0.039 A 
HETATM   27  C16 UNK     1      34.984  -6.224  33.563  1.00  0.00     0.040 A 
BRANCH  25  28
HETATM   28  O5  UNK     1      36.445  -8.849  31.476  1.00  0.00    -0.356 OA
HETATM   29  C23 UNK     1      37.338  -9.943  31.681  1.00  0.00     0.210 C 
ENDBRANCH  25  28
ENDBRANCH  21  22
ENDBRANCH  10  21
TORSDOF 6
ENDMDL
MODEL 3
REMARK VINA RESULT:      -8.8      3.051      4.771
REMARK  6 active torsions:
REMARK  status: ('A' for Active; 'I' for Inactive)
REMARK    1  A    between atoms: C3_9  and  O1_2 
REMARK    2  A    between atoms: C9_15  and  O1_2 
REMARK    3  A    between atoms: C12_18  and  O3_4 
REMARK    4  A    between atoms: C8_14  and  O3_4 
REMARK    5  A    between atoms: C20_26  and  O5_6 
REMARK    6  A    between atoms: C10_16  and  C9_15 
ROOT
HETATM    1  O2  UNK     1      20.236  -5.840  34.698  1.00  0.00    -0.319 OA
HETATM    2  O4  UNK     1      20.409  -5.674  38.775  1.00  0.00    -0.284 OA
HETATM    3  C1  UNK     1      20.189  -4.506  36.731  1.00  0.00     0.051 A 
HETATM    4  C2  UNK     1      20.137  -4.630  35.341  1.00  0.00     0.092 A 
HETATM    5  C3  UNK     1      19.872  -2.239  35.140  1.00  0.00     0.071 A 
HETATM    6  C4  UNK     1      19.978  -3.497  34.544  1.00  0.00     0.075 A 
HETATM    7  C5  UNK     1      20.083  -3.248  37.330  1.00  0.00     0.021 A 
HETATM    8  C6  UNK     1      20.357  -5.718  37.554  1.00  0.00     0.220 A 
HETATM    9  C7  UNK     1      19.924  -2.117  36.530  1.00  0.00     0.038 A 
HETATM   10  C8  UNK     1      20.457  -6.995  36.811  1.00  0.00     0.149 A 
HETATM   11  C11 UNK     1      20.391  -6.961  35.478  1.00  0.00     0.184 A 
ENDROOT
BRANCH   5  12
HETATM   12  O1  UNK     1      19.717  -1.131  34.365  1.00  0.00    -0.347 OA
BRANCH  12  13
HETATM   13  C9  UNK     1      18.686  -1.168  33.380  1.00  0.00     0.216 C 
BRANCH  13  14
HETATM   14  C10 UNK     1      19.284  -0.881  32.035  1.00  0.00    -0.012 A 
HETATM   15  C13 UNK     1      19.242   0.393  31.478  1.00  0.00     0.042 A 
HETATM   16 Cl1  UNK     1      18.500   1.715  32.304  1.00  0.00    -0.084 Cl
HETATM   17  C17 UNK     1      19.810   0.622  30.224  1.00  0.00     0.024 A 
HETATM   18  C19 UNK     1      20.416  -0.426  29.532  1.00  0.00     0.002 A 
HETATM   19  C18 UNK     1      20.456  -1.702  30.093  1.00  0.00     0.001 A 
HETATM   20  C14 UNK     1      19.888  -1.930  31.347  1.00  0.00     0.011 A 
ENDBRANCH  13  14
ENDBRANCH  12  13
ENDBRANCH   5  12
BRANCH  10  21
HETATM   21  O3  UNK     1      20.615  -8.172  37.505  1.00  0.00    -0.305 OA
BRANCH  21  22
HETATM   22  C12 UNK     1      21.413  -9.127  36.936  1.00  0.00     0.076 A 
HETATM   23  C15 UNK     1      22.796  -8.982  36.972  1.00  0.00     0.040 A 
HETATM   24  C21 UNK     1      23.608  -9.956  36.390  1.00  0.00     0.039 A 
HETATM   25  C20 UNK     1      23.033 -11.068  35.775  1.00  0.00     0.068 A 
HETATM   26  C22 UNK     1      21.646 -11.208  35.742  1.00  0.00     0.039 A 
HETATM   27  C16 UNK     1      20.834 -10.234  36.324  1.00  0.00     0.040 A 
BRANCH  25  28
HETATM   28  O5  UNK     1      23.827 -12.016  35.207  1.00  0.00    -0.356 OA
HETATM   29  C23 UNK     1      24.662 -12.773  36.083  1.00  0.00     0.210 C 
ENDBRANCH  25  28
ENDBRANCH  21  22
ENDBRANCH  10  21
TORSDOF 6
ENDMDL
MODEL 4
REMARK VINA RESULT:      -8.7      3.278     10.495
REMARK  6 active torsions:
REMARK  status: ('A' for Active; 'I' for Inactive)
REMARK    1  A    between atoms: C3_9  and  O1_2 
REMARK    2  A    between atoms: C9_15  and  O1_2 
REMARK    3  A    between atoms: C12_18  and  O3_4 
REMARK    4  A    between atoms: C8_14  and  O3_4 
REMARK    5  A    between atoms: C20_26  and  O5_6 
REMARK    6  A    between atoms: C10_16  and  C9_15 
ROOT
HETATM    1  O2  UNK     1      19.545  -1.097  33.444  1.00  0.00    -0.319 OA
HETATM    2  O4  UNK     1      17.039   0.847  36.016  1.00  0.00    -0.284 OA
HETATM    3  C1  UNK     1      18.608  -0.888  35.680  1.00  0.00     0.051 A 
HETATM    4  C2  UNK     1      19.447  -1.509  34.751  1.00  0.00     0.092 A 
HETATM    5  C3  UNK     1      20.173  -3.063  36.450  1.00  0.00     0.071 A 
HETATM    6  C4  UNK     1      20.230  -2.598  35.135  1.00  0.00     0.075 A 
HETATM    7  C5  UNK     1      18.550  -1.352  36.996  1.00  0.00     0.021 A 
HETATM    8  C6  UNK     1      17.790   0.261  35.250  1.00  0.00     0.220 A 
HETATM    9  C7  UNK     1      19.334  -2.440  37.377  1.00  0.00     0.038 A 
HETATM   10  C8  UNK     1      17.935   0.664  33.833  1.00  0.00     0.149 A 
HETATM   11  C11 UNK     1      18.777  -0.024  33.059  1.00  0.00     0.184 A 
ENDROOT
BRANCH   5  12
HETATM   12  O1  UNK     1      20.935  -4.124  36.829  1.00  0.00    -0.347 OA
BRANCH  12  13
HETATM   13  C9  UNK     1      20.275  -5.381  36.967  1.00  0.00     0.216 C 
BRANCH  13  14
HETATM   14  C10 UNK     1      21.005  -6.209  37.983  1.00  0.00    -0.012 A 
HETATM   15  C13 UNK     1      20.439  -7.359  38.525  1.00  0.00     0.042 A 
HETATM   16 Cl1  UNK     1      18.866  -7.896  38.058  1.00  0.00    -0.084 Cl
HETATM   17  C17 UNK     1      21.149  -8.104  39.467  1.00  0.00     0.024 A 
HETATM   18  C19 UNK     1      22.422  -7.695  39.863  1.00  0.00     0.002 A 
HETATM   19  C18 UNK     1      22.986  -6.542  39.318  1.00  0.00     0.001 A 
HETATM   20  C14 UNK     1      22.276  -5.797  38.376  1.00  0.00     0.011 A 
ENDBRANCH  13  14
ENDBRANCH  12  13
ENDBRANCH   5  12
BRANCH  10  21
HETATM   21  O3  UNK     1      17.206   1.728  33.354  1.00  0.00    -0.305 OA
BRANCH  21  22
HETATM   22  C12 UNK     1      17.892   2.882  33.087  1.00  0.00     0.076 A 
HETATM   23  C15 UNK     1      18.297   3.702  34.135  1.00  0.00     0.040 A 
HETATM   24  C21 UNK     1      18.994   4.880  33.861  1.00  0.00     0.039 A 
HETATM   25  C20 UNK     1      19.284   5.229  32.542  1.00  0.00     0.068 A 
HETATM   26  C22 UNK     1      18.876   4.402  31.496  1.00  0.00     0.039 A 
HETATM   27  C16 UNK     1      18.179   3.225  31.769  1.00  0.00     0.040 A 
BRANCH  25  28
HETATM   28  O5  UNK     1      19.964   6.377  32.277  1.00  0.00    -0.356 OA
HETATM   29  C23 UNK     1      20.150   7.286  33.362  1.00  0.00     0.210 C 
ENDBRANCH  25  28
ENDBRANCH  21  22
ENDBRANCH  10  21
TORSDOF 6
ENDMDL
MODEL 5
REMARK VINA RESULT:      -8.7      6.496     12.240
REMARK  6 active torsions:
REMARK  status: ('A' for Active; 'I' for Inactive)
REMARK    1  A    between atoms: C3_9  and  O1_2 
REMARK    2  A    between atoms: C9_15  and  O1_2 
REMARK    3  A    between atoms: C12_18  and  O3_4 
REMARK    4  A    between atoms: C8_14  and  O3_4 
REMARK    5  A    between atoms: C20_26  and  O5_6 
REMARK    6  A    between atoms: C10_16  and  C9_15 
ROOT
HETATM    1  O2  UNK     1      16.329   5.998  33.007  1.00  0.00    -0.319 OA
HETATM    2  O4  UNK     1      19.277   8.627  34.038  1.00  0.00    -0.284 OA
HETATM    3  C1  UNK     1      18.633   6.739  32.770  1.00  0.00     0.051 A 
HETATM    4  C2  UNK     1      17.582   5.874  32.459  1.00  0.00     0.092 A 
HETATM    5  C3  UNK     1      19.034   4.652  30.967  1.00  0.00     0.071 A 
HETATM    6  C4  UNK     1      17.782   4.828  31.557  1.00  0.00     0.075 A 
HETATM    7  C5  UNK     1      19.887   6.564  32.181  1.00  0.00     0.021 A 
HETATM    8  C6  UNK     1      18.398   7.837  33.726  1.00  0.00     0.220 A 
HETATM    9  C7  UNK     1      20.084   5.518  31.279  1.00  0.00     0.038 A 
HETATM   10  C8  UNK     1      17.031   7.926  34.286  1.00  0.00     0.149 A 
HETATM   11  C11 UNK     1      16.124   7.026  33.896  1.00  0.00     0.184 A 
ENDROOT
BRANCH   5  12
HETATM   12  O1  UNK     1      19.233   3.634  30.086  1.00  0.00    -0.347 OA
BRANCH  12  13
HETATM   13  C9  UNK     1      18.273   2.578  30.088  1.00  0.00     0.216 C 
BRANCH  13  14
HETATM   14  C10 UNK     1      18.992   1.263  30.161  1.00  0.00    -0.012 A 
HETATM   15  C13 UNK     1      19.173   0.601  31.371  1.00  0.00     0.042 A 
HETATM   16 Cl1  UNK     1      18.581   1.254  32.854  1.00  0.00    -0.084 Cl
HETATM   17  C17 UNK     1      19.846  -0.622  31.399  1.00  0.00     0.024 A 
HETATM   18  C19 UNK     1      20.335  -1.175  30.216  1.00  0.00     0.002 A 
HETATM   19  C18 UNK     1      20.153  -0.507  29.005  1.00  0.00     0.001 A 
HETATM   20  C14 UNK     1      19.479   0.714  28.978  1.00  0.00     0.011 A 
ENDBRANCH  13  14
ENDBRANCH  12  13
ENDBRANCH   5  12
BRANCH  10  21
HETATM   21  O3  UNK     1      16.729   8.922  35.185  1.00  0.00    -0.305 OA
BRANCH  21  22
HETATM   22  C12 UNK     1      15.941   9.946  34.736  1.00  0.00     0.076 A 
HETATM   23  C15 UNK     1      14.563   9.774  34.658  1.00  0.00     0.040 A 
HETATM   24  C21 UNK     1      13.760  10.818  34.199  1.00  0.00     0.039 A 
HETATM   25  C20 UNK     1      14.339  12.029  33.820  1.00  0.00     0.068 A 
HETATM   26  C22 UNK     1      15.721  12.197  33.901  1.00  0.00     0.039 A 
HETATM   27  C16 UNK     1      16.524  11.152  34.360  1.00  0.00     0.040 A 
BRANCH  25  28
HETATM   28  O5  UNK     1      13.554  13.047  33.372  1.00  0.00    -0.356 OA
HETATM   29  C23 UNK     1      12.142  12.851  33.429  1.00  0.00     0.210 C 
ENDBRANCH  25  28
ENDBRANCH  21  22
ENDBRANCH  10  21
TORSDOF 6
ENDMDL
MODEL 6
REMARK VINA RESULT:      -8.7      9.278     13.491
REMARK  6 active torsions:
REMARK  status: ('A' for Active; 'I' for Inactive)
REMARK    1  A    between atoms: C3_9  and  O1_2 
REMARK    2  A    between atoms: C9_15  and  O1_2 
REMARK    3  A    between atoms: C12_18  and  O3_4 
REMARK    4  A    between atoms: C8_14  and  O3_4 
REMARK    5  A    between atoms: C20_26  and  O5_6 
REMARK    6  A    between atoms: C10_16  and  C9_15 
ROOT
HETATM    1  O2  UNK     1      28.156  -4.494  38.817  1.00  0.00    -0.319 OA
HETATM    2  O4  UNK     1      30.977  -7.436  38.565  1.00  0.00    -0.284 OA
HETATM    3  C1  UNK     1      28.685  -6.860  38.616  1.00  0.00     0.051 A 
HETATM    4  C2  UNK     1      27.771  -5.808  38.705  1.00  0.00     0.092 A 
HETATM    5  C3  UNK     1      25.948  -7.384  38.571  1.00  0.00     0.071 A 
HETATM    6  C4  UNK     1      26.400  -6.069  38.684  1.00  0.00     0.075 A 
HETATM    7  C5  UNK     1      28.234  -8.177  38.504  1.00  0.00     0.021 A 
HETATM    8  C6  UNK     1      30.128  -6.559  38.641  1.00  0.00     0.220 A 
HETATM    9  C7  UNK     1      26.863  -8.435  38.482  1.00  0.00     0.038 A 
HETATM   10  C8  UNK     1      30.489  -5.128  38.761  1.00  0.00     0.149 A 
HETATM   11  C11 UNK     1      29.505  -4.229  38.838  1.00  0.00     0.184 A 
ENDROOT
BRANCH   5  12
HETATM   12  O1  UNK     1      24.612  -7.643  38.549  1.00  0.00    -0.347 OA
BRANCH  12  13
HETATM   13  C9  UNK     1      23.743  -6.613  39.019  1.00  0.00     0.216 C 
BRANCH  13  14
HETATM   14  C10 UNK     1      22.349  -7.156  39.119  1.00  0.00    -0.012 A 
HETATM   15  C13 UNK     1      21.253  -6.432  38.660  1.00  0.00     0.042 A 
HETATM   16 Cl1  UNK     1      21.438  -4.870  37.949  1.00  0.00    -0.084 Cl
HETATM   17  C17 UNK     1      19.970  -6.971  38.769  1.00  0.00     0.024 A 
HETATM   18  C19 UNK     1      19.789  -8.230  39.339  1.00  0.00     0.002 A 
HETATM   19  C18 UNK     1      20.890  -8.953  39.799  1.00  0.00     0.001 A 
HETATM   20  C14 UNK     1      22.172  -8.415  39.689  1.00  0.00     0.011 A 
ENDBRANCH  13  14
ENDBRANCH  12  13
ENDBRANCH   5  12
BRANCH  10  21
HETATM   21  O3  UNK     1      31.815  -4.764  38.791  1.00  0.00    -0.305 OA
BRANCH  21  22
HETATM   22  C12 UNK     1      32.508  -4.845  37.615  1.00  0.00     0.076 A 
HETATM   23  C15 UNK     1      32.072  -4.128  36.505  1.00  0.00     0.040 A 
HETATM   24  C21 UNK     1      32.779  -4.213  35.305  1.00  0.00     0.039 A 
HETATM   25  C20 UNK     1      33.918  -5.014  35.222  1.00  0.00     0.068 A 
HETATM   26  C22 UNK     1      34.350  -5.731  36.337  1.00  0.00     0.039 A 
HETATM   27  C16 UNK     1      33.644  -5.646  37.537  1.00  0.00     0.040 A 
BRANCH  25  28
HETATM   28  O5  UNK     1      34.606  -5.097  34.051  1.00  0.00    -0.356 OA
HETATM   29  C23 UNK     1      35.368  -6.283  33.828  1.00  0.00     0.210 C 
ENDBRANCH  25  28
ENDBRANCH  21  22
ENDBRANCH  10  21
TORSDOF 6
ENDMDL
MODEL 7
REMARK VINA RESULT:      -8.6      3.673      5.556
REMARK  6 active torsions:
REMARK  status: ('A' for Active; 'I' for Inactive)
REMARK    1  A    between atoms: C3_9  and  O1_2 
REMARK    2  A    between atoms: C9_15  and  O1_2 
REMARK    3  A    between atoms: C12_18  and  O3_4 
REMARK    4  A    between atoms: C8_14  and  O3_4 
REMARK    5  A    between atoms: C20_26  and  O5_6 
REMARK    6  A    between atoms: C10_16  and  C9_15 
ROOT
HETATM    1  O2  UNK     1      20.164  -5.938  34.777  1.00  0.00    -0.319 OA
HETATM    2  O4  UNK     1      20.481  -6.165  38.841  1.00  0.00    -0.284 OA
HETATM    3  C1  UNK     1      20.281  -4.799  36.923  1.00  0.00     0.051 A 
HETATM    4  C2  UNK     1      20.174  -4.790  35.530  1.00  0.00     0.092 A 
HETATM    5  C3  UNK     1      20.077  -2.378  35.557  1.00  0.00     0.071 A 
HETATM    6  C4  UNK     1      20.073  -3.578  34.845  1.00  0.00     0.075 A 
HETATM    7  C5  UNK     1      20.286  -3.598  37.636  1.00  0.00     0.021 A 
HETATM    8  C6  UNK     1      20.386  -6.091  37.625  1.00  0.00     0.220 A 
HETATM    9  C7  UNK     1      20.183  -2.389  36.949  1.00  0.00     0.038 A 
HETATM   10  C8  UNK     1      20.370  -7.297  36.766  1.00  0.00     0.149 A 
HETATM   11  C11 UNK     1      20.263  -7.135  35.445  1.00  0.00     0.184 A 
ENDROOT
BRANCH   5  12
HETATM   12  O1  UNK     1      19.978  -1.194  34.892  1.00  0.00    -0.347 OA
BRANCH  12  13
HETATM   13  C9  UNK     1      18.698  -0.853  34.362  1.00  0.00     0.216 C 
BRANCH  13  14
HETATM   14  C10 UNK     1      17.959  -0.018  35.365  1.00  0.00    -0.012 A 
HETATM   15  C13 UNK     1      16.597  -0.189  35.589  1.00  0.00     0.042 A 
HETATM   16 Cl1  UNK     1      15.682  -1.371  34.726  1.00  0.00    -0.084 Cl
HETATM   17  C17 UNK     1      15.943   0.606  36.531  1.00  0.00     0.024 A 
HETATM   18  C19 UNK     1      16.656   1.570  37.244  1.00  0.00     0.002 A 
HETATM   19  C18 UNK     1      18.021   1.739  37.016  1.00  0.00     0.001 A 
HETATM   20  C14 UNK     1      18.674   0.943  36.075  1.00  0.00     0.011 A 
ENDBRANCH  13  14
ENDBRANCH  12  13
ENDBRANCH   5  12
BRANCH  10  21
HETATM   21  O3  UNK     1      20.464  -8.542  37.344  1.00  0.00    -0.305 OA
BRANCH  21  22
HETATM   22  C12 UNK     1      21.385  -9.404  36.816  1.00  0.00     0.076 A 
HETATM   23  C15 UNK     1      20.959 -10.550  36.152  1.00  0.00     0.040 A 
HETATM   24  C21 UNK     1      21.900 -11.430  35.616  1.00  0.00     0.039 A 
HETATM   25  C20 UNK     1      23.262 -11.159  35.747  1.00  0.00     0.068 A 
HETATM   26  C22 UNK     1      23.684 -10.009  36.413  1.00  0.00     0.039 A 
HETATM   27  C16 UNK     1      22.743  -9.129  36.949  1.00  0.00     0.040 A 
BRANCH  25  28
HETATM   28  O5  UNK     1      24.179 -12.018  35.223  1.00  0.00    -0.356 OA
HETATM   29  C23 UNK     1      24.706 -13.015  36.097  1.00  0.00     0.210 C 
ENDBRANCH  25  28
ENDBRANCH  21  22
ENDBRANCH  10  21
TORSDOF 6
ENDMDL
MODEL 8
REMARK VINA RESULT:      -8.6      2.911     10.488
REMARK  6 active torsions:
REMARK  status: ('A' for Active; 'I' for Inactive)
REMARK    1  A    between atoms: C3_9  and  O1_2 
REMARK    2  A    between atoms: C9_15  and  O1_2 
REMARK    3  A    between atoms: C12_18  and  O3_4 
REMARK    4  A    between atoms: C8_14  and  O3_4 
REMARK    5  A    between atoms: C20_26  and  O5_6 
REMARK    6  A    between atoms: C10_16  and  C9_15 
ROOT
HETATM    1  O2  UNK     1      17.677   0.303  36.140  1.00  0.00    -0.319 OA
HETATM    2  O4  UNK     1      19.138  -0.167  32.357  1.00  0.00    -0.284 OA
HETATM    3  C1  UNK     1      19.043  -0.967  34.579  1.00  0.00     0.051 A 
HETATM    4  C2  UNK     1      18.510  -0.750  35.852  1.00  0.00     0.092 A 
HETATM    5  C3  UNK     1      19.658  -2.713  36.663  1.00  0.00     0.071 A 
HETATM    6  C4  UNK     1      18.817  -1.624  36.896  1.00  0.00     0.075 A 
HETATM    7  C5  UNK     1      19.885  -2.056  34.344  1.00  0.00     0.021 A 
HETATM    8  C6  UNK     1      18.704  -0.031  33.491  1.00  0.00     0.220 A 
HETATM    9  C7  UNK     1      20.190  -2.928  35.390  1.00  0.00     0.038 A 
HETATM   10  C8  UNK     1      17.803   1.086  33.856  1.00  0.00     0.149 A 
HETATM   11  C11 UNK     1      17.369   1.167  35.117  1.00  0.00     0.184 A 
ENDROOT
BRANCH   5  12
HETATM   12  O1  UNK     1      19.960  -3.567  37.679  1.00  0.00    -0.347 OA
BRANCH  12  13
HETATM   13  C9  UNK     1      20.928  -4.579  37.409  1.00  0.00     0.216 C 
BRANCH  13  14
HETATM   14  C10 UNK     1      20.357  -5.915  37.784  1.00  0.00    -0.012 A 
HETATM   15  C13 UNK     1      19.781  -6.751  36.832  1.00  0.00     0.042 A 
HETATM   16 Cl1  UNK     1      19.690  -6.298  35.169  1.00  0.00    -0.084 Cl
HETATM   17  C17 UNK     1      19.261  -7.987  37.219  1.00  0.00     0.024 A 
HETATM   18  C19 UNK     1      19.320  -8.381  38.555  1.00  0.00     0.002 A 
HETATM   19  C18 UNK     1      19.898  -7.540  39.505  1.00  0.00     0.001 A 
HETATM   20  C14 UNK     1      20.418  -6.305  39.119  1.00  0.00     0.011 A 
ENDBRANCH  13  14
ENDBRANCH  12  13
ENDBRANCH   5  12
BRANCH  10  21
HETATM   21  O3  UNK     1      17.438   2.003  32.898  1.00  0.00    -0.305 OA
BRANCH  21  22
HETATM   22  C12 UNK     1      18.070   3.216  32.927  1.00  0.00     0.076 A 
HETATM   23  C15 UNK     1      18.355   3.874  31.735  1.00  0.00     0.040 A 
HETATM   24  C21 UNK     1      19.001   5.110  31.765  1.00  0.00     0.039 A 
HETATM   25  C20 UNK     1      19.358   5.682  32.986  1.00  0.00     0.068 A 
HETATM   26  C22 UNK     1      19.070   5.017  34.178  1.00  0.00     0.039 A 
HETATM   27  C16 UNK     1      18.423   3.781  34.148  1.00  0.00     0.040 A 
BRANCH  25  28
HETATM   28  O5  UNK     1      19.988   6.887  33.014  1.00  0.00    -0.356 OA
HETATM   29  C23 UNK     1      19.467   7.872  33.907  1.00  0.00     0.210 C 
ENDBRANCH  25  28
ENDBRANCH  21  22
ENDBRANCH  10  21
TORSDOF 6
ENDMDL
MODEL 9
REMARK VINA RESULT:      -8.6     27.004     29.739
REMARK  6 active torsions:
REMARK  status: ('A' for Active; 'I' for Inactive)
REMARK    1  A    between atoms: C3_9  and  O1_2 
REMARK    2  A    between atoms: C9_15  and  O1_2 
REMARK    3  A    between atoms: C12_18  and  O3_4 
REMARK    4  A    between atoms: C8_14  and  O3_4 
REMARK    5  A    between atoms: C20_26  and  O5_6 
REMARK    6  A    between atoms: C10_16  and  C9_15 
ROOT
HETATM    1  O2  UNK     1      14.665   9.989  10.112  1.00  0.00    -0.319 OA
HETATM    2  O4  UNK     1      18.045   7.718   9.809  1.00  0.00    -0.284 OA
HETATM    3  C1  UNK     1      15.686   7.788   9.945  1.00  0.00     0.051 A 
HETATM    4  C2  UNK     1      14.570   8.620  10.048  1.00  0.00     0.092 A 
HETATM    5  C3  UNK     1      13.128   6.684  10.031  1.00  0.00     0.071 A 
HETATM    6  C4  UNK     1      13.289   8.069  10.092  1.00  0.00     0.075 A 
HETATM    7  C5  UNK     1      15.528   6.401   9.884  1.00  0.00     0.021 A 
HETATM    8  C6  UNK     1      17.030   8.393   9.900  1.00  0.00     0.220 A 
HETATM    9  C7  UNK     1      14.246   5.853   9.927  1.00  0.00     0.038 A 
HETATM   10  C8  UNK     1      17.076   9.872   9.971  1.00  0.00     0.149 A 
HETATM   11  C11 UNK     1      15.923  10.539  10.068  1.00  0.00     0.184 A 
ENDROOT
BRANCH   5  12
HETATM   12  O1  UNK     1      11.881   6.142  10.073  1.00  0.00    -0.347 OA
BRANCH  12  13
HETATM   13  C9  UNK     1      11.608   5.069   9.173  1.00  0.00     0.216 C 
BRANCH  13  14
HETATM   14  C10 UNK     1      10.856   5.602   7.990  1.00  0.00    -0.012 A 
HETATM   15  C13 UNK     1       9.486   5.842   8.048  1.00  0.00     0.042 A 
HETATM   16 Cl1  UNK     1       8.579   5.540   9.485  1.00  0.00    -0.084 Cl
HETATM   17  C17 UNK     1       8.820   6.339   6.927  1.00  0.00     0.024 A 
HETATM   18  C19 UNK     1       9.527   6.592   5.752  1.00  0.00     0.002 A 
HETATM   19  C18 UNK     1      10.899   6.350   5.697  1.00  0.00     0.001 A 
HETATM   20  C14 UNK     1      11.565   5.854   6.818  1.00  0.00     0.011 A 
ENDBRANCH  13  14
ENDBRANCH  12  13
ENDBRANCH   5  12
BRANCH  10  21
HETATM   21  O3  UNK     1      18.291  10.514   9.934  1.00  0.00    -0.305 OA
BRANCH  21  22
HETATM   22  C12 UNK     1      18.446  11.499   8.997  1.00  0.00     0.076 A 
HETATM   23  C15 UNK     1      18.566  11.160   7.653  1.00  0.00     0.040 A 
HETATM   24  C21 UNK     1      18.726  12.165   6.698  1.00  0.00     0.039 A 
HETATM   25  C20 UNK     1      18.765  13.503   7.093  1.00  0.00     0.068 A 
HETATM   26  C22 UNK     1      18.644  13.836   8.441  1.00  0.00     0.039 A 
HETATM   27  C16 UNK     1      18.484  12.831   9.396  1.00  0.00     0.040 A 
BRANCH  25  28
HETATM   28  O5  UNK     1      18.921  14.482   6.160  1.00  0.00    -0.356 OA
HETATM   29  C23 UNK     1      19.474  14.097   4.902  1.00  0.00     0.210 C 
ENDBRANCH  25  28
ENDBRANCH  21  22
ENDBRANCH  10  21
TORSDOF 6
ENDMDL
MODEL 10
REMARK VINA RESULT:      -8.5      9.540     12.817
REMARK  6 active torsions:
REMARK  status: ('A' for Active; 'I' for Inactive)
REMARK    1  A    between atoms: C3_9  and  O1_2 
REMARK    2  A    between atoms: C9_15  and  O1_2 
REMARK    3  A    between atoms: C12_18  and  O3_4 
REMARK    4  A    between atoms: C8_14  and  O3_4 
REMARK    5  A    between atoms: C20_26  and  O5_6 
REMARK    6  A    between atoms: C10_16  and  C9_15 
ROOT
HETATM    1  O2  UNK     1      25.128  -7.624  38.093  1.00  0.00    -0.319 OA
HETATM    2  O4  UNK     1      28.601  -9.770  38.160  1.00  0.00    -0.284 OA
HETATM    3  C1  UNK     1      26.344  -9.637  37.470  1.00  0.00     0.051 A 
HETATM    4  C2  UNK     1      25.188  -8.853  37.483  1.00  0.00     0.092 A 
HETATM    5  C3  UNK     1      24.027 -10.552  36.220  1.00  0.00     0.071 A 
HETATM    6  C4  UNK     1      24.027  -9.311  36.858  1.00  0.00     0.075 A 
HETATM    7  C5  UNK     1      26.345 -10.880  36.834  1.00  0.00     0.021 A 
HETATM    8  C6  UNK     1      27.558  -9.132  38.137  1.00  0.00     0.220 A 
HETATM    9  C7  UNK     1      25.184 -11.334  36.209  1.00  0.00     0.038 A 
HETATM   10  C8  UNK     1      27.440  -7.803  38.778  1.00  0.00     0.149 A 
HETATM   11  C11 UNK     1      26.267  -7.167  38.709  1.00  0.00     0.184 A 
ENDROOT
BRANCH   5  12
HETATM   12  O1  UNK     1      22.897 -11.002  35.609  1.00  0.00    -0.347 OA
BRANCH  12  13
HETATM   13  C9  UNK     1      21.970 -10.018  35.154  1.00  0.00     0.216 C 
BRANCH  13  14
HETATM   14  C10 UNK     1      20.887  -9.854  36.179  1.00  0.00    -0.012 A 
HETATM   15  C13 UNK     1      20.157  -8.674  36.281  1.00  0.00     0.042 A 
HETATM   16 Cl1  UNK     1      20.457  -7.334  35.235  1.00  0.00    -0.084 Cl
HETATM   17  C17 UNK     1      19.156  -8.559  37.246  1.00  0.00     0.024 A 
HETATM   18  C19 UNK     1      18.890  -9.624  38.106  1.00  0.00     0.002 A 
HETATM   19  C18 UNK     1      19.625 -10.805  38.000  1.00  0.00     0.001 A 
HETATM   20  C14 UNK     1      20.625 -10.920  37.035  1.00  0.00     0.011 A 
ENDBRANCH  13  14
ENDBRANCH  12  13
ENDBRANCH   5  12
BRANCH  10  21
HETATM   21  O3  UNK     1      28.528  -7.261  39.421  1.00  0.00    -0.305 OA
BRANCH  21  22
HETATM   22  C12 UNK     1      29.217  -6.282  38.759  1.00  0.00     0.076 A 
HETATM   23  C15 UNK     1      30.000  -6.612  37.658  1.00  0.00     0.040 A 
HETATM   24  C21 UNK     1      30.705  -5.613  36.985  1.00  0.00     0.039 A 
HETATM   25  C20 UNK     1      30.621  -4.289  37.416  1.00  0.00     0.068 A 
HETATM   26  C22 UNK     1      29.834  -3.964  38.520  1.00  0.00     0.039 A 
HETATM   27  C16 UNK     1      29.130  -4.963  39.193  1.00  0.00     0.040 A 
BRANCH  25  28
HETATM   28  O5  UNK     1      31.308  -3.316  36.759  1.00  0.00    -0.356 OA
HETATM   29  C23 UNK     1      32.524  -3.700  36.117  1.00  0.00     0.210 C 
ENDBRANCH  25  28
ENDBRANCH  21  22
ENDBRANCH  10  21
TORSDOF 6
ENDMDL
