MODEL 1
REMARK VINA RESULT:      -9.3      0.000      0.000
REMARK  2 active torsions:
REMARK  status: ('A' for Active; 'I' for Inactive)
REMARK    1  A    between atoms: C12_19  and  N3_7 
REMARK    2  A    between atoms: C1_8  and  C2_9 
ROOT
HETATM    1  O1  UNK     1      19.295   0.903  15.076  1.00  0.00    -0.274 OA
HETATM    2  O2  UNK     1      19.198  -0.622  13.382  1.00  0.00    -0.259 OA
HETATM    3  C1  UNK     1      18.865  -1.457  15.587  1.00  0.00     0.086 A 
HETATM    4  C3  UNK     1      18.946   0.191  17.373  1.00  0.00     0.001 A 
HETATM    5  C5  UNK     1      18.779  -1.173  16.895  1.00  0.00     0.035 A 
HETATM    6  C7  UNK     1      19.202   1.199  16.450  1.00  0.00     0.089 A 
HETATM    7  C8  UNK     1      19.130  -0.390  14.585  1.00  0.00     0.302 A 
HETATM    8  C9  UNK     1      18.859   0.521  18.726  1.00  0.00     0.050 A 
HETATM    9  C10 UNK     1      19.373   2.525  16.841  1.00  0.00     0.041 A 
HETATM   10  C12 UNK     1      19.029   1.848  19.134  1.00  0.00     0.103 A 
HETATM   11  C14 UNK     1      19.286   2.847  18.194  1.00  0.00     0.039 A 
ENDROOT
BRANCH   3  12
HETATM   12  C2  UNK     1      18.703  -2.810  15.152  1.00  0.00     0.145 A 
HETATM   13  N1  UNK     1      19.783  -3.417  14.573  1.00  0.00    -0.338 N 
HETATM   14  C4  UNK     1      19.414  -4.693  14.234  1.00  0.00     0.062 A 
HETATM   15  H2  UNK     1      20.700  -3.016  14.425  1.00  0.00     0.167 HD
HETATM   16  C11 UNK     1      20.107  -5.741  13.625  1.00  0.00     0.032 A 
HETATM   17  C6  UNK     1      18.086  -4.790  14.641  1.00  0.00     0.086 A 
HETATM   18  C15 UNK     1      19.401  -6.932  13.428  1.00  0.00     0.002 A 
HETATM   19  C16 UNK     1      18.069  -7.059  13.826  1.00  0.00     0.002 A 
HETATM   20  C13 UNK     1      17.393  -5.994  14.435  1.00  0.00     0.034 A 
HETATM   21  N2  UNK     1      17.662  -3.610  15.209  1.00  0.00    -0.228 NA
ENDBRANCH   3  12
BRANCH  10  22
HETATM   22  N3  UNK     1      18.941   2.181  20.513  1.00  0.00    -0.116 N 
HETATM   23  O3  UNK     1      19.997   2.383  21.157  1.00  0.00    -0.532 OA
HETATM   24  O4  UNK     1      17.809   2.265  21.046  1.00  0.00    -0.532 OA
ENDBRANCH  10  22
TORSDOF 2
ENDMDL
MODEL 2
REMARK VINA RESULT:      -9.2      2.942      8.054
REMARK  2 active torsions:
REMARK  status: ('A' for Active; 'I' for Inactive)
REMARK    1  A    between atoms: C12_19  and  N3_7 
REMARK    2  A    between atoms: C1_8  and  C2_9 
ROOT
HETATM    1  O1  UNK     1      17.068  -3.906  15.789  1.00  0.00    -0.274 OA
HETATM    2  O2  UNK     1      16.307  -1.997  16.779  1.00  0.00    -0.259 OA
HETATM    3  C1  UNK     1      18.596  -2.018  16.126  1.00  0.00     0.086 A 
HETATM    4  C3  UNK     1      19.378  -4.053  15.049  1.00  0.00     0.001 A 
HETATM    5  C5  UNK     1      19.594  -2.704  15.550  1.00  0.00     0.035 A 
HETATM    6  C7  UNK     1      18.117  -4.624  15.182  1.00  0.00     0.089 A 
HETATM    7  C8  UNK     1      17.239  -2.611  16.269  1.00  0.00     0.302 A 
HETATM    8  C9  UNK     1      20.393  -4.793  14.441  1.00  0.00     0.050 A 
HETATM    9  C10 UNK     1      17.843  -5.911  14.725  1.00  0.00     0.041 A 
HETATM   10  C12 UNK     1      20.134  -6.086  13.978  1.00  0.00     0.103 A 
HETATM   11  C14 UNK     1      18.862  -6.644  14.120  1.00  0.00     0.039 A 
ENDROOT
BRANCH   3  12
HETATM   12  C2  UNK     1      18.845  -0.697  16.615  1.00  0.00     0.145 A 
HETATM   13  N1  UNK     1      18.845  -0.518  17.970  1.00  0.00    -0.338 N 
HETATM   14  C4  UNK     1      19.100   0.806  18.217  1.00  0.00     0.062 A 
HETATM   15  H2  UNK     1      18.698  -1.226  18.677  1.00  0.00     0.167 HD
HETATM   16  C11 UNK     1      19.214   1.535  19.402  1.00  0.00     0.032 A 
HETATM   17  C6  UNK     1      19.246   1.373  16.954  1.00  0.00     0.086 A 
HETATM   18  C15 UNK     1      19.487   2.901  19.277  1.00  0.00     0.002 A 
HETATM   19  C16 UNK     1      19.638   3.499  18.024  1.00  0.00     0.002 A 
HETATM   20  C13 UNK     1      19.520   2.747  16.848  1.00  0.00     0.034 A 
HETATM   21  N2  UNK     1      19.084   0.424  15.971  1.00  0.00    -0.228 NA
ENDBRANCH   3  12
BRANCH  10  22
HETATM   22  N3  UNK     1      21.170  -6.838  13.360  1.00  0.00    -0.116 N 
HETATM   23  O3  UNK     1      21.361  -6.710  12.127  1.00  0.00    -0.532 OA
HETATM   24  O4  UNK     1      21.866  -7.607  14.065  1.00  0.00    -0.532 OA
ENDBRANCH  10  22
TORSDOF 2
ENDMDL
MODEL 3
REMARK VINA RESULT:      -8.9     13.523     17.014
REMARK  2 active torsions:
REMARK  status: ('A' for Active; 'I' for Inactive)
REMARK    1  A    between atoms: C12_19  and  N3_7 
REMARK    2  A    between atoms: C1_8  and  C2_9 
ROOT
HETATM    1  O1  UNK     1      19.041   1.271  28.730  1.00  0.00    -0.274 OA
HETATM    2  O2  UNK     1      18.227   3.399  28.624  1.00  0.00    -0.259 OA
HETATM    3  C1  UNK     1      18.740   2.562  30.793  1.00  0.00     0.086 A 
HETATM    4  C3  UNK     1      19.631   0.302  30.878  1.00  0.00     0.001 A 
HETATM    5  C5  UNK     1      19.209   1.537  31.520  1.00  0.00     0.035 A 
HETATM    6  C7  UNK     1      19.535   0.197  29.496  1.00  0.00     0.089 A 
HETATM    7  C8  UNK     1      18.639   2.470  29.312  1.00  0.00     0.302 A 
HETATM    8  C9  UNK     1      20.127  -0.783  31.605  1.00  0.00     0.050 A 
HETATM    9  C10 UNK     1      19.921  -0.959  28.819  1.00  0.00     0.041 A 
HETATM   10  C12 UNK     1      20.517  -1.949  30.940  1.00  0.00     0.103 A 
HETATM   11  C14 UNK     1      20.414  -2.037  29.551  1.00  0.00     0.039 A 
ENDROOT
BRANCH   3  12
HETATM   12  C2  UNK     1      18.327   3.761  31.457  1.00  0.00     0.145 A 
HETATM   13  N1  UNK     1      18.468   4.936  30.774  1.00  0.00    -0.338 N 
HETATM   14  C4  UNK     1      18.018   5.947  31.585  1.00  0.00     0.062 A 
HETATM   15  H2  UNK     1      18.825   5.056  29.836  1.00  0.00     0.167 HD
HETATM   16  C11 UNK     1      17.930   7.328  31.402  1.00  0.00     0.032 A 
HETATM   17  C6  UNK     1      17.617   5.303  32.751  1.00  0.00     0.086 A 
HETATM   18  C15 UNK     1      17.408   8.071  32.465  1.00  0.00     0.002 A 
HETATM   19  C16 UNK     1      16.997   7.454  33.649  1.00  0.00     0.002 A 
HETATM   20  C13 UNK     1      17.095   6.066  33.810  1.00  0.00     0.034 A 
HETATM   21  N2  UNK     1      17.816   3.945  32.654  1.00  0.00    -0.228 NA
ENDBRANCH   3  12
BRANCH  10  22
HETATM   22  N3  UNK     1      21.021  -3.051  31.682  1.00  0.00    -0.116 N 
HETATM   23  O3  UNK     1      21.043  -2.981  32.934  1.00  0.00    -0.532 OA
HETATM   24  O4  UNK     1      21.428  -4.064  31.064  1.00  0.00    -0.532 OA
ENDBRANCH  10  22
TORSDOF 2
ENDMDL
MODEL 4
REMARK VINA RESULT:      -8.9     16.995     19.970
REMARK  2 active torsions:
REMARK  status: ('A' for Active; 'I' for Inactive)
REMARK    1  A    between atoms: C12_19  and  N3_7 
REMARK    2  A    between atoms: C1_8  and  C2_9 
ROOT
HETATM    1  O1  UNK     1      18.638  -1.079  35.530  1.00  0.00    -0.274 OA
HETATM    2  O2  UNK     1      18.704  -2.010  37.612  1.00  0.00    -0.259 OA
HETATM    3  C1  UNK     1      19.944  -3.120  35.910  1.00  0.00     0.086 A 
HETATM    4  C3  UNK     1      19.881  -2.094  33.707  1.00  0.00     0.001 A 
HETATM    5  C5  UNK     1      20.328  -3.131  34.625  1.00  0.00     0.035 A 
HETATM    6  C7  UNK     1      19.044  -1.092  34.182  1.00  0.00     0.089 A 
HETATM    7  C8  UNK     1      19.056  -2.050  36.438  1.00  0.00     0.302 A 
HETATM    8  C9  UNK     1      20.264  -2.074  32.364  1.00  0.00     0.050 A 
HETATM    9  C10 UNK     1      18.580  -0.071  33.355  1.00  0.00     0.041 A 
HETATM   10  C12 UNK     1      19.806  -1.056  31.522  1.00  0.00     0.103 A 
HETATM   11  C14 UNK     1      18.965  -0.058  32.016  1.00  0.00     0.039 A 
ENDROOT
BRANCH   3  12
HETATM   12  C2  UNK     1      20.396  -4.158  36.785  1.00  0.00     0.145 A 
HETATM   13  N1  UNK     1      19.456  -5.026  37.266  1.00  0.00    -0.338 N 
HETATM   14  C4  UNK     1      20.096  -5.929  38.075  1.00  0.00     0.062 A 
HETATM   15  H2  UNK     1      18.465  -5.024  37.064  1.00  0.00     0.167 HD
HETATM   16  C11 UNK     1      19.634  -7.019  38.816  1.00  0.00     0.032 A 
HETATM   17  C6  UNK     1      21.433  -5.544  38.035  1.00  0.00     0.086 A 
HETATM   18  C15 UNK     1      20.590  -7.736  39.542  1.00  0.00     0.002 A 
HETATM   19  C16 UNK     1      21.938  -7.374  39.522  1.00  0.00     0.002 A 
HETATM   20  C13 UNK     1      22.379  -6.277  38.771  1.00  0.00     0.034 A 
HETATM   21  N2  UNK     1      21.600  -4.442  37.228  1.00  0.00    -0.228 NA
ENDBRANCH   3  12
BRANCH  10  22
HETATM   22  N3  UNK     1      20.197  -1.039  30.156  1.00  0.00    -0.116 N 
HETATM   23  O3  UNK     1      20.509   0.055  29.627  1.00  0.00    -0.532 OA
HETATM   24  O4  UNK     1      20.221  -2.118  29.517  1.00  0.00    -0.532 OA
ENDBRANCH  10  22
TORSDOF 2
ENDMDL
MODEL 5
REMARK VINA RESULT:      -8.7      3.356      8.257
REMARK  2 active torsions:
REMARK  status: ('A' for Active; 'I' for Inactive)
REMARK    1  A    between atoms: C12_19  and  N3_7 
REMARK    2  A    between atoms: C1_8  and  C2_9 
ROOT
HETATM    1  O1  UNK     1      18.389  -3.380  13.421  1.00  0.00    -0.274 OA
HETATM    2  O2  UNK     1      17.610  -2.618  15.426  1.00  0.00    -0.259 OA
HETATM    3  C1  UNK     1      19.179  -1.229  14.297  1.00  0.00     0.086 A 
HETATM    4  C3  UNK     1      19.975  -2.048  12.150  1.00  0.00     0.001 A 
HETATM    5  C5  UNK     1      19.947  -1.053  13.211  1.00  0.00     0.035 A 
HETATM    6  C7  UNK     1      19.195  -3.191  12.282  1.00  0.00     0.089 A 
HETATM    7  C8  UNK     1      18.331  -2.442  14.449  1.00  0.00     0.302 A 
HETATM    8  C9  UNK     1      20.760  -1.895  11.006  1.00  0.00     0.050 A 
HETATM    9  C10 UNK     1      19.177  -4.183  11.303  1.00  0.00     0.041 A 
HETATM   10  C12 UNK     1      20.753  -2.882  10.016  1.00  0.00     0.103 A 
HETATM   11  C14 UNK     1      19.963  -4.024  10.165  1.00  0.00     0.039 A 
ENDROOT
BRANCH   3  12
HETATM   12  C2  UNK     1      19.181  -0.234  15.325  1.00  0.00     0.145 A 
HETATM   13  N1  UNK     1      19.008  -0.661  16.611  1.00  0.00    -0.338 N 
HETATM   14  C4  UNK     1      19.041   0.442  17.426  1.00  0.00     0.062 A 
HETATM   15  H2  UNK     1      18.888  -1.615  16.926  1.00  0.00     0.167 HD
HETATM   16  C11 UNK     1      18.919   0.592  18.808  1.00  0.00     0.032 A 
HETATM   17  C6  UNK     1      19.240   1.509  16.556  1.00  0.00     0.086 A 
HETATM   18  C15 UNK     1      19.005   1.895  19.310  1.00  0.00     0.002 A 
HETATM   19  C16 UNK     1      19.203   2.986  18.462  1.00  0.00     0.002 A 
HETATM   20  C13 UNK     1      19.323   2.812  17.078  1.00  0.00     0.034 A 
HETATM   21  N2  UNK     1      19.324   1.070  15.255  1.00  0.00    -0.228 NA
ENDBRANCH   3  12
BRANCH  10  22
HETATM   22  N3  UNK     1      21.554  -2.723   8.853  1.00  0.00    -0.116 N 
HETATM   23  O3  UNK     1      22.797  -2.851   8.950  1.00  0.00    -0.532 OA
HETATM   24  O4  UNK     1      20.994  -2.462   7.761  1.00  0.00    -0.532 OA
ENDBRANCH  10  22
TORSDOF 2
ENDMDL
MODEL 6
REMARK VINA RESULT:      -8.6     17.050     18.893
REMARK  2 active torsions:
REMARK  status: ('A' for Active; 'I' for Inactive)
REMARK    1  A    between atoms: C12_19  and  N3_7 
REMARK    2  A    between atoms: C1_8  and  C2_9 
ROOT
HETATM    1  O1  UNK     1      18.335   3.496  31.571  1.00  0.00    -0.274 OA
HETATM    2  O2  UNK     1      18.336   1.253  31.989  1.00  0.00    -0.259 OA
HETATM    3  C1  UNK     1      18.275   2.689  33.886  1.00  0.00     0.086 A 
HETATM    4  C3  UNK     1      18.247   5.075  33.416  1.00  0.00     0.001 A 
HETATM    5  C5  UNK     1      18.240   3.951  34.340  1.00  0.00     0.035 A 
HETATM    6  C7  UNK     1      18.296   4.820  32.050  1.00  0.00     0.089 A 
HETATM    7  C8  UNK     1      18.319   2.398  32.428  1.00  0.00     0.302 A 
HETATM    8  C9  UNK     1      18.208   6.400  33.854  1.00  0.00     0.050 A 
HETATM    9  C10 UNK     1      18.307   5.850  31.112  1.00  0.00     0.041 A 
HETATM   10  C12 UNK     1      18.219   7.444  32.924  1.00  0.00     0.103 A 
HETATM   11  C14 UNK     1      18.269   7.169  31.556  1.00  0.00     0.039 A 
ENDROOT
BRANCH   3  12
HETATM   12  C2  UNK     1      18.274   1.608  34.823  1.00  0.00     0.145 A 
HETATM   13  N1  UNK     1      18.980   0.487  34.488  1.00  0.00    -0.338 N 
HETATM   14  C4  UNK     1      18.845  -0.414  35.513  1.00  0.00     0.062 A 
HETATM   15  H2  UNK     1      19.519   0.336  33.646  1.00  0.00     0.167 HD
HETATM   16  C11 UNK     1      19.346  -1.704  35.702  1.00  0.00     0.032 A 
HETATM   17  C6  UNK     1      18.038   0.236  36.442  1.00  0.00     0.086 A 
HETATM   18  C15 UNK     1      18.999  -2.345  36.895  1.00  0.00     0.002 A 
HETATM   19  C16 UNK     1      18.191  -1.719  37.847  1.00  0.00     0.002 A 
HETATM   20  C13 UNK     1      17.700  -0.424  37.635  1.00  0.00     0.034 A 
HETATM   21  N2  UNK     1      17.693   1.491  35.997  1.00  0.00    -0.228 NA
ENDBRANCH   3  12
BRANCH  10  22
HETATM   22  N3  UNK     1      18.180   8.791  33.374  1.00  0.00    -0.116 N 
HETATM   23  O3  UNK     1      17.238   9.530  32.999  1.00  0.00    -0.532 OA
HETATM   24  O4  UNK     1      19.087   9.204  34.134  1.00  0.00    -0.532 OA
ENDBRANCH  10  22
TORSDOF 2
ENDMDL
MODEL 7
REMARK VINA RESULT:      -8.5     13.923     16.403
REMARK  2 active torsions:
REMARK  status: ('A' for Active; 'I' for Inactive)
REMARK    1  A    between atoms: C12_19  and  N3_7 
REMARK    2  A    between atoms: C1_8  and  C2_9 
ROOT
HETATM    1  O1  UNK     1      18.162   5.725  29.990  1.00  0.00    -0.274 OA
HETATM    2  O2  UNK     1      18.886   3.903  28.823  1.00  0.00    -0.259 OA
HETATM    3  C1  UNK     1      18.468   3.583  31.145  1.00  0.00     0.086 A 
HETATM    4  C3  UNK     1      17.672   5.532  32.361  1.00  0.00     0.001 A 
HETATM    5  C5  UNK     1      18.061   4.131  32.299  1.00  0.00     0.035 A 
HETATM    6  C7  UNK     1      17.734   6.298  31.203  1.00  0.00     0.089 A 
HETATM    7  C8  UNK     1      18.531   4.386  29.894  1.00  0.00     0.302 A 
HETATM    8  C9  UNK     1      17.241   6.133  33.546  1.00  0.00     0.050 A 
HETATM    9  C10 UNK     1      17.377   7.645  31.194  1.00  0.00     0.041 A 
HETATM   10  C12 UNK     1      16.880   7.484  33.552  1.00  0.00     0.103 A 
HETATM   11  C14 UNK     1      16.949   8.238  32.380  1.00  0.00     0.039 A 
ENDROOT
BRANCH   3  12
HETATM   12  C2  UNK     1      18.850   2.205  31.121  1.00  0.00     0.145 A 
HETATM   13  N1  UNK     1      19.532   1.762  30.022  1.00  0.00    -0.338 N 
HETATM   14  C4  UNK     1      19.796   0.428  30.203  1.00  0.00     0.062 A 
HETATM   15  H2  UNK     1      19.811   2.308  29.218  1.00  0.00     0.167 HD
HETATM   16  C11 UNK     1      20.455  -0.514  29.412  1.00  0.00     0.032 A 
HETATM   17  C6  UNK     1      19.239   0.130  31.443  1.00  0.00     0.086 A 
HETATM   18  C15 UNK     1      20.540  -1.814  29.921  1.00  0.00     0.002 A 
HETATM   19  C16 UNK     1      19.991  -2.144  31.162  1.00  0.00     0.002 A 
HETATM   20  C13 UNK     1      19.334  -1.181  31.939  1.00  0.00     0.034 A 
HETATM   21  N2  UNK     1      18.655   1.246  31.998  1.00  0.00    -0.228 NA
ENDBRANCH   3  12
BRANCH  10  22
HETATM   22  N3  UNK     1      16.442   8.093  34.760  1.00  0.00    -0.116 N 
HETATM   23  O3  UNK     1      15.369   8.742  34.758  1.00  0.00    -0.532 OA
HETATM   24  O4  UNK     1      17.141   7.963  35.793  1.00  0.00    -0.532 OA
ENDBRANCH  10  22
TORSDOF 2
ENDMDL
MODEL 8
REMARK VINA RESULT:      -8.5     17.176     19.955
REMARK  2 active torsions:
REMARK  status: ('A' for Active; 'I' for Inactive)
REMARK    1  A    between atoms: C12_19  and  N3_7 
REMARK    2  A    between atoms: C1_8  and  C2_9 
ROOT
HETATM    1  O1  UNK     1      18.325   1.646  32.295  1.00  0.00    -0.274 OA
HETATM    2  O2  UNK     1      18.240   3.642  31.193  1.00  0.00    -0.259 OA
HETATM    3  C1  UNK     1      18.279   3.740  33.571  1.00  0.00     0.086 A 
HETATM    4  C3  UNK     1      18.398   1.602  34.723  1.00  0.00     0.001 A 
HETATM    5  C5  UNK     1      18.338   3.056  34.723  1.00  0.00     0.035 A 
HETATM    6  C7  UNK     1      18.389   0.931  33.506  1.00  0.00     0.089 A 
HETATM    7  C8  UNK     1      18.278   3.037  32.260  1.00  0.00     0.302 A 
HETATM    8  C9  UNK     1      18.463   0.860  35.904  1.00  0.00     0.050 A 
HETATM    9  C10 UNK     1      18.443  -0.460  33.436  1.00  0.00     0.041 A 
HETATM   10  C12 UNK     1      18.518  -0.536  35.849  1.00  0.00     0.103 A 
HETATM   11  C14 UNK     1      18.507  -1.194  34.618  1.00  0.00     0.039 A 
ENDROOT
BRANCH   3  12
HETATM   12  C2  UNK     1      18.214   5.169  33.608  1.00  0.00     0.145 A 
HETATM   13  N1  UNK     1      19.269   5.831  34.171  1.00  0.00    -0.338 N 
HETATM   14  C4  UNK     1      19.003   7.175  34.104  1.00  0.00     0.062 A 
HETATM   15  H2  UNK     1      20.107   5.421  34.562  1.00  0.00     0.167 HD
HETATM   16  C11 UNK     1      19.722   8.296  34.521  1.00  0.00     0.032 A 
HETATM   17  C6  UNK     1      17.761   7.252  33.481  1.00  0.00     0.086 A 
HETATM   18  C15 UNK     1      19.135   9.543  34.286  1.00  0.00     0.002 A 
HETATM   19  C16 UNK     1      17.890   9.653  33.664  1.00  0.00     0.002 A 
HETATM   20  C13 UNK     1      17.186   8.514  33.254  1.00  0.00     0.034 A 
HETATM   21  N2  UNK     1      17.286   5.996  33.181  1.00  0.00    -0.228 NA
ENDBRANCH   3  12
BRANCH  10  22
HETATM   22  N3  UNK     1      18.583  -1.289  37.053  1.00  0.00    -0.116 N 
HETATM   23  O3  UNK     1      19.145  -2.410  37.038  1.00  0.00    -0.532 OA
HETATM   24  O4  UNK     1      18.078  -0.810  38.097  1.00  0.00    -0.532 OA
ENDBRANCH  10  22
TORSDOF 2
ENDMDL
MODEL 9
REMARK VINA RESULT:      -8.4      3.025      7.766
REMARK  2 active torsions:
REMARK  status: ('A' for Active; 'I' for Inactive)
REMARK    1  A    between atoms: C12_19  and  N3_7 
REMARK    2  A    between atoms: C1_8  and  C2_9 
ROOT
HETATM    1  O1  UNK     1      19.726  -2.984  13.196  1.00  0.00    -0.274 OA
HETATM    2  O2  UNK     1      20.488  -0.871  13.593  1.00  0.00    -0.259 OA
HETATM    3  C1  UNK     1      19.055  -1.814  15.244  1.00  0.00     0.086 A 
HETATM    4  C3  UNK     1      18.277  -4.077  14.812  1.00  0.00     0.001 A 
HETATM    5  C5  UNK     1      18.338  -2.878  15.634  1.00  0.00     0.035 A 
HETATM    6  C7  UNK     1      18.973  -4.101  13.608  1.00  0.00     0.089 A 
HETATM    7  C8  UNK     1      19.813  -1.826  13.964  1.00  0.00     0.302 A 
HETATM    8  C9  UNK     1      17.543  -5.203  15.189  1.00  0.00     0.050 A 
HETATM    9  C10 UNK     1      18.956  -5.216  12.773  1.00  0.00     0.041 A 
HETATM   10  C12 UNK     1      17.516  -6.329  14.361  1.00  0.00     0.103 A 
HETATM   11  C14 UNK     1      18.220  -6.336  13.156  1.00  0.00     0.039 A 
ENDROOT
BRANCH   3  12
HETATM   12  C2  UNK     1      19.088  -0.649  16.074  1.00  0.00     0.145 A 
HETATM   13  N1  UNK     1      19.075  -0.842  17.427  1.00  0.00    -0.338 N 
HETATM   14  C4  UNK     1      19.109   0.391  18.025  1.00  0.00     0.062 A 
HETATM   15  H2  UNK     1      19.056  -1.727  17.916  1.00  0.00     0.167 HD
HETATM   16  C11 UNK     1      19.115   0.785  19.365  1.00  0.00     0.032 A 
HETATM   17  C6  UNK     1      19.142   1.291  16.964  1.00  0.00     0.086 A 
HETATM   18  C15 UNK     1      19.155   2.160  19.616  1.00  0.00     0.002 A 
HETATM   19  C16 UNK     1      19.189   3.087  18.572  1.00  0.00     0.002 A 
HETATM   20  C13 UNK     1      19.183   2.669  17.236  1.00  0.00     0.034 A 
HETATM   21  N2  UNK     1      19.128   0.626  15.760  1.00  0.00    -0.228 NA
ENDBRANCH   3  12
BRANCH  10  22
HETATM   22  N3  UNK     1      16.767  -7.473  14.748  1.00  0.00    -0.116 N 
HETATM   23  O3  UNK     1      16.576  -7.690  15.968  1.00  0.00    -0.532 OA
HETATM   24  O4  UNK     1      16.316  -8.233  13.858  1.00  0.00    -0.532 OA
ENDBRANCH  10  22
TORSDOF 2
ENDMDL
MODEL 10
REMARK VINA RESULT:      -8.3     17.513     19.774
REMARK  2 active torsions:
REMARK  status: ('A' for Active; 'I' for Inactive)
REMARK    1  A    between atoms: C12_19  and  N3_7 
REMARK    2  A    between atoms: C1_8  and  C2_9 
ROOT
HETATM    1  O1  UNK     1      18.565  -0.097  37.311  1.00  0.00    -0.274 OA
HETATM    2  O2  UNK     1      18.918  -1.991  38.532  1.00  0.00    -0.259 OA
HETATM    3  C1  UNK     1      18.961  -2.228  36.164  1.00  0.00     0.086 A 
HETATM    4  C3  UNK     1      18.608  -0.191  34.884  1.00  0.00     0.001 A 
HETATM    5  C5  UNK     1      18.862  -1.621  34.972  1.00  0.00     0.035 A 
HETATM    6  C7  UNK     1      18.463   0.538  36.058  1.00  0.00     0.089 A 
HETATM    7  C8  UNK     1      18.817  -1.461  37.431  1.00  0.00     0.302 A 
HETATM    8  C9  UNK     1      18.503   0.472  33.660  1.00  0.00     0.050 A 
HETATM    9  C10 UNK     1      18.218   1.910  36.044  1.00  0.00     0.041 A 
HETATM   10  C12 UNK     1      18.256   1.848  33.630  1.00  0.00     0.103 A 
HETATM   11  C14 UNK     1      18.113   2.565  34.819  1.00  0.00     0.039 A 
ENDROOT
BRANCH   3  12
HETATM   12  C2  UNK     1      19.204  -3.637  36.214  1.00  0.00     0.145 A 
HETATM   13  N1  UNK     1      18.216  -4.426  36.734  1.00  0.00    -0.338 N 
HETATM   14  C4  UNK     1      18.652  -5.726  36.689  1.00  0.00     0.062 A 
HETATM   15  H2  UNK     1      17.316  -4.125  37.082  1.00  0.00     0.167 HD
HETATM   16  C11 UNK     1      18.061  -6.928  37.080  1.00  0.00     0.032 A 
HETATM   17  C6  UNK     1      19.922  -5.646  36.125  1.00  0.00     0.086 A 
HETATM   18  C15 UNK     1      18.812  -8.092  36.883  1.00  0.00     0.002 A 
HETATM   19  C16 UNK     1      20.089  -8.044  36.320  1.00  0.00     0.002 A 
HETATM   20  C13 UNK     1      20.662  -6.825  35.934  1.00  0.00     0.034 A 
HETATM   21  N2  UNK     1      20.248  -4.341  35.837  1.00  0.00    -0.228 NA
ENDBRANCH   3  12
BRANCH  10  22
HETATM   22  N3  UNK     1      18.149   2.521  32.382  1.00  0.00    -0.116 N 
HETATM   23  O3  UNK     1      18.386   1.885  31.328  1.00  0.00    -0.532 OA
HETATM   24  O4  UNK     1      17.819   3.731  32.371  1.00  0.00    -0.532 OA
ENDBRANCH  10  22
TORSDOF 2
ENDMDL
