MODEL 1
REMARK VINA RESULT:      -9.3      0.000      0.000
REMARK  6 active torsions:
REMARK  status: ('A' for Active; 'I' for Inactive)
REMARK    1  A    between atoms: C2_9  and  O1_2 
REMARK    2  A    between atoms: C5_12  and  O1_2 
REMARK       I    between atoms: C20_27  and  N1_6 
REMARK    3  A    between atoms: N1_6  and  N2_7 
REMARK    4  A    between atoms: C1_8  and  C2_9 
REMARK    5  A    between atoms: C10_17  and  C20_27 
REMARK    6  A    between atoms: C14_21  and  C21_28 
ROOT
HETATM    1  O4  UNK     1      21.173  -3.397  31.754  1.00  0.00    -0.266 OA
HETATM    2  N1  UNK     1      20.201  -2.486  33.648  1.00  0.00    -0.243 N 
HETATM    3  C20 UNK     1      20.555  -2.493  32.312  1.00  0.00     0.271 C 
HETATM    4  H19 UNK     1      19.740  -1.709  34.109  1.00  0.00     0.192 HD
ENDROOT
BRANCH   2   5
HETATM    5  N2  UNK     1      20.552  -3.546  34.415  1.00  0.00    -0.183 NA
HETATM    6  C21 UNK     1      19.780  -3.735  35.436  1.00  0.00     0.156 C 
BRANCH   6   7
HETATM    7  C14 UNK     1      19.991  -4.827  36.388  1.00  0.00     0.056 A 
HETATM    8  C11 UNK     1      19.707  -6.246  36.083  1.00  0.00     0.198 A 
HETATM    9  O3  UNK     1      19.273  -6.604  34.996  1.00  0.00    -0.286 OA
HETATM   10  C6  UNK     1      19.977  -7.206  37.169  1.00  0.00     0.050 A 
HETATM   11  C15 UNK     1      19.742  -8.571  36.987  1.00  0.00     0.042 A 
HETATM   12  C9  UNK     1      20.472  -6.733  38.385  1.00  0.00     0.089 A 
HETATM   13  C18 UNK     1      20.007  -9.460  38.029  1.00  0.00     0.035 A 
HETATM   14 Cl1  UNK     1      19.718 -11.144  37.815  1.00  0.00    -0.084 Cl
HETATM   15  C19 UNK     1      20.502  -8.989  39.246  1.00  0.00     0.026 A 
HETATM   16  C16 UNK     1      20.736  -7.625  39.426  1.00  0.00     0.040 A 
HETATM   17  O2  UNK     1      20.723  -5.404  38.619  1.00  0.00    -0.321 OA
HETATM   18  C17 UNK     1      20.464  -4.518  37.600  1.00  0.00     0.159 A 
ENDBRANCH   6   7
ENDBRANCH   2   5
BRANCH   3  19
HETATM   19  C10 UNK     1      20.159  -1.292  31.531  1.00  0.00     0.033 A 
HETATM   20  C12 UNK     1      19.305  -0.376  32.109  1.00  0.00     0.020 A 
HETATM   21  C7  UNK     1      18.934   0.752  31.377  1.00  0.00     0.038 A 
HETATM   22  C5  UNK     1      19.423   0.937  30.084  1.00  0.00     0.068 A 
HETATM   23  C8  UNK     1      20.286  -0.005  29.523  1.00  0.00     0.038 A 
HETATM   24  C13 UNK     1      20.657  -1.133  30.255  1.00  0.00     0.020 A 
BRANCH  22  25
HETATM   25  O1  UNK     1      19.062   2.039  29.370  1.00  0.00    -0.351 OA
BRANCH  25  26
HETATM   26  C2  UNK     1      18.150   2.943  29.989  1.00  0.00     0.179 C 
BRANCH  26  27
HETATM   27  C1  UNK     1      18.923   4.028  30.745  1.00  0.00     0.002 C 
HETATM   28  C3  UNK     1      19.126   5.274  29.879  1.00  0.00     0.011 C 
HETATM   29  C4  UNK     1      18.201   4.394  32.039  1.00  0.00     0.011 C 
ENDBRANCH  26  27
ENDBRANCH  25  26
ENDBRANCH  22  25
ENDBRANCH   3  19
TORSDOF 6
ENDMDL
MODEL 2
REMARK VINA RESULT:      -8.9      2.276      3.005
REMARK  6 active torsions:
REMARK  status: ('A' for Active; 'I' for Inactive)
REMARK    1  A    between atoms: C2_9  and  O1_2 
REMARK    2  A    between atoms: C5_12  and  O1_2 
REMARK       I    between atoms: C20_27  and  N1_6 
REMARK    3  A    between atoms: N1_6  and  N2_7 
REMARK    4  A    between atoms: C1_8  and  C2_9 
REMARK    5  A    between atoms: C10_17  and  C20_27 
REMARK    6  A    between atoms: C14_21  and  C21_28 
ROOT
HETATM    1  O4  UNK     1      18.159  -0.436  37.250  1.00  0.00    -0.266 OA
HETATM    2  N1  UNK     1      19.116  -1.777  35.622  1.00  0.00    -0.243 N 
HETATM    3  C20 UNK     1      18.557  -0.606  36.100  1.00  0.00     0.271 C 
HETATM    4  H19 UNK     1      19.389  -1.922  34.657  1.00  0.00     0.192 HD
ENDROOT
BRANCH   2   5
HETATM    5  N2  UNK     1      19.241  -2.826  36.470  1.00  0.00    -0.183 NA
HETATM    6  C21 UNK     1      20.132  -3.691  36.108  1.00  0.00     0.156 C 
BRANCH   6   7
HETATM    7  C14 UNK     1      20.419  -4.897  36.888  1.00  0.00     0.056 A 
HETATM    8  C11 UNK     1      19.806  -6.215  36.611  1.00  0.00     0.198 A 
HETATM    9  O3  UNK     1      19.010  -6.384  35.698  1.00  0.00    -0.286 OA
HETATM   10  C6  UNK     1      20.212  -7.315  37.506  1.00  0.00     0.050 A 
HETATM   11  C15 UNK     1      19.692  -8.600  37.334  1.00  0.00     0.042 A 
HETATM   12  C9  UNK     1      21.126  -7.055  38.529  1.00  0.00     0.089 A 
HETATM   13  C18 UNK     1      20.093  -9.624  38.193  1.00  0.00     0.035 A 
HETATM   14 Cl1  UNK     1      19.456 -11.212  37.991  1.00  0.00    -0.084 Cl
HETATM   15  C19 UNK     1      21.006  -9.367  39.217  1.00  0.00     0.026 A 
HETATM   16  C16 UNK     1      21.524  -8.082  39.386  1.00  0.00     0.040 A 
HETATM   17  O2  UNK     1      21.669  -5.813  38.743  1.00  0.00    -0.321 OA
HETATM   18  C17 UNK     1      21.280  -4.795  37.905  1.00  0.00     0.159 A 
ENDBRANCH   6   7
ENDBRANCH   2   5
BRANCH   3  19
HETATM   19  C10 UNK     1      18.430   0.499  35.114  1.00  0.00     0.033 A 
HETATM   20  C12 UNK     1      18.360   0.188  33.773  1.00  0.00     0.020 A 
HETATM   21  C7  UNK     1      18.240   1.225  32.848  1.00  0.00     0.038 A 
HETATM   22  C5  UNK     1      18.191   2.548  33.285  1.00  0.00     0.068 A 
HETATM   23  C8  UNK     1      18.263   2.836  34.648  1.00  0.00     0.038 A 
HETATM   24  C13 UNK     1      18.384   1.799  35.574  1.00  0.00     0.020 A 
BRANCH  22  25
HETATM   25  O1  UNK     1      18.072   3.560  32.382  1.00  0.00    -0.351 OA
BRANCH  25  26
HETATM   26  C2  UNK     1      18.018   4.888  32.898  1.00  0.00     0.179 C 
BRANCH  26  27
HETATM   27  C1  UNK     1      18.919   5.808  32.069  1.00  0.00     0.002 C 
HETATM   28  C3  UNK     1      20.118   6.297  32.885  1.00  0.00     0.011 C 
HETATM   29  C4  UNK     1      19.393   5.093  30.806  1.00  0.00     0.011 C 
ENDBRANCH  26  27
ENDBRANCH  25  26
ENDBRANCH  22  25
ENDBRANCH   3  19
TORSDOF 6
ENDMDL
MODEL 3
REMARK VINA RESULT:      -8.8      4.075     11.254
REMARK  6 active torsions:
REMARK  status: ('A' for Active; 'I' for Inactive)
REMARK    1  A    between atoms: C2_9  and  O1_2 
REMARK    2  A    between atoms: C5_12  and  O1_2 
REMARK       I    between atoms: C20_27  and  N1_6 
REMARK    3  A    between atoms: N1_6  and  N2_7 
REMARK    4  A    between atoms: C1_8  and  C2_9 
REMARK    5  A    between atoms: C10_17  and  C20_27 
REMARK    6  A    between atoms: C14_21  and  C21_28 
ROOT
HETATM    1  O4  UNK     1      21.525  -2.786  36.104  1.00  0.00    -0.266 OA
HETATM    2  N1  UNK     1      19.254  -2.503  35.754  1.00  0.00    -0.243 N 
HETATM    3  C20 UNK     1      20.367  -3.181  36.216  1.00  0.00     0.271 C 
HETATM    4  H19 UNK     1      18.308  -2.866  35.803  1.00  0.00     0.192 HD
ENDROOT
BRANCH   2   5
HETATM    5  N2  UNK     1      19.433  -1.315  35.129  1.00  0.00    -0.183 NA
HETATM    6  C21 UNK     1      18.433  -0.951  34.394  1.00  0.00     0.156 C 
BRANCH   6   7
HETATM    7  C14 UNK     1      18.430   0.301  33.635  1.00  0.00     0.056 A 
HETATM    8  C11 UNK     1      18.251   1.633  34.254  1.00  0.00     0.198 A 
HETATM    9  O3  UNK     1      18.092   1.775  35.458  1.00  0.00    -0.286 OA
HETATM   10  C6  UNK     1      18.272   2.782  33.329  1.00  0.00     0.050 A 
HETATM   11  C15 UNK     1      18.110   4.084  33.808  1.00  0.00     0.042 A 
HETATM   12  C9  UNK     1      18.458   2.551  31.965  1.00  0.00     0.089 A 
HETATM   13  C18 UNK     1      18.135   5.154  32.913  1.00  0.00     0.035 A 
HETATM   14 Cl1  UNK     1      17.933   6.763  33.494  1.00  0.00    -0.084 Cl
HETATM   15  C19 UNK     1      18.320   4.926  31.549  1.00  0.00     0.026 A 
HETATM   16  C16 UNK     1      18.483   3.624  31.073  1.00  0.00     0.040 A 
HETATM   17  O2  UNK     1      18.624   1.294  31.439  1.00  0.00    -0.321 OA
HETATM   18  C17 UNK     1      18.598   0.231  32.311  1.00  0.00     0.159 A 
ENDBRANCH   6   7
ENDBRANCH   2   5
BRANCH   3  19
HETATM   19  C10 UNK     1      20.102  -4.487  36.873  1.00  0.00     0.033 A 
HETATM   20  C12 UNK     1      19.009  -5.225  36.470  1.00  0.00     0.020 A 
HETATM   21  C7  UNK     1      18.761  -6.451  37.086  1.00  0.00     0.038 A 
HETATM   22  C5  UNK     1      19.612  -6.912  38.090  1.00  0.00     0.068 A 
HETATM   23  C8  UNK     1      20.711  -6.147  38.479  1.00  0.00     0.038 A 
HETATM   24  C13 UNK     1      20.959  -4.920  37.864  1.00  0.00     0.020 A 
BRANCH  22  25
HETATM   25  O1  UNK     1      19.371  -8.111  38.691  1.00  0.00    -0.351 OA
BRANCH  25  26
HETATM   26  C2  UNK     1      20.505  -8.895  39.053  1.00  0.00     0.179 C 
BRANCH  26  27
HETATM   27  C1  UNK     1      20.699 -10.030  38.044  1.00  0.00     0.002 C 
HETATM   28  C3  UNK     1      19.362 -10.481  37.449  1.00  0.00     0.011 C 
HETATM   29  C4  UNK     1      21.655  -9.601  36.935  1.00  0.00     0.011 C 
ENDBRANCH  26  27
ENDBRANCH  25  26
ENDBRANCH  22  25
ENDBRANCH   3  19
TORSDOF 6
ENDMDL
MODEL 4
REMARK VINA RESULT:      -8.8      2.443      3.146
REMARK  6 active torsions:
REMARK  status: ('A' for Active; 'I' for Inactive)
REMARK    1  A    between atoms: C2_9  and  O1_2 
REMARK    2  A    between atoms: C5_12  and  O1_2 
REMARK       I    between atoms: C20_27  and  N1_6 
REMARK    3  A    between atoms: N1_6  and  N2_7 
REMARK    4  A    between atoms: C1_8  and  C2_9 
REMARK    5  A    between atoms: C10_17  and  C20_27 
REMARK    6  A    between atoms: C14_21  and  C21_28 
ROOT
HETATM    1  O4  UNK     1      18.193  -1.064  37.007  1.00  0.00    -0.266 OA
HETATM    2  N1  UNK     1      20.018  -1.543  35.666  1.00  0.00    -0.243 N 
HETATM    3  C20 UNK     1      18.936  -0.784  36.070  1.00  0.00     0.271 C 
HETATM    4  H19 UNK     1      20.590  -1.330  34.856  1.00  0.00     0.192 HD
ENDROOT
BRANCH   2   5
HETATM    5  N2  UNK     1      20.295  -2.685  36.341  1.00  0.00    -0.183 NA
HETATM    6  C21 UNK     1      19.909  -3.761  35.735  1.00  0.00     0.156 C 
BRANCH   6   7
HETATM    7  C14 UNK     1      20.113  -5.096  36.298  1.00  0.00     0.056 A 
HETATM    8  C11 UNK     1      20.460  -6.283  35.485  1.00  0.00     0.198 A 
HETATM    9  O3  UNK     1      20.602  -6.223  34.272  1.00  0.00    -0.286 OA
HETATM   10  C6  UNK     1      20.623  -7.547  36.227  1.00  0.00     0.050 A 
HETATM   11  C15 UNK     1      20.948  -8.729  35.556  1.00  0.00     0.042 A 
HETATM   12  C9  UNK     1      20.448  -7.549  37.612  1.00  0.00     0.089 A 
HETATM   13  C18 UNK     1      21.098  -9.912  36.281  1.00  0.00     0.035 A 
HETATM   14 Cl1  UNK     1      21.497 -11.374  35.463  1.00  0.00    -0.084 Cl
HETATM   15  C19 UNK     1      20.924  -9.916  37.666  1.00  0.00     0.026 A 
HETATM   16  C16 UNK     1      20.599  -8.734  38.333  1.00  0.00     0.040 A 
HETATM   17  O2  UNK     1      20.130  -6.418  38.322  1.00  0.00    -0.321 OA
HETATM   18  C17 UNK     1      19.977  -5.246  37.619  1.00  0.00     0.159 A 
ENDBRANCH   6   7
ENDBRANCH   2   5
BRANCH   3  19
HETATM   19  C10 UNK     1      18.675   0.444  35.275  1.00  0.00     0.033 A 
HETATM   20  C12 UNK     1      18.798   1.673  35.889  1.00  0.00     0.020 A 
HETATM   21  C7  UNK     1      18.553   2.825  35.143  1.00  0.00     0.038 A 
HETATM   22  C5  UNK     1      18.191   2.724  33.800  1.00  0.00     0.068 A 
HETATM   23  C8  UNK     1      18.075   1.469  33.202  1.00  0.00     0.038 A 
HETATM   24  C13 UNK     1      18.319   0.315  33.948  1.00  0.00     0.020 A 
BRANCH  22  25
HETATM   25  O1  UNK     1      17.954   3.849  33.071  1.00  0.00    -0.351 OA
BRANCH  25  26
HETATM   26  C2  UNK     1      18.369   5.090  33.639  1.00  0.00     0.179 C 
BRANCH  26  27
HETATM   27  C1  UNK     1      18.986   5.980  32.556  1.00  0.00     0.002 C 
HETATM   28  C3  UNK     1      20.374   6.476  32.967  1.00  0.00     0.011 C 
HETATM   29  C4  UNK     1      19.061   5.229  31.229  1.00  0.00     0.011 C 
ENDBRANCH  26  27
ENDBRANCH  25  26
ENDBRANCH  22  25
ENDBRANCH   3  19
TORSDOF 6
ENDMDL
MODEL 5
REMARK VINA RESULT:      -8.7      6.333      9.952
REMARK  6 active torsions:
REMARK  status: ('A' for Active; 'I' for Inactive)
REMARK    1  A    between atoms: C2_9  and  O1_2 
REMARK    2  A    between atoms: C5_12  and  O1_2 
REMARK       I    between atoms: C20_27  and  N1_6 
REMARK    3  A    between atoms: N1_6  and  N2_7 
REMARK    4  A    between atoms: C1_8  and  C2_9 
REMARK    5  A    between atoms: C10_17  and  C20_27 
REMARK    6  A    between atoms: C14_21  and  C21_28 
ROOT
HETATM    1  O4  UNK     1      19.444   5.893  33.632  1.00  0.00    -0.266 OA
HETATM    2  N1  UNK     1      17.415   5.085  32.862  1.00  0.00    -0.243 N 
HETATM    3  C20 UNK     1      18.245   6.045  33.411  1.00  0.00     0.271 C 
HETATM    4  H19 UNK     1      16.416   5.204  32.737  1.00  0.00     0.192 HD
ENDROOT
BRANCH   2   5
HETATM    5  N2  UNK     1      17.945   3.881  32.538  1.00  0.00    -0.183 NA
HETATM    6  C21 UNK     1      18.044   3.675  31.265  1.00  0.00     0.156 C 
BRANCH   6   7
HETATM    7  C14 UNK     1      18.589   2.436  30.709  1.00  0.00     0.056 A 
HETATM    8  C11 UNK     1      19.013   1.285  31.537  1.00  0.00     0.198 A 
HETATM    9  O3  UNK     1      18.930   1.295  32.757  1.00  0.00    -0.286 OA
HETATM   10  C6  UNK     1      19.543   0.122  30.801  1.00  0.00     0.050 A 
HETATM   11  C15 UNK     1      19.973  -1.018  31.486  1.00  0.00     0.042 A 
HETATM   12  C9  UNK     1      19.610   0.173  29.408  1.00  0.00     0.089 A 
HETATM   13  C18 UNK     1      20.470  -2.105  30.766  1.00  0.00     0.035 A 
HETATM   14 Cl1  UNK     1      21.004  -3.514  31.601  1.00  0.00    -0.084 Cl
HETATM   15  C19 UNK     1      20.537  -2.056  29.373  1.00  0.00     0.026 A 
HETATM   16  C16 UNK     1      20.107  -0.916  28.692  1.00  0.00     0.040 A 
HETATM   17  O2  UNK     1      19.201   1.265  28.684  1.00  0.00    -0.321 OA
HETATM   18  C17 UNK     1      18.712   2.345  29.381  1.00  0.00     0.159 A 
ENDBRANCH   6   7
ENDBRANCH   2   5
BRANCH   3  19
HETATM   19  C10 UNK     1      17.597   7.335  33.763  1.00  0.00     0.033 A 
HETATM   20  C12 UNK     1      18.328   8.499  33.650  1.00  0.00     0.020 A 
HETATM   21  C7  UNK     1      17.721   9.710  33.980  1.00  0.00     0.038 A 
HETATM   22  C5  UNK     1      16.395   9.730  34.415  1.00  0.00     0.068 A 
HETATM   23  C8  UNK     1      15.677   8.539  34.519  1.00  0.00     0.038 A 
HETATM   24  C13 UNK     1      16.285   7.327  34.190  1.00  0.00     0.020 A 
BRANCH  22  25
HETATM   25  O1  UNK     1      15.801  10.913  34.735  1.00  0.00    -0.351 OA
BRANCH  25  26
HETATM   26  C2  UNK     1      14.430  10.866  35.123  1.00  0.00     0.179 C 
BRANCH  26  27
HETATM   27  C1  UNK     1      13.599  11.778  34.215  1.00  0.00     0.002 C 
HETATM   28  C3  UNK     1      14.415  12.982  33.738  1.00  0.00     0.011 C 
HETATM   29  C4  UNK     1      13.063  10.994  33.020  1.00  0.00     0.011 C 
ENDBRANCH  26  27
ENDBRANCH  25  26
ENDBRANCH  22  25
ENDBRANCH   3  19
TORSDOF 6
ENDMDL
MODEL 6
REMARK VINA RESULT:      -8.7      4.081     11.075
REMARK  6 active torsions:
REMARK  status: ('A' for Active; 'I' for Inactive)
REMARK    1  A    between atoms: C2_9  and  O1_2 
REMARK    2  A    between atoms: C5_12  and  O1_2 
REMARK       I    between atoms: C20_27  and  N1_6 
REMARK    3  A    between atoms: N1_6  and  N2_7 
REMARK    4  A    between atoms: C1_8  and  C2_9 
REMARK    5  A    between atoms: C10_17  and  C20_27 
REMARK    6  A    between atoms: C14_21  and  C21_28 
ROOT
HETATM    1  O4  UNK     1      21.354  -2.948  36.402  1.00  0.00    -0.266 OA
HETATM    2  N1  UNK     1      19.142  -2.902  35.720  1.00  0.00    -0.243 N 
HETATM    3  C20 UNK     1      20.236  -3.455  36.359  1.00  0.00     0.271 C 
HETATM    4  H19 UNK     1      18.239  -3.359  35.644  1.00  0.00     0.192 HD
ENDROOT
BRANCH   2   5
HETATM    5  N2  UNK     1      19.294  -1.713  35.089  1.00  0.00    -0.183 NA
HETATM    6  C21 UNK     1      18.347  -0.865  35.330  1.00  0.00     0.156 C 
BRANCH   6   7
HETATM    7  C14 UNK     1      18.326   0.476  34.744  1.00  0.00     0.056 A 
HETATM    8  C11 UNK     1      18.430   0.736  33.291  1.00  0.00     0.198 A 
HETATM    9  O3  UNK     1      18.540  -0.168  32.474  1.00  0.00    -0.286 OA
HETATM   10  C6  UNK     1      18.395   2.153  32.885  1.00  0.00     0.050 A 
HETATM   11  C15 UNK     1      18.488   2.510  31.537  1.00  0.00     0.042 A 
HETATM   12  C9  UNK     1      18.266   3.137  33.867  1.00  0.00     0.089 A 
HETATM   13  C18 UNK     1      18.451   3.858  31.179  1.00  0.00     0.035 A 
HETATM   14 Cl1  UNK     1      18.567   4.308  29.521  1.00  0.00    -0.084 Cl
HETATM   15  C19 UNK     1      18.323   4.843  32.160  1.00  0.00     0.026 A 
HETATM   16  C16 UNK     1      18.230   4.484  33.505  1.00  0.00     0.040 A 
HETATM   17  O2  UNK     1      18.170   2.844  35.205  1.00  0.00    -0.321 OA
HETATM   18  C17 UNK     1      18.208   1.519  35.571  1.00  0.00     0.159 A 
ENDBRANCH   6   7
ENDBRANCH   2   5
BRANCH   3  19
HETATM   19  C10 UNK     1      20.007  -4.771  37.012  1.00  0.00     0.033 A 
HETATM   20  C12 UNK     1      20.811  -5.135  38.071  1.00  0.00     0.020 A 
HETATM   21  C7  UNK     1      20.596  -6.369  38.686  1.00  0.00     0.038 A 
HETATM   22  C5  UNK     1      19.582  -7.210  38.227  1.00  0.00     0.068 A 
HETATM   23  C8  UNK     1      18.782  -6.817  37.154  1.00  0.00     0.038 A 
HETATM   24  C13 UNK     1      18.998  -5.583  36.539  1.00  0.00     0.020 A 
BRANCH  22  25
HETATM   25  O1  UNK     1      19.371  -8.413  38.827  1.00  0.00    -0.351 OA
BRANCH  25  26
HETATM   26  C2  UNK     1      20.514  -9.235  39.054  1.00  0.00     0.179 C 
BRANCH  26  27
HETATM   27  C1  UNK     1      20.650 -10.263  37.927  1.00  0.00     0.002 C 
HETATM   28  C3  UNK     1      19.289 -10.594  37.308  1.00  0.00     0.011 C 
HETATM   29  C4  UNK     1      21.611  -9.756  36.855  1.00  0.00     0.011 C 
ENDBRANCH  26  27
ENDBRANCH  25  26
ENDBRANCH  22  25
ENDBRANCH   3  19
TORSDOF 6
ENDMDL
MODEL 7
REMARK VINA RESULT:      -8.7      2.625      3.477
REMARK  6 active torsions:
REMARK  status: ('A' for Active; 'I' for Inactive)
REMARK    1  A    between atoms: C2_9  and  O1_2 
REMARK    2  A    between atoms: C5_12  and  O1_2 
REMARK       I    between atoms: C20_27  and  N1_6 
REMARK    3  A    between atoms: N1_6  and  N2_7 
REMARK    4  A    between atoms: C1_8  and  C2_9 
REMARK    5  A    between atoms: C10_17  and  C20_27 
REMARK    6  A    between atoms: C14_21  and  C21_28 
ROOT
HETATM    1  O4  UNK     1      18.069  -0.198  37.178  1.00  0.00    -0.266 OA
HETATM    2  N1  UNK     1      19.188  -1.508  35.631  1.00  0.00    -0.243 N 
HETATM    3  C20 UNK     1      18.554  -0.357  36.061  1.00  0.00     0.271 C 
HETATM    4  H19 UNK     1      19.534  -1.646  34.687  1.00  0.00     0.192 HD
ENDROOT
BRANCH   2   5
HETATM    5  N2  UNK     1      19.291  -2.548  36.491  1.00  0.00    -0.183 NA
HETATM    6  C21 UNK     1      19.383  -3.702  35.913  1.00  0.00     0.156 C 
BRANCH   6   7
HETATM    7  C14 UNK     1      19.502  -4.951  36.667  1.00  0.00     0.056 A 
HETATM    8  C11 UNK     1      20.685  -5.307  37.480  1.00  0.00     0.198 A 
HETATM    9  O3  UNK     1      21.655  -4.568  37.577  1.00  0.00    -0.286 OA
HETATM   10  C6  UNK     1      20.628  -6.611  38.166  1.00  0.00     0.050 A 
HETATM   11  C15 UNK     1      21.694  -7.046  38.958  1.00  0.00     0.042 A 
HETATM   12  C9  UNK     1      19.492  -7.408  38.015  1.00  0.00     0.089 A 
HETATM   13  C18 UNK     1      21.615  -8.283  39.598  1.00  0.00     0.035 A 
HETATM   14 Cl1  UNK     1      22.924  -8.829  40.575  1.00  0.00    -0.084 Cl
HETATM   15  C19 UNK     1      20.480  -9.082  39.448  1.00  0.00     0.026 A 
HETATM   16  C16 UNK     1      19.417  -8.645  38.656  1.00  0.00     0.040 A 
HETATM   17  O2  UNK     1      18.416  -7.031  37.250  1.00  0.00    -0.321 OA
HETATM   18  C17 UNK     1      18.483  -5.815  36.612  1.00  0.00     0.159 A 
ENDBRANCH   6   7
ENDBRANCH   2   5
BRANCH   3  19
HETATM   19  C10 UNK     1      18.455   0.739  35.061  1.00  0.00     0.033 A 
HETATM   20  C12 UNK     1      18.378   0.414  33.724  1.00  0.00     0.020 A 
HETATM   21  C7  UNK     1      18.284   1.442  32.786  1.00  0.00     0.038 A 
HETATM   22  C5  UNK     1      18.270   2.772  33.207  1.00  0.00     0.068 A 
HETATM   23  C8  UNK     1      18.350   3.073  34.566  1.00  0.00     0.038 A 
HETATM   24  C13 UNK     1      18.444   2.045  35.505  1.00  0.00     0.020 A 
BRANCH  22  25
HETATM   25  O1  UNK     1      18.178   3.776  32.292  1.00  0.00    -0.351 OA
BRANCH  25  26
HETATM   26  C2  UNK     1      18.035   5.102  32.795  1.00  0.00     0.179 C 
BRANCH  26  27
HETATM   27  C1  UNK     1      19.069   6.023  32.142  1.00  0.00     0.002 C 
HETATM   28  C3  UNK     1      20.248   6.291  33.081  1.00  0.00     0.011 C 
HETATM   29  C4  UNK     1      19.563   5.423  30.828  1.00  0.00     0.011 C 
ENDBRANCH  26  27
ENDBRANCH  25  26
ENDBRANCH  22  25
ENDBRANCH   3  19
TORSDOF 6
ENDMDL
MODEL 8
REMARK VINA RESULT:      -8.6      6.441     10.277
REMARK  6 active torsions:
REMARK  status: ('A' for Active; 'I' for Inactive)
REMARK    1  A    between atoms: C2_9  and  O1_2 
REMARK    2  A    between atoms: C5_12  and  O1_2 
REMARK       I    between atoms: C20_27  and  N1_6 
REMARK    3  A    between atoms: N1_6  and  N2_7 
REMARK    4  A    between atoms: C1_8  and  C2_9 
REMARK    5  A    between atoms: C10_17  and  C20_27 
REMARK    6  A    between atoms: C14_21  and  C21_28 
ROOT
HETATM    1  O4  UNK     1      17.478   7.103  30.950  1.00  0.00    -0.266 OA
HETATM    2  N1  UNK     1      17.717   5.696  32.774  1.00  0.00    -0.243 N 
HETATM    3  C20 UNK     1      17.281   6.841  32.135  1.00  0.00     0.271 C 
HETATM    4  H19 UNK     1      17.597   5.518  33.765  1.00  0.00     0.192 HD
ENDROOT
BRANCH   2   5
HETATM    5  N2  UNK     1      18.415   4.782  32.057  1.00  0.00    -0.183 NA
HETATM    6  C21 UNK     1      17.845   3.623  31.985  1.00  0.00     0.156 C 
BRANCH   6   7
HETATM    7  C14 UNK     1      18.438   2.500  31.258  1.00  0.00     0.056 A 
HETATM    8  C11 UNK     1      18.878   1.245  31.907  1.00  0.00     0.198 A 
HETATM    9  O3  UNK     1      18.770   1.063  33.112  1.00  0.00    -0.286 OA
HETATM   10  C6  UNK     1      19.457   0.225  31.014  1.00  0.00     0.050 A 
HETATM   11  C15 UNK     1      19.906  -0.996  31.524  1.00  0.00     0.042 A 
HETATM   12  C9  UNK     1      19.551   0.494  29.647  1.00  0.00     0.089 A 
HETATM   13  C18 UNK     1      20.449  -1.945  30.657  1.00  0.00     0.035 A 
HETATM   14 Cl1  UNK     1      21.007  -3.452  31.277  1.00  0.00    -0.084 Cl
HETATM   15  C19 UNK     1      20.544  -1.678  29.291  1.00  0.00     0.026 A 
HETATM   16  C16 UNK     1      20.095  -0.457  28.784  1.00  0.00     0.040 A 
HETATM   17  O2  UNK     1      19.125   1.675  29.091  1.00  0.00    -0.321 OA
HETATM   18  C17 UNK     1      18.590   2.620  29.936  1.00  0.00     0.159 A 
ENDBRANCH   6   7
ENDBRANCH   2   5
BRANCH   3  19
HETATM   19  C10 UNK     1      16.540   7.812  32.982  1.00  0.00     0.033 A 
HETATM   20  C12 UNK     1      15.211   7.573  33.259  1.00  0.00     0.020 A 
HETATM   21  C7  UNK     1      14.515   8.483  34.055  1.00  0.00     0.038 A 
HETATM   22  C5  UNK     1      15.165   9.612  34.554  1.00  0.00     0.068 A 
HETATM   23  C8  UNK     1      16.510   9.831  34.259  1.00  0.00     0.038 A 
HETATM   24  C13 UNK     1      17.206   8.920  33.462  1.00  0.00     0.020 A 
BRANCH  22  25
HETATM   25  O1  UNK     1      14.486  10.501  35.332  1.00  0.00    -0.351 OA
BRANCH  25  26
HETATM   26  C2  UNK     1      14.658  11.885  35.036  1.00  0.00     0.179 C 
BRANCH  26  27
HETATM   27  C1  UNK     1      13.922  12.237  33.740  1.00  0.00     0.002 C 
HETATM   28  C3  UNK     1      12.406  12.112  33.908  1.00  0.00     0.011 C 
HETATM   29  C4  UNK     1      14.291  13.647  33.284  1.00  0.00     0.011 C 
ENDBRANCH  26  27
ENDBRANCH  25  26
ENDBRANCH  22  25
ENDBRANCH   3  19
TORSDOF 6
ENDMDL
MODEL 9
REMARK VINA RESULT:      -8.5      1.441      1.789
REMARK  6 active torsions:
REMARK  status: ('A' for Active; 'I' for Inactive)
REMARK    1  A    between atoms: C2_9  and  O1_2 
REMARK    2  A    between atoms: C5_12  and  O1_2 
REMARK       I    between atoms: C20_27  and  N1_6 
REMARK    3  A    between atoms: N1_6  and  N2_7 
REMARK    4  A    between atoms: C1_8  and  C2_9 
REMARK    5  A    between atoms: C10_17  and  C20_27 
REMARK    6  A    between atoms: C14_21  and  C21_28 
ROOT
HETATM    1  O4  UNK     1      19.982  -2.458  32.446  1.00  0.00    -0.266 OA
HETATM    2  N1  UNK     1      19.718  -1.850  34.664  1.00  0.00    -0.243 N 
HETATM    3  C20 UNK     1      19.644  -1.642  33.300  1.00  0.00     0.271 C 
HETATM    4  H19 UNK     1      19.489  -1.148  35.359  1.00  0.00     0.192 HD
ENDROOT
BRANCH   2   5
HETATM    5  N2  UNK     1      20.196  -3.036  35.112  1.00  0.00    -0.183 NA
HETATM    6  C21 UNK     1      19.912  -3.284  36.350  1.00  0.00     0.156 C 
BRANCH   6   7
HETATM    7  C14 UNK     1      20.339  -4.512  37.023  1.00  0.00     0.056 A 
HETATM    8  C11 UNK     1      19.526  -5.747  37.064  1.00  0.00     0.198 A 
HETATM    9  O3  UNK     1      18.428  -5.823  36.528  1.00  0.00    -0.286 OA
HETATM   10  C6  UNK     1      20.117  -6.885  37.793  1.00  0.00     0.050 A 
HETATM   11  C15 UNK     1      19.432  -8.098  37.894  1.00  0.00     0.042 A 
HETATM   12  C9  UNK     1      21.373  -6.734  38.382  1.00  0.00     0.089 A 
HETATM   13  C18 UNK     1      20.013  -9.160  38.589  1.00  0.00     0.035 A 
HETATM   14 Cl1  UNK     1      19.176 -10.659  38.721  1.00  0.00    -0.084 Cl
HETATM   15  C19 UNK     1      21.269  -9.011  39.178  1.00  0.00     0.026 A 
HETATM   16  C16 UNK     1      21.952  -7.798  39.075  1.00  0.00     0.040 A 
HETATM   17  O2  UNK     1      22.091  -5.566  38.313  1.00  0.00    -0.321 OA
HETATM   18  C17 UNK     1      21.528  -4.511  37.633  1.00  0.00     0.159 A 
ENDBRANCH   6   7
ENDBRANCH   2   5
BRANCH   3  19
HETATM   19  C10 UNK     1      19.131  -0.313  32.875  1.00  0.00     0.033 A 
HETATM   20  C12 UNK     1      18.489   0.479  33.803  1.00  0.00     0.020 A 
HETATM   21  C7  UNK     1      18.008   1.726  33.405  1.00  0.00     0.038 A 
HETATM   22  C5  UNK     1      18.180   2.153  32.088  1.00  0.00     0.068 A 
HETATM   23  C8  UNK     1      18.834   1.332  31.169  1.00  0.00     0.038 A 
HETATM   24  C13 UNK     1      19.314   0.084  31.567  1.00  0.00     0.020 A 
BRANCH  22  25
HETATM   25  O1  UNK     1      17.712   3.371  31.700  1.00  0.00    -0.351 OA
BRANCH  25  26
HETATM   26  C2  UNK     1      18.353   4.519  32.253  1.00  0.00     0.179 C 
BRANCH  26  27
HETATM   27  C1  UNK     1      18.559   5.576  31.164  1.00  0.00     0.002 C 
HETATM   28  C3  UNK     1      18.039   6.945  31.612  1.00  0.00     0.011 C 
HETATM   29  C4  UNK     1      20.034   5.668  30.783  1.00  0.00     0.011 C 
ENDBRANCH  26  27
ENDBRANCH  25  26
ENDBRANCH  22  25
ENDBRANCH   3  19
TORSDOF 6
ENDMDL
MODEL 10
REMARK VINA RESULT:      -8.4      8.330     14.443
REMARK  6 active torsions:
REMARK  status: ('A' for Active; 'I' for Inactive)
REMARK    1  A    between atoms: C2_9  and  O1_2 
REMARK    2  A    between atoms: C5_12  and  O1_2 
REMARK       I    between atoms: C20_27  and  N1_6 
REMARK    3  A    between atoms: N1_6  and  N2_7 
REMARK    4  A    between atoms: C1_8  and  C2_9 
REMARK    5  A    between atoms: C10_17  and  C20_27 
REMARK    6  A    between atoms: C14_21  and  C21_28 
ROOT
HETATM    1  O4  UNK     1      19.556   6.943  32.341  1.00  0.00    -0.266 OA
HETATM    2  N1  UNK     1      17.271   7.009  31.966  1.00  0.00    -0.243 N 
HETATM    3  C20 UNK     1      18.509   6.394  32.004  1.00  0.00     0.271 C 
HETATM    4  H19 UNK     1      16.425   6.561  31.633  1.00  0.00     0.192 HD
ENDROOT
BRANCH   2   5
HETATM    5  N2  UNK     1      17.187   8.313  32.322  1.00  0.00    -0.183 NA
HETATM    6  C21 UNK     1      16.732   8.503  33.519  1.00  0.00     0.156 C 
BRANCH   6   7
HETATM    7  C14 UNK     1      16.564   9.840  34.092  1.00  0.00     0.056 A 
HETATM    8  C11 UNK     1      15.309  10.308  34.722  1.00  0.00     0.198 A 
HETATM    9  O3  UNK     1      14.318   9.596  34.807  1.00  0.00    -0.286 OA
HETATM   10  C6  UNK     1      15.324  11.688  35.242  1.00  0.00     0.050 A 
HETATM   11  C15 UNK     1      14.192  12.230  35.854  1.00  0.00     0.042 A 
HETATM   12  C9  UNK     1      16.489  12.448  35.114  1.00  0.00     0.089 A 
HETATM   13  C18 UNK     1      14.232  13.538  36.338  1.00  0.00     0.035 A 
HETATM   14 Cl1  UNK     1      12.841  14.217  37.093  1.00  0.00    -0.084 Cl
HETATM   15  C19 UNK     1      15.395  14.300  36.211  1.00  0.00     0.026 A 
HETATM   16  C16 UNK     1      16.525  13.756  35.600  1.00  0.00     0.040 A 
HETATM   17  O2  UNK     1      17.630  11.966  34.523  1.00  0.00    -0.321 OA
HETATM   18  C17 UNK     1      17.602  10.679  34.039  1.00  0.00     0.159 A 
ENDBRANCH   6   7
ENDBRANCH   2   5
BRANCH   3  19
HETATM   19  C10 UNK     1      18.537   4.970  31.581  1.00  0.00     0.033 A 
HETATM   20  C12 UNK     1      18.889   4.669  30.283  1.00  0.00     0.020 A 
HETATM   21  C7  UNK     1      18.916   3.332  29.885  1.00  0.00     0.038 A 
HETATM   22  C5  UNK     1      18.589   2.327  30.795  1.00  0.00     0.068 A 
HETATM   23  C8  UNK     1      18.236   2.658  32.104  1.00  0.00     0.038 A 
HETATM   24  C13 UNK     1      18.209   3.996  32.501  1.00  0.00     0.020 A 
BRANCH  22  25
HETATM   25  O1  UNK     1      18.617   1.022  30.408  1.00  0.00    -0.351 OA
BRANCH  25  26
HETATM   26  C2  UNK     1      19.342   0.114  31.236  1.00  0.00     0.179 C 
BRANCH  26  27
HETATM   27  C1  UNK     1      20.410  -0.607  30.409  1.00  0.00     0.002 C 
HETATM   28  C3  UNK     1      20.399  -2.113  30.676  1.00  0.00     0.011 C 
HETATM   29  C4  UNK     1      20.209  -0.330  28.921  1.00  0.00     0.011 C 
ENDBRANCH  26  27
ENDBRANCH  25  26
ENDBRANCH  22  25
ENDBRANCH   3  19
TORSDOF 6
ENDMDL
