MODEL 1
REMARK VINA RESULT:      -8.9      0.000      0.000
REMARK  2 active torsions:
REMARK  status: ('A' for Active; 'I' for Inactive)
REMARK       I    between atoms: C6_12  and  N1_6 
REMARK    1  A    between atoms: C9_15  and  N1_6 
REMARK    2  A    between atoms: C3_9  and  C6_12 
ROOT
HETATM    1 Br1  UNK     1      13.798  10.339  33.073  1.00  0.00    -0.051 Br
HETATM    2  O1  UNK     1      19.266   7.749  33.527  1.00  0.00    -0.274 OA
HETATM    3  O3  UNK     1      20.814   6.241  32.786  1.00  0.00    -0.259 OA
HETATM    4  C1  UNK     1      17.119   7.917  32.397  1.00  0.00     0.000 A 
HETATM    5  C2  UNK     1      17.990   8.333  33.399  1.00  0.00     0.089 A 
HETATM    6  C3  UNK     1      18.759   6.318  31.609  1.00  0.00     0.108 A 
HETATM    7  C4  UNK     1      17.547   6.869  31.483  1.00  0.00     0.037 A 
HETATM    8  C5  UNK     1      15.863   8.522  32.303  1.00  0.00     0.033 A 
HETATM    9  C7  UNK     1      19.702   6.745  32.667  1.00  0.00     0.304 A 
HETATM   10  C8  UNK     1      17.643   9.333  34.305  1.00  0.00     0.039 A 
HETATM   11  C10 UNK     1      15.500   9.526  33.205  1.00  0.00     0.011 A 
HETATM   12  C11 UNK     1      16.388   9.930  34.204  1.00  0.00     0.022 A 
ENDROOT
BRANCH   6  13
HETATM   13  C6  UNK     1      19.099   5.268  30.641  1.00  0.00     0.262 C 
HETATM   14  O2  UNK     1      19.806   5.539  29.672  1.00  0.00    -0.267 OA
HETATM   15  N1  UNK     1      18.540   4.043  30.977  1.00  0.00    -0.323 N 
HETATM   16  H4  UNK     1      17.992   3.981  31.833  1.00  0.00     0.169 HD
BRANCH  15  17
HETATM   17  C9  UNK     1      18.655   2.819  30.276  1.00  0.00     0.036 A 
HETATM   18  C12 UNK     1      19.452   1.813  30.796  1.00  0.00     0.053 A 
HETATM   19  C14 UNK     1      19.563   0.607  30.105  1.00  0.00     0.036 A 
HETATM   20 Cl1  UNK     1      20.549  -0.657  30.732  1.00  0.00    -0.084 Cl
HETATM   21  C16 UNK     1      18.876   0.424  28.905  1.00  0.00     0.024 A 
HETATM   22  C15 UNK     1      18.078   1.448  28.395  1.00  0.00     0.004 A 
HETATM   23  C13 UNK     1      17.966   2.655  29.087  1.00  0.00     0.029 A 
ENDBRANCH  15  17
ENDBRANCH   6  13
TORSDOF 2
ENDMDL
MODEL 2
REMARK VINA RESULT:      -8.8      4.415      8.424
REMARK  2 active torsions:
REMARK  status: ('A' for Active; 'I' for Inactive)
REMARK       I    between atoms: C6_12  and  N1_6 
REMARK    1  A    between atoms: C9_15  and  N1_6 
REMARK    2  A    between atoms: C3_9  and  C6_12 
ROOT
HETATM    1 Br1  UNK     1      21.196  -3.603  31.554  1.00  0.00    -0.051 Br
HETATM    2  O1  UNK     1      19.157   1.428  28.844  1.00  0.00    -0.274 OA
HETATM    3  O3  UNK     1      18.287   3.536  28.972  1.00  0.00    -0.259 OA
HETATM    4  C1  UNK     1      19.637   0.202  30.889  1.00  0.00     0.000 A 
HETATM    5  C2  UNK     1      19.625   0.272  29.499  1.00  0.00     0.089 A 
HETATM    6  C3  UNK     1      18.716   2.439  31.026  1.00  0.00     0.108 A 
HETATM    7  C4  UNK     1      19.159   1.343  31.654  1.00  0.00     0.037 A 
HETATM    8  C5  UNK     1      20.109  -0.961  31.501  1.00  0.00     0.033 A 
HETATM    9  C7  UNK     1      18.693   2.535  29.550  1.00  0.00     0.304 A 
HETATM   10  C8  UNK     1      20.070  -0.785  28.707  1.00  0.00     0.039 A 
HETATM   11  C10 UNK     1      20.559  -2.030  30.720  1.00  0.00     0.011 A 
HETATM   12  C11 UNK     1      20.539  -1.942  29.326  1.00  0.00     0.022 A 
ENDROOT
BRANCH   6  13
HETATM   13  C6  UNK     1      18.254   3.537  31.885  1.00  0.00     0.262 C 
HETATM   14  O2  UNK     1      17.611   3.285  32.903  1.00  0.00    -0.267 OA
HETATM   15  N1  UNK     1      18.631   4.779  31.395  1.00  0.00    -0.323 N 
HETATM   16  H4  UNK     1      19.185   4.815  30.542  1.00  0.00     0.169 HD
BRANCH  15  17
HETATM   17  C9  UNK     1      18.359   6.049  31.960  1.00  0.00     0.036 A 
HETATM   18  C12 UNK     1      19.292   6.629  32.803  1.00  0.00     0.053 A 
HETATM   19  C14 UNK     1      19.024   7.880  33.357  1.00  0.00     0.036 A 
HETATM   20 Cl1  UNK     1      20.168   8.620  34.408  1.00  0.00    -0.084 Cl
HETATM   21  C16 UNK     1      17.827   8.534  33.059  1.00  0.00     0.024 A 
HETATM   22  C15 UNK     1      16.899   7.935  32.208  1.00  0.00     0.004 A 
HETATM   23  C13 UNK     1      17.167   6.683  31.654  1.00  0.00     0.029 A 
ENDBRANCH  15  17
ENDBRANCH   6  13
TORSDOF 2
ENDMDL
MODEL 3
REMARK VINA RESULT:      -8.4     16.430     17.685
REMARK  2 active torsions:
REMARK  status: ('A' for Active; 'I' for Inactive)
REMARK       I    between atoms: C6_12  and  N1_6 
REMARK    1  A    between atoms: C9_15  and  N1_6 
REMARK    2  A    between atoms: C3_9  and  C6_12 
ROOT
HETATM    1 Br1  UNK     1      33.523  -7.049  37.750  1.00  0.00    -0.051 Br
HETATM    2  O1  UNK     1      27.973  -4.764  38.638  1.00  0.00    -0.274 OA
HETATM    3  O3  UNK     1      25.735  -5.067  38.979  1.00  0.00    -0.259 OA
HETATM    4  C1  UNK     1      29.421  -6.701  38.387  1.00  0.00     0.000 A 
HETATM    5  C2  UNK     1      29.251  -5.321  38.433  1.00  0.00     0.089 A 
HETATM    6  C3  UNK     1      27.047  -7.025  38.748  1.00  0.00     0.108 A 
HETATM    7  C4  UNK     1      28.258  -7.560  38.554  1.00  0.00     0.037 A 
HETATM    8  C5  UNK     1      30.704  -7.215  38.182  1.00  0.00     0.033 A 
HETATM    9  C7  UNK     1      26.843  -5.560  38.801  1.00  0.00     0.304 A 
HETATM   10  C8  UNK     1      30.323  -4.444  38.282  1.00  0.00     0.039 A 
HETATM   11  C10 UNK     1      31.789  -6.347  38.027  1.00  0.00     0.011 A 
HETATM   12  C11 UNK     1      31.598  -4.965  38.077  1.00  0.00     0.022 A 
ENDROOT
BRANCH   6  13
HETATM   13  C6  UNK     1      25.937  -7.972  38.906  1.00  0.00     0.262 C 
HETATM   14  O2  UNK     1      26.151  -9.090  39.373  1.00  0.00    -0.267 OA
HETATM   15  N1  UNK     1      24.729  -7.440  38.478  1.00  0.00    -0.323 N 
HETATM   16  H4  UNK     1      24.718  -6.482  38.133  1.00  0.00     0.169 HD
BRANCH  15  17
HETATM   17  C9  UNK     1      23.459  -8.066  38.481  1.00  0.00     0.036 A 
HETATM   18  C12 UNK     1      23.018  -8.710  37.338  1.00  0.00     0.053 A 
HETATM   19  C14 UNK     1      21.768  -9.328  37.343  1.00  0.00     0.036 A 
HETATM   20 Cl1  UNK     1      21.200 -10.134  35.933  1.00  0.00    -0.084 Cl
HETATM   21  C16 UNK     1      20.977  -9.293  38.492  1.00  0.00     0.024 A 
HETATM   22  C15 UNK     1      21.436  -8.639  39.635  1.00  0.00     0.004 A 
HETATM   23  C13 UNK     1      22.687  -8.021  39.629  1.00  0.00     0.029 A 
ENDBRANCH  15  17
ENDBRANCH   6  13
TORSDOF 2
ENDMDL
MODEL 4
REMARK VINA RESULT:      -8.4     10.952     14.306
REMARK  2 active torsions:
REMARK  status: ('A' for Active; 'I' for Inactive)
REMARK       I    between atoms: C6_12  and  N1_6 
REMARK    1  A    between atoms: C9_15  and  N1_6 
REMARK    2  A    between atoms: C3_9  and  C6_12 
ROOT
HETATM    1 Br1  UNK     1      23.293 -11.163  35.992  1.00  0.00    -0.051 Br
HETATM    2  O1  UNK     1      18.297  -7.857  36.949  1.00  0.00    -0.274 OA
HETATM    3  O3  UNK     1      17.219  -5.842  36.937  1.00  0.00    -0.259 OA
HETATM    4  C1  UNK     1      20.627  -7.974  36.264  1.00  0.00     0.000 A 
HETATM    5  C2  UNK     1      19.471  -8.600  36.718  1.00  0.00     0.089 A 
HETATM    6  C3  UNK     1      19.486  -5.837  36.250  1.00  0.00     0.108 A 
HETATM    7  C4  UNK     1      20.604  -6.538  36.030  1.00  0.00     0.037 A 
HETATM    8  C5  UNK     1      21.771  -8.746  36.047  1.00  0.00     0.033 A 
HETATM    9  C7  UNK     1      18.245  -6.482  36.733  1.00  0.00     0.304 A 
HETATM   10  C8  UNK     1      19.426  -9.972  36.961  1.00  0.00     0.039 A 
HETATM   11  C10 UNK     1      21.742 -10.123  36.286  1.00  0.00     0.011 A 
HETATM   12  C11 UNK     1      20.571 -10.734  36.742  1.00  0.00     0.022 A 
ENDROOT
BRANCH   6  13
HETATM   13  C6  UNK     1      19.561  -4.395  35.985  1.00  0.00     0.262 C 
HETATM   14  O2  UNK     1      20.382  -3.966  35.175  1.00  0.00    -0.267 OA
HETATM   15  N1  UNK     1      18.639  -3.675  36.733  1.00  0.00    -0.323 N 
HETATM   16  H4  UNK     1      18.011  -4.188  37.349  1.00  0.00     0.169 HD
BRANCH  15  17
HETATM   17  C9  UNK     1      18.432  -2.275  36.735  1.00  0.00     0.036 A 
HETATM   18  C12 UNK     1      18.484  -1.581  35.538  1.00  0.00     0.053 A 
HETATM   19  C14 UNK     1      18.279  -0.202  35.540  1.00  0.00     0.036 A 
HETATM   20 Cl1  UNK     1      18.340   0.681  34.065  1.00  0.00    -0.084 Cl
HETATM   21  C16 UNK     1      18.024   0.464  36.740  1.00  0.00     0.024 A 
HETATM   22  C15 UNK     1      17.975  -0.251  37.937  1.00  0.00     0.004 A 
HETATM   23  C13 UNK     1      18.181  -1.631  37.934  1.00  0.00     0.029 A 
ENDBRANCH  15  17
ENDBRANCH   6  13
TORSDOF 2
ENDMDL
MODEL 5
REMARK VINA RESULT:      -8.3     14.696     18.822
REMARK  2 active torsions:
REMARK  status: ('A' for Active; 'I' for Inactive)
REMARK       I    between atoms: C6_12  and  N1_6 
REMARK    1  A    between atoms: C9_15  and  N1_6 
REMARK    2  A    between atoms: C3_9  and  C6_12 
ROOT
HETATM    1 Br1  UNK     1      20.793  -7.323  12.206  1.00  0.00    -0.051 Br
HETATM    2  O1  UNK     1      17.159  -4.026  15.774  1.00  0.00    -0.274 OA
HETATM    3  O3  UNK     1      16.663  -2.059  16.825  1.00  0.00    -0.259 OA
HETATM    4  C1  UNK     1      19.170  -4.188  14.417  1.00  0.00     0.000 A 
HETATM    5  C2  UNK     1      18.020  -4.769  14.943  1.00  0.00     0.089 A 
HETATM    6  C3  UNK     1      18.646  -2.100  15.530  1.00  0.00     0.108 A 
HETATM    7  C4  UNK     1      19.468  -2.801  14.739  1.00  0.00     0.037 A 
HETATM    8  C5  UNK     1      19.998  -4.957  13.597  1.00  0.00     0.033 A 
HETATM    9  C7  UNK     1      17.418  -2.698  16.100  1.00  0.00     0.304 A 
HETATM   10  C8  UNK     1      17.676  -6.092  14.672  1.00  0.00     0.039 A 
HETATM   11  C10 UNK     1      19.667  -6.286  13.317  1.00  0.00     0.011 A 
HETATM   12  C11 UNK     1      18.508  -6.851  13.854  1.00  0.00     0.022 A 
ENDROOT
BRANCH   6  13
HETATM   13  C6  UNK     1      19.032  -0.709  15.797  1.00  0.00     0.262 C 
HETATM   14  O2  UNK     1      19.433  -0.000  14.876  1.00  0.00    -0.267 OA
HETATM   15  N1  UNK     1      18.881  -0.372  17.135  1.00  0.00    -0.323 N 
HETATM   16  H4  UNK     1      18.514  -1.075  17.773  1.00  0.00     0.169 HD
BRANCH  15  17
HETATM   17  C9  UNK     1      19.157   0.875  17.748  1.00  0.00     0.036 A 
HETATM   18  C12 UNK     1      19.307   0.935  19.123  1.00  0.00     0.053 A 
HETATM   19  C14 UNK     1      19.580   2.163  19.725  1.00  0.00     0.036 A 
HETATM   20 Cl1  UNK     1      19.769   2.261  21.432  1.00  0.00    -0.084 Cl
HETATM   21  C16 UNK     1      19.699   3.312  18.943  1.00  0.00     0.024 A 
HETATM   22  C15 UNK     1      19.545   3.233  17.559  1.00  0.00     0.004 A 
HETATM   23  C13 UNK     1      19.272   2.005  16.957  1.00  0.00     0.029 A 
ENDBRANCH  15  17
ENDBRANCH   6  13
TORSDOF 2
ENDMDL
MODEL 6
REMARK VINA RESULT:      -8.2      8.766     10.623
REMARK  2 active torsions:
REMARK  status: ('A' for Active; 'I' for Inactive)
REMARK       I    between atoms: C6_12  and  N1_6 
REMARK    1  A    between atoms: C9_15  and  N1_6 
REMARK    2  A    between atoms: C3_9  and  C6_12 
ROOT
HETATM    1 Br1  UNK     1      16.030   2.026  37.574  1.00  0.00    -0.051 Br
HETATM    2  O1  UNK     1      19.620  -1.368  34.053  1.00  0.00    -0.274 OA
HETATM    3  O3  UNK     1      20.851  -3.264  33.718  1.00  0.00    -0.259 OA
HETATM    4  C1  UNK     1      18.446  -1.058  36.160  1.00  0.00     0.000 A 
HETATM    5  C2  UNK     1      18.788  -0.600  34.892  1.00  0.00     0.089 A 
HETATM    6  C3  UNK     1      19.751  -3.069  35.806  1.00  0.00     0.108 A 
HETATM    7  C4  UNK     1      18.961  -2.344  36.606  1.00  0.00     0.037 A 
HETATM    8  C5  UNK     1      17.619  -0.268  36.961  1.00  0.00     0.033 A 
HETATM    9  C7  UNK     1      20.128  -2.602  34.453  1.00  0.00     0.304 A 
HETATM   10  C8  UNK     1      18.328   0.621  34.403  1.00  0.00     0.039 A 
HETATM   11  C10 UNK     1      17.150   0.960  36.485  1.00  0.00     0.011 A 
HETATM   12  C11 UNK     1      17.504   1.403  35.209  1.00  0.00     0.022 A 
ENDROOT
BRANCH   6  13
HETATM   13  C6  UNK     1      20.220  -4.351  36.346  1.00  0.00     0.262 C 
HETATM   14  O2  UNK     1      21.210  -4.379  37.075  1.00  0.00    -0.267 OA
HETATM   15  N1  UNK     1      19.432  -5.415  35.930  1.00  0.00    -0.323 N 
HETATM   16  H4  UNK     1      18.628  -5.218  35.338  1.00  0.00     0.169 HD
BRANCH  15  17
HETATM   17  C9  UNK     1      19.589  -6.785  36.253  1.00  0.00     0.036 A 
HETATM   18  C12 UNK     1      20.444  -7.565  35.494  1.00  0.00     0.053 A 
HETATM   19  C14 UNK     1      20.599  -8.914  35.814  1.00  0.00     0.036 A 
HETATM   20 Cl1  UNK     1      21.655  -9.904  34.884  1.00  0.00    -0.084 Cl
HETATM   21  C16 UNK     1      19.897  -9.462  36.889  1.00  0.00     0.024 A 
HETATM   22  C15 UNK     1      19.040  -8.660  37.643  1.00  0.00     0.004 A 
HETATM   23  C13 UNK     1      18.885  -7.311  37.322  1.00  0.00     0.029 A 
ENDBRANCH  15  17
ENDBRANCH   6  13
TORSDOF 2
ENDMDL
MODEL 7
REMARK VINA RESULT:      -8.1      9.833     13.090
REMARK  2 active torsions:
REMARK  status: ('A' for Active; 'I' for Inactive)
REMARK       I    between atoms: C6_12  and  N1_6 
REMARK    1  A    between atoms: C9_15  and  N1_6 
REMARK    2  A    between atoms: C3_9  and  C6_12 
ROOT
HETATM    1 Br1  UNK     1      19.548 -10.421  38.566  1.00  0.00    -0.051 Br
HETATM    2  O1  UNK     1      20.470  -5.817  34.724  1.00  0.00    -0.274 OA
HETATM    3  O3  UNK     1      20.474  -3.577  34.277  1.00  0.00    -0.259 OA
HETATM    4  C1  UNK     1      19.826  -6.599  36.935  1.00  0.00     0.000 A 
HETATM    5  C2  UNK     1      20.248  -6.867  35.636  1.00  0.00     0.089 A 
HETATM    6  C3  UNK     1      19.829  -4.222  36.463  1.00  0.00     0.108 A 
HETATM    7  C4  UNK     1      19.617  -5.215  37.334  1.00  0.00     0.037 A 
HETATM    8  C5  UNK     1      19.617  -7.667  37.810  1.00  0.00     0.033 A 
HETATM    9  C7  UNK     1      20.279  -4.484  35.078  1.00  0.00     0.304 A 
HETATM   10  C8  UNK     1      20.467  -8.169  35.190  1.00  0.00     0.039 A 
HETATM   11  C10 UNK     1      19.832  -8.979  37.377  1.00  0.00     0.011 A 
HETATM   12  C11 UNK     1      20.256  -9.228  36.070  1.00  0.00     0.022 A 
ENDROOT
BRANCH   6  13
HETATM   13  C6  UNK     1      19.591  -2.861  36.960  1.00  0.00     0.262 C 
HETATM   14  O2  UNK     1      20.153  -2.480  37.986  1.00  0.00    -0.267 OA
HETATM   15  N1  UNK     1      18.712  -2.154  36.152  1.00  0.00    -0.323 N 
HETATM   16  H4  UNK     1      18.348  -2.611  35.319  1.00  0.00     0.169 HD
BRANCH  15  17
HETATM   17  C9  UNK     1      18.257  -0.825  36.326  1.00  0.00     0.036 A 
HETATM   18  C12 UNK     1      18.486   0.106  35.327  1.00  0.00     0.053 A 
HETATM   19  C14 UNK     1      18.037   1.414  35.498  1.00  0.00     0.036 A 
HETATM   20 Cl1  UNK     1      18.312   2.588  34.270  1.00  0.00    -0.084 Cl
HETATM   21  C16 UNK     1      17.363   1.773  36.667  1.00  0.00     0.024 A 
HETATM   22  C15 UNK     1      17.141   0.823  37.663  1.00  0.00     0.004 A 
HETATM   23  C13 UNK     1      17.591  -0.487  37.491  1.00  0.00     0.029 A 
ENDBRANCH  15  17
ENDBRANCH   6  13
TORSDOF 2
ENDMDL
MODEL 8
REMARK VINA RESULT:      -8.1      4.743      6.230
REMARK  2 active torsions:
REMARK  status: ('A' for Active; 'I' for Inactive)
REMARK       I    between atoms: C6_12  and  N1_6 
REMARK    1  A    between atoms: C9_15  and  N1_6 
REMARK    2  A    between atoms: C3_9  and  C6_12 
ROOT
HETATM    1 Br1  UNK     1      17.596   7.966  32.624  1.00  0.00    -0.051 Br
HETATM    2  O1  UNK     1      19.187   2.582  30.324  1.00  0.00    -0.274 OA
HETATM    3  O3  UNK     1      19.407   0.319  30.543  1.00  0.00    -0.259 OA
HETATM    4  C1  UNK     1      18.310   3.887  32.180  1.00  0.00     0.000 A 
HETATM    5  C2  UNK     1      18.810   3.819  30.883  1.00  0.00     0.089 A 
HETATM    6  C3  UNK     1      18.542   1.486  32.414  1.00  0.00     0.108 A 
HETATM    7  C4  UNK     1      18.183   2.659  32.949  1.00  0.00     0.037 A 
HETATM    8  C5  UNK     1      17.947   5.132  32.698  1.00  0.00     0.033 A 
HETATM    9  C7  UNK     1      19.076   1.391  31.037  1.00  0.00     0.304 A 
HETATM   10  C8  UNK     1      18.955   4.958  30.092  1.00  0.00     0.039 A 
HETATM   11  C10 UNK     1      18.088   6.283  31.917  1.00  0.00     0.011 A 
HETATM   12  C11 UNK     1      18.591   6.195  30.617  1.00  0.00     0.022 A 
ENDROOT
BRANCH   6  13
HETATM   13  C6  UNK     1      18.377   0.304  33.268  1.00  0.00     0.262 C 
HETATM   14  O2  UNK     1      17.954  -0.744  32.783  1.00  0.00    -0.267 OA
HETATM   15  N1  UNK     1      18.745   0.552  34.583  1.00  0.00    -0.323 N 
HETATM   16  H4  UNK     1      19.100   1.477  34.820  1.00  0.00     0.169 HD
BRANCH  15  17
HETATM   17  C9  UNK     1      18.716  -0.350  35.674  1.00  0.00     0.036 A 
HETATM   18  C12 UNK     1      19.453  -1.520  35.605  1.00  0.00     0.053 A 
HETATM   19  C14 UNK     1      19.425  -2.407  36.680  1.00  0.00     0.036 A 
HETATM   20 Cl1  UNK     1      20.333  -3.868  36.616  1.00  0.00    -0.084 Cl
HETATM   21  C16 UNK     1      18.659  -2.112  37.809  1.00  0.00     0.024 A 
HETATM   22  C15 UNK     1      17.922  -0.928  37.861  1.00  0.00     0.004 A 
HETATM   23  C13 UNK     1      17.951  -0.041  36.785  1.00  0.00     0.029 A 
ENDBRANCH  15  17
ENDBRANCH   6  13
TORSDOF 2
ENDMDL
MODEL 9
REMARK VINA RESULT:      -8.1      8.410     10.840
REMARK  2 active torsions:
REMARK  status: ('A' for Active; 'I' for Inactive)
REMARK       I    between atoms: C6_12  and  N1_6 
REMARK    1  A    between atoms: C9_15  and  N1_6 
REMARK    2  A    between atoms: C3_9  and  C6_12 
ROOT
HETATM    1 Br1  UNK     1      20.496  -0.586  29.073  1.00  0.00    -0.051 Br
HETATM    2  O1  UNK     1      18.636  -0.727  34.846  1.00  0.00    -0.274 OA
HETATM    3  O3  UNK     1      18.572  -1.755  36.885  1.00  0.00    -0.259 OA
HETATM    4  C1  UNK     1      19.873  -1.755  33.022  1.00  0.00     0.000 A 
HETATM    5  C2  UNK     1      19.082  -0.719  33.510  1.00  0.00     0.089 A 
HETATM    6  C3  UNK     1      19.806  -2.847  35.184  1.00  0.00     0.108 A 
HETATM    7  C4  UNK     1      20.233  -2.845  33.915  1.00  0.00     0.037 A 
HETATM    8  C5  UNK     1      20.295  -1.711  31.692  1.00  0.00     0.033 A 
HETATM    9  C7  UNK     1      18.964  -1.757  35.723  1.00  0.00     0.304 A 
HETATM   10  C8  UNK     1      18.702   0.355  32.707  1.00  0.00     0.039 A 
HETATM   11  C10 UNK     1      19.922  -0.640  30.874  1.00  0.00     0.011 A 
HETATM   12  C11 UNK     1      19.128   0.390  31.381  1.00  0.00     0.022 A 
ENDROOT
BRANCH   6  13
HETATM   13  C6  UNK     1      20.221  -3.990  36.006  1.00  0.00     0.262 C 
HETATM   14  O2  UNK     1      21.082  -3.837  36.872  1.00  0.00    -0.267 OA
HETATM   15  N1  UNK     1      19.542  -5.152  35.670  1.00  0.00    -0.323 N 
HETATM   16  H4  UNK     1      18.837  -5.105  34.937  1.00  0.00     0.169 HD
BRANCH  15  17
HETATM   17  C9  UNK     1      19.686  -6.436  36.249  1.00  0.00     0.036 A 
HETATM   18  C12 UNK     1      20.461  -7.386  35.606  1.00  0.00     0.053 A 
HETATM   19  C14 UNK     1      20.603  -8.650  36.179  1.00  0.00     0.036 A 
HETATM   20 Cl1  UNK     1      21.561  -9.847  35.397  1.00  0.00    -0.084 Cl
HETATM   21  C16 UNK     1      19.969  -8.945  37.387  1.00  0.00     0.024 A 
HETATM   22  C15 UNK     1      19.192  -7.975  38.021  1.00  0.00     0.004 A 
HETATM   23  C13 UNK     1      19.050  -6.711  37.448  1.00  0.00     0.029 A 
ENDBRANCH  15  17
ENDBRANCH   6  13
TORSDOF 2
ENDMDL
MODEL 10
REMARK VINA RESULT:      -8.0      2.802      4.294
REMARK  2 active torsions:
REMARK  status: ('A' for Active; 'I' for Inactive)
REMARK       I    between atoms: C6_12  and  N1_6 
REMARK    1  A    between atoms: C9_15  and  N1_6 
REMARK    2  A    between atoms: C3_9  and  C6_12 
ROOT
HETATM    1 Br1  UNK     1      10.897  13.340  33.872  1.00  0.00    -0.051 Br
HETATM    2  O1  UNK     1      15.592   9.819  35.410  1.00  0.00    -0.274 OA
HETATM    3  O3  UNK     1      17.201   8.299  34.843  1.00  0.00    -0.259 OA
HETATM    4  C1  UNK     1      14.055  10.629  33.709  1.00  0.00     0.000 A 
HETATM    5  C2  UNK     1      14.504  10.627  35.026  1.00  0.00     0.089 A 
HETATM    6  C3  UNK     1      15.761   9.017  33.106  1.00  0.00     0.108 A 
HETATM    7  C4  UNK     1      14.728   9.783  32.735  1.00  0.00     0.037 A 
HETATM    8  C5  UNK     1      12.974  11.444  33.367  1.00  0.00     0.033 A 
HETATM    9  C7  UNK     1      16.255   9.000  34.500  1.00  0.00     0.304 A 
HETATM   10  C8  UNK     1      13.905  11.415  36.007  1.00  0.00     0.039 A 
HETATM   11  C10 UNK     1      12.361  12.239  34.341  1.00  0.00     0.011 A 
HETATM   12  C11 UNK     1      12.827  12.224  35.657  1.00  0.00     0.022 A 
ENDROOT
BRANCH   6  13
HETATM   13  C6  UNK     1      16.373   8.199  32.052  1.00  0.00     0.262 C 
HETATM   14  O2  UNK     1      16.170   8.475  30.870  1.00  0.00    -0.267 OA
HETATM   15  N1  UNK     1      17.141   7.165  32.570  1.00  0.00    -0.323 N 
HETATM   16  H4  UNK     1      17.225   7.086  33.581  1.00  0.00     0.169 HD
BRANCH  15  17
HETATM   17  C9  UNK     1      17.870   6.187  31.853  1.00  0.00     0.036 A 
HETATM   18  C12 UNK     1      17.722   4.852  32.187  1.00  0.00     0.053 A 
HETATM   19  C14 UNK     1      18.440   3.888  31.479  1.00  0.00     0.036 A 
HETATM   20 Cl1  UNK     1      18.272   2.223  31.878  1.00  0.00    -0.084 Cl
HETATM   21  C16 UNK     1      19.294   4.274  30.445  1.00  0.00     0.024 A 
HETATM   22  C15 UNK     1      19.431   5.624  30.122  1.00  0.00     0.004 A 
HETATM   23  C13 UNK     1      18.713   6.588  30.831  1.00  0.00     0.029 A 
ENDBRANCH  15  17
ENDBRANCH   6  13
TORSDOF 2
ENDMDL
