MODEL 1
REMARK VINA RESULT:      -8.6      0.000      0.000
REMARK  3 active torsions:
REMARK  status: ('A' for Active; 'I' for Inactive)
REMARK    1  A    between atoms: C15_19  and  O3_3 
REMARK    2  A    between atoms: C16_20  and  O4_4 
REMARK    3  A    between atoms: C4_8  and  C9_13 
ROOT
HETATM    1  O1  UNK     1      16.488   7.117  32.744  1.00  0.00    -0.308 OA
HETATM    2  O2  UNK     1      19.269   9.693  34.238  1.00  0.00    -0.287 OA
HETATM    3  C1  UNK     1      16.085   8.248  33.407  1.00  0.00     0.096 A 
HETATM    4  C2  UNK     1      16.982   9.172  33.942  1.00  0.00     0.049 A 
HETATM    5  C3  UNK     1      14.712   8.454  33.537  1.00  0.00    -0.027 A 
HETATM    6  C4  UNK     1      17.847   6.888  32.593  1.00  0.00     0.090 A 
HETATM    7  C5  UNK     1      15.141  10.511  34.736  1.00  0.00    -0.060 A 
HETATM    8  C6  UNK     1      16.515  10.306  34.608  1.00  0.00     0.025 A 
HETATM    9  C7  UNK     1      14.241   9.587  34.202  1.00  0.00     0.016 A 
HETATM   10  C8  UNK     1      18.426   8.927  33.792  1.00  0.00     0.187 A 
HETATM   11  C10 UNK     1      18.808   7.698  33.069  1.00  0.00     0.093 A 
HETATM   12  C11 UNK     1      13.728   7.482  32.975  1.00  0.00     0.051 C 
HETATM   13  C14 UNK     1      14.631  11.719  35.447  1.00  0.00     0.048 C 
ENDROOT
BRANCH   6  14
HETATM   14  C9  UNK     1      18.170   5.641  31.871  1.00  0.00     0.001 A 
HETATM   15  C12 UNK     1      17.879   4.402  32.444  1.00  0.00     0.054 A 
HETATM   16  C15 UNK     1      18.185   3.224  31.761  1.00  0.00     0.102 A 
HETATM   17  C16 UNK     1      18.784   3.283  30.503  1.00  0.00     0.101 A 
HETATM   18  C17 UNK     1      19.076   4.520  29.927  1.00  0.00     0.040 A 
HETATM   19  C13 UNK     1      18.771   5.697  30.610  1.00  0.00     0.017 A 
BRANCH  16  20
HETATM   20  O3  UNK     1      17.894   2.023  32.334  1.00  0.00    -0.353 OA
HETATM   21  C18 UNK     1      18.093   1.911  33.743  1.00  0.00     0.210 C 
ENDBRANCH  16  20
BRANCH  17  22
HETATM   22  O4  UNK     1      19.087   2.141  29.826  1.00  0.00    -0.353 OA
HETATM   23  C19 UNK     1      18.175   1.727  28.811  1.00  0.00     0.210 C 
ENDBRANCH  17  22
ENDBRANCH   6  14
TORSDOF 3
ENDMDL
MODEL 2
REMARK VINA RESULT:      -8.3      7.962     13.549
REMARK  3 active torsions:
REMARK  status: ('A' for Active; 'I' for Inactive)
REMARK    1  A    between atoms: C15_19  and  O3_3 
REMARK    2  A    between atoms: C16_20  and  O4_4 
REMARK    3  A    between atoms: C4_8  and  C9_13 
ROOT
HETATM    1  O1  UNK     1      19.142  -5.149  36.467  1.00  0.00    -0.308 OA
HETATM    2  O2  UNK     1      22.689  -5.589  38.422  1.00  0.00    -0.287 OA
HETATM    3  C1  UNK     1      19.635  -6.404  36.712  1.00  0.00     0.096 A 
HETATM    4  C2  UNK     1      20.841  -6.627  37.376  1.00  0.00     0.049 A 
HETATM    5  C3  UNK     1      18.877  -7.486  36.264  1.00  0.00    -0.027 A 
HETATM    6  C4  UNK     1      19.871  -4.054  36.906  1.00  0.00     0.090 A 
HETATM    7  C5  UNK     1      20.534  -9.008  37.149  1.00  0.00    -0.060 A 
HETATM    8  C6  UNK     1      21.296  -7.928  37.598  1.00  0.00     0.025 A 
HETATM    9  C7  UNK     1      19.327  -8.788  36.483  1.00  0.00     0.016 A 
HETATM   10  C8  UNK     1      21.622  -5.468  37.836  1.00  0.00     0.187 A 
HETATM   11  C10 UNK     1      21.047  -4.139  37.550  1.00  0.00     0.093 A 
HETATM   12  C11 UNK     1      17.582  -7.277  35.550  1.00  0.00     0.051 C 
HETATM   13  C14 UNK     1      21.012 -10.402  37.380  1.00  0.00     0.048 C 
ENDROOT
BRANCH   6  14
HETATM   14  C9  UNK     1      19.252  -2.752  36.586  1.00  0.00     0.001 A 
HETATM   15  C12 UNK     1      19.424  -2.186  35.321  1.00  0.00     0.054 A 
HETATM   16  C15 UNK     1      18.840  -0.955  35.019  1.00  0.00     0.102 A 
HETATM   17  C16 UNK     1      18.083  -0.287  35.981  1.00  0.00     0.101 A 
HETATM   18  C17 UNK     1      17.910  -0.850  37.246  1.00  0.00     0.040 A 
HETATM   19  C13 UNK     1      18.493  -2.080  37.548  1.00  0.00     0.017 A 
BRANCH  16  20
HETATM   20  O3  UNK     1      19.017  -0.416  33.780  1.00  0.00    -0.353 OA
HETATM   21  C18 UNK     1      18.984  -1.313  32.671  1.00  0.00     0.210 C 
ENDBRANCH  16  20
BRANCH  17  22
HETATM   22  O4  UNK     1      17.508   0.915  35.698  1.00  0.00    -0.353 OA
HETATM   23  C19 UNK     1      17.901   2.027  36.498  1.00  0.00     0.210 C 
ENDBRANCH  17  22
ENDBRANCH   6  14
TORSDOF 3
ENDMDL
MODEL 3
REMARK VINA RESULT:      -8.3      1.308      2.415
REMARK  3 active torsions:
REMARK  status: ('A' for Active; 'I' for Inactive)
REMARK    1  A    between atoms: C15_19  and  O3_3 
REMARK    2  A    between atoms: C16_20  and  O4_4 
REMARK    3  A    between atoms: C4_8  and  C9_13 
ROOT
HETATM    1  O1  UNK     1      16.856   6.042  32.686  1.00  0.00    -0.308 OA
HETATM    2  O2  UNK     1      19.746   8.281  34.486  1.00  0.00    -0.287 OA
HETATM    3  C1  UNK     1      16.604   7.351  33.010  1.00  0.00     0.096 A 
HETATM    4  C2  UNK     1      17.547   8.173  33.626  1.00  0.00     0.049 A 
HETATM    5  C3  UNK     1      15.339   7.852  32.700  1.00  0.00    -0.027 A 
HETATM    6  C4  UNK     1      18.106   5.519  32.977  1.00  0.00     0.090 A 
HETATM    7  C5  UNK     1      15.969   9.998  33.622  1.00  0.00    -0.060 A 
HETATM    8  C6  UNK     1      17.235   9.499  33.935  1.00  0.00     0.025 A 
HETATM    9  C7  UNK     1      15.023   9.176  33.006  1.00  0.00     0.016 A 
HETATM   10  C8  UNK     1      18.872   7.618  33.944  1.00  0.00     0.187 A 
HETATM   11  C10 UNK     1      19.094   6.207  33.573  1.00  0.00     0.093 A 
HETATM   12  C11 UNK     1      14.310   6.994  32.042  1.00  0.00     0.051 C 
HETATM   13  C14 UNK     1      15.625  11.412  33.948  1.00  0.00     0.048 C 
ENDROOT
BRANCH   6  14
HETATM   14  C9  UNK     1      18.269   4.102  32.591  1.00  0.00     0.001 A 
HETATM   15  C12 UNK     1      18.532   3.763  31.262  1.00  0.00     0.054 A 
HETATM   16  C15 UNK     1      18.684   2.425  30.898  1.00  0.00     0.102 A 
HETATM   17  C16 UNK     1      18.573   1.422  31.862  1.00  0.00     0.101 A 
HETATM   18  C17 UNK     1      18.311   1.758  33.190  1.00  0.00     0.040 A 
HETATM   19  C13 UNK     1      18.158   3.096  33.554  1.00  0.00     0.017 A 
BRANCH  16  20
HETATM   20  O3  UNK     1      18.941   2.109  29.598  1.00  0.00    -0.353 OA
HETATM   21  C18 UNK     1      17.823   2.046  28.713  1.00  0.00     0.210 C 
ENDBRANCH  16  20
BRANCH  17  22
HETATM   22  O4  UNK     1      18.721   0.112  31.519  1.00  0.00    -0.353 OA
HETATM   23  C19 UNK     1      18.930  -0.816  32.581  1.00  0.00     0.210 C 
ENDBRANCH  17  22
ENDBRANCH   6  14
TORSDOF 3
ENDMDL
MODEL 4
REMARK VINA RESULT:      -8.0      7.872     13.342
REMARK  3 active torsions:
REMARK  status: ('A' for Active; 'I' for Inactive)
REMARK    1  A    between atoms: C15_19  and  O3_3 
REMARK    2  A    between atoms: C16_20  and  O4_4 
REMARK    3  A    between atoms: C4_8  and  C9_13 
ROOT
HETATM    1  O1  UNK     1      19.005  -5.031  36.373  1.00  0.00    -0.308 OA
HETATM    2  O2  UNK     1      22.526  -5.393  38.390  1.00  0.00    -0.287 OA
HETATM    3  C1  UNK     1      19.458  -6.273  36.738  1.00  0.00     0.096 A 
HETATM    4  C2  UNK     1      20.653  -6.468  37.430  1.00  0.00     0.049 A 
HETATM    5  C3  UNK     1      18.669  -7.368  36.386  1.00  0.00    -0.027 A 
HETATM    6  C4  UNK     1      19.764  -3.923  36.715  1.00  0.00     0.090 A 
HETATM    7  C5  UNK     1      20.275  -8.850  37.423  1.00  0.00    -0.060 A 
HETATM    8  C6  UNK     1      21.067  -7.756  37.775  1.00  0.00     0.025 A 
HETATM    9  C7  UNK     1      19.079  -8.656  36.729  1.00  0.00     0.016 A 
HETATM   10  C8  UNK     1      21.467  -5.295  37.787  1.00  0.00     0.187 A 
HETATM   11  C10 UNK     1      20.934  -3.982  37.374  1.00  0.00     0.093 A 
HETATM   12  C11 UNK     1      17.386  -7.188  35.645  1.00  0.00     0.051 C 
HETATM   13  C14 UNK     1      20.709 -10.230  37.786  1.00  0.00     0.048 C 
ENDROOT
BRANCH   6  14
HETATM   14  C9  UNK     1      19.187  -2.638  36.270  1.00  0.00     0.001 A 
HETATM   15  C12 UNK     1      18.368  -1.902  37.128  1.00  0.00     0.054 A 
HETATM   16  C15 UNK     1      17.823  -0.689  36.707  1.00  0.00     0.102 A 
HETATM   17  C16 UNK     1      18.094  -0.209  35.426  1.00  0.00     0.101 A 
HETATM   18  C17 UNK     1      18.912  -0.942  34.566  1.00  0.00     0.040 A 
HETATM   19  C13 UNK     1      19.458  -2.155  34.987  1.00  0.00     0.017 A 
BRANCH  16  20
HETATM   20  O3  UNK     1      17.026   0.018  37.557  1.00  0.00    -0.353 OA
HETATM   21  C18 UNK     1      17.643   1.060  38.310  1.00  0.00     0.210 C 
ENDBRANCH  16  20
BRANCH  17  22
HETATM   22  O4  UNK     1      17.568   0.974  35.003  1.00  0.00    -0.353 OA
HETATM   23  C19 UNK     1      18.467   2.073  34.872  1.00  0.00     0.210 C 
ENDBRANCH  17  22
ENDBRANCH   6  14
TORSDOF 3
ENDMDL
MODEL 5
REMARK VINA RESULT:      -8.0      1.424      2.718
REMARK  3 active torsions:
REMARK  status: ('A' for Active; 'I' for Inactive)
REMARK    1  A    between atoms: C15_19  and  O3_3 
REMARK    2  A    between atoms: C16_20  and  O4_4 
REMARK    3  A    between atoms: C4_8  and  C9_13 
ROOT
HETATM    1  O1  UNK     1      18.470   8.103  33.004  1.00  0.00    -0.308 OA
HETATM    2  O2  UNK     1      14.638   9.468  32.787  1.00  0.00    -0.287 OA
HETATM    3  C1  UNK     1      18.141   9.308  33.569  1.00  0.00     0.096 A 
HETATM    4  C2  UNK     1      16.850   9.834  33.532  1.00  0.00     0.049 A 
HETATM    5  C3  UNK     1      19.165  10.017  34.198  1.00  0.00    -0.027 A 
HETATM    6  C4  UNK     1      17.472   7.373  32.376  1.00  0.00     0.090 A 
HETATM    7  C5  UNK     1      17.599  11.774  34.754  1.00  0.00    -0.060 A 
HETATM    8  C6  UNK     1      16.573  11.068  34.124  1.00  0.00     0.025 A 
HETATM    9  C7  UNK     1      18.892  11.250  34.791  1.00  0.00     0.016 A 
HETATM   10  C8  UNK     1      15.791   9.067  32.859  1.00  0.00     0.187 A 
HETATM   11  C10 UNK     1      16.195   7.775  32.270  1.00  0.00     0.093 A 
HETATM   12  C11 UNK     1      20.556   9.478  34.252  1.00  0.00     0.051 C 
HETATM   13  C14 UNK     1      17.313  13.094  35.388  1.00  0.00     0.048 C 
ENDROOT
BRANCH   6  14
HETATM   14  C9  UNK     1      17.935   6.095  31.799  1.00  0.00     0.001 A 
HETATM   15  C12 UNK     1      17.646   4.889  32.441  1.00  0.00     0.054 A 
HETATM   16  C15 UNK     1      18.084   3.682  31.896  1.00  0.00     0.102 A 
HETATM   17  C16 UNK     1      18.814   3.678  30.707  1.00  0.00     0.101 A 
HETATM   18  C17 UNK     1      19.104   4.880  30.063  1.00  0.00     0.040 A 
HETATM   19  C13 UNK     1      18.666   6.087  30.608  1.00  0.00     0.017 A 
BRANCH  16  20
HETATM   20  O3  UNK     1      17.795   2.514  32.535  1.00  0.00    -0.353 OA
HETATM   21  C18 UNK     1      18.157   2.420  33.911  1.00  0.00     0.210 C 
ENDBRANCH  16  20
BRANCH  17  22
HETATM   22  O4  UNK     1      19.247   2.506  30.164  1.00  0.00    -0.353 OA
HETATM   23  C19 UNK     1      18.438   1.926  29.144  1.00  0.00     0.210 C 
ENDBRANCH  17  22
ENDBRANCH   6  14
TORSDOF 3
ENDMDL
MODEL 6
REMARK VINA RESULT:      -7.9      1.770      7.698
REMARK  3 active torsions:
REMARK  status: ('A' for Active; 'I' for Inactive)
REMARK    1  A    between atoms: C15_19  and  O3_3 
REMARK    2  A    between atoms: C16_20  and  O4_4 
REMARK    3  A    between atoms: C4_8  and  C9_13 
ROOT
HETATM    1  O1  UNK     1      17.958   3.561  33.427  1.00  0.00    -0.308 OA
HETATM    2  O2  UNK     1      18.986   3.067  29.516  1.00  0.00    -0.287 OA
HETATM    3  C1  UNK     1      18.313   2.320  32.966  1.00  0.00     0.096 A 
HETATM    4  C2  UNK     1      18.676   2.080  31.641  1.00  0.00     0.049 A 
HETATM    5  C3  UNK     1      18.298   1.270  33.885  1.00  0.00    -0.027 A 
HETATM    6  C4  UNK     1      17.969   4.625  32.538  1.00  0.00     0.090 A 
HETATM    7  C5  UNK     1      19.013  -0.254  32.148  1.00  0.00    -0.060 A 
HETATM    8  C6  UNK     1      19.027   0.794  31.226  1.00  0.00     0.025 A 
HETATM    9  C7  UNK     1      18.648  -0.016  33.475  1.00  0.00     0.016 A 
HETATM   10  C8  UNK     1      18.681   3.205  30.692  1.00  0.00     0.187 A 
HETATM   11  C10 UNK     1      18.294   4.521  31.239  1.00  0.00     0.093 A 
HETATM   12  C11 UNK     1      17.913   1.498  35.309  1.00  0.00     0.051 C 
HETATM   13  C14 UNK     1      19.385  -1.631  31.715  1.00  0.00     0.048 C 
ENDROOT
BRANCH   6  14
HETATM   14  C9  UNK     1      17.567   5.913  33.137  1.00  0.00     0.001 A 
HETATM   15  C12 UNK     1      16.358   6.510  32.772  1.00  0.00     0.054 A 
HETATM   16  C15 UNK     1      15.978   7.727  33.337  1.00  0.00     0.102 A 
HETATM   17  C16 UNK     1      16.807   8.352  34.269  1.00  0.00     0.101 A 
HETATM   18  C17 UNK     1      18.014   7.760  34.636  1.00  0.00     0.040 A 
HETATM   19  C13 UNK     1      18.394   6.542  34.071  1.00  0.00     0.017 A 
BRANCH  16  20
HETATM   20  O3  UNK     1      14.795   8.296  32.970  1.00  0.00    -0.353 OA
HETATM   21  C18 UNK     1      13.765   7.418  32.518  1.00  0.00     0.210 C 
ENDBRANCH  16  20
BRANCH  17  22
HETATM   22  O4  UNK     1      16.446   9.541  34.828  1.00  0.00    -0.353 OA
HETATM   23  C19 UNK     1      16.935  10.726  34.205  1.00  0.00     0.210 C 
ENDBRANCH  17  22
ENDBRANCH   6  14
TORSDOF 3
ENDMDL
MODEL 7
REMARK VINA RESULT:      -7.8      6.723     11.971
REMARK  3 active torsions:
REMARK  status: ('A' for Active; 'I' for Inactive)
REMARK    1  A    between atoms: C15_19  and  O3_3 
REMARK    2  A    between atoms: C16_20  and  O4_4 
REMARK    3  A    between atoms: C4_8  and  C9_13 
ROOT
HETATM    1  O1  UNK     1      20.173  -4.378  34.666  1.00  0.00    -0.308 OA
HETATM    2  O2  UNK     1      19.989  -2.720  38.383  1.00  0.00    -0.287 OA
HETATM    3  C1  UNK     1      20.213  -5.183  35.776  1.00  0.00     0.096 A 
HETATM    4  C2  UNK     1      20.153  -4.682  37.076  1.00  0.00     0.049 A 
HETATM    5  C3  UNK     1      20.320  -6.558  35.562  1.00  0.00    -0.027 A 
HETATM    6  C4  UNK     1      20.061  -3.008  34.846  1.00  0.00     0.090 A 
HETATM    7  C5  UNK     1      20.304  -6.924  37.953  1.00  0.00    -0.060 A 
HETATM    8  C6  UNK     1      20.198  -5.549  38.169  1.00  0.00     0.025 A 
HETATM    9  C7  UNK     1      20.365  -7.427  36.652  1.00  0.00     0.016 A 
HETATM   10  C8  UNK     1      20.043  -3.228  37.272  1.00  0.00     0.187 A 
HETATM   11  C10 UNK     1      20.001  -2.406  36.046  1.00  0.00     0.093 A 
HETATM   12  C11 UNK     1      20.386  -7.121  34.181  1.00  0.00     0.051 C 
HETATM   13  C14 UNK     1      20.355  -7.858  39.115  1.00  0.00     0.048 C 
ENDROOT
BRANCH   6  14
HETATM   14  C9  UNK     1      20.032  -2.236  33.588  1.00  0.00     0.001 A 
HETATM   15  C12 UNK     1      19.222  -1.105  33.477  1.00  0.00     0.054 A 
HETATM   16  C15 UNK     1      19.194  -0.376  32.287  1.00  0.00     0.102 A 
HETATM   17  C16 UNK     1      19.977  -0.779  31.205  1.00  0.00     0.101 A 
HETATM   18  C17 UNK     1      20.788  -1.908  31.312  1.00  0.00     0.040 A 
HETATM   19  C13 UNK     1      20.815  -2.637  32.502  1.00  0.00     0.017 A 
BRANCH  16  20
HETATM   20  O3  UNK     1      18.398   0.726  32.194  1.00  0.00    -0.353 OA
HETATM   21  C18 UNK     1      18.299   1.554  33.352  1.00  0.00     0.210 C 
ENDBRANCH  16  20
BRANCH  17  22
HETATM   22  O4  UNK     1      19.960  -0.075  30.038  1.00  0.00    -0.353 OA
HETATM   23  C19 UNK     1      20.144  -0.814  28.833  1.00  0.00     0.210 C 
ENDBRANCH  17  22
ENDBRANCH   6  14
TORSDOF 3
ENDMDL
MODEL 8
REMARK VINA RESULT:      -7.8     14.214     20.017
REMARK  3 active torsions:
REMARK  status: ('A' for Active; 'I' for Inactive)
REMARK    1  A    between atoms: C15_19  and  O3_3 
REMARK    2  A    between atoms: C16_20  and  O4_4 
REMARK    3  A    between atoms: C4_8  and  C9_13 
ROOT
HETATM    1  O1  UNK     1      19.570  -1.268  14.672  1.00  0.00    -0.308 OA
HETATM    2  O2  UNK     1      17.262  -4.395  15.895  1.00  0.00    -0.287 OA
HETATM    3  C1  UNK     1      19.497  -2.403  13.907  1.00  0.00     0.096 A 
HETATM    4  C2  UNK     1      18.726  -3.509  14.265  1.00  0.00     0.049 A 
HETATM    5  C3  UNK     1      20.239  -2.424  12.725  1.00  0.00    -0.027 A 
HETATM    6  C4  UNK     1      18.839  -1.216  15.849  1.00  0.00     0.090 A 
HETATM    7  C5  UNK     1      19.432  -4.657  12.265  1.00  0.00    -0.060 A 
HETATM    8  C6  UNK     1      18.691  -4.640  13.447  1.00  0.00     0.025 A 
HETATM    9  C7  UNK     1      20.206  -3.552  11.905  1.00  0.00     0.016 A 
HETATM   10  C8  UNK     1      17.956  -3.461  15.518  1.00  0.00     0.187 A 
HETATM   11  C10 UNK     1      18.066  -2.216  16.304  1.00  0.00     0.093 A 
HETATM   12  C11 UNK     1      21.073  -1.255  12.317  1.00  0.00     0.051 C 
HETATM   13  C14 UNK     1      19.402  -5.861  11.385  1.00  0.00     0.048 C 
ENDROOT
BRANCH   6  14
HETATM   14  C9  UNK     1      18.993   0.048  16.597  1.00  0.00     0.001 A 
HETATM   15  C12 UNK     1      18.829   0.067  17.984  1.00  0.00     0.054 A 
HETATM   16  C15 UNK     1      18.975   1.262  18.690  1.00  0.00     0.102 A 
HETATM   17  C16 UNK     1      19.283   2.441  18.011  1.00  0.00     0.101 A 
HETATM   18  C17 UNK     1      19.448   2.425  16.626  1.00  0.00     0.040 A 
HETATM   19  C13 UNK     1      19.302   1.231  15.920  1.00  0.00     0.017 A 
BRANCH  16  20
HETATM   20  O3  UNK     1      18.812   1.264  20.043  1.00  0.00    -0.353 OA
HETATM   21  C18 UNK     1      19.470   0.234  20.777  1.00  0.00     0.210 C 
ENDBRANCH  16  20
BRANCH  17  22
HETATM   22  O4  UNK     1      19.428   3.613  18.690  1.00  0.00    -0.353 OA
HETATM   23  C19 UNK     1      20.645   4.330  18.493  1.00  0.00     0.210 C 
ENDBRANCH  17  22
ENDBRANCH   6  14
TORSDOF 3
ENDMDL
MODEL 9
REMARK VINA RESULT:      -7.7      1.766      7.702
REMARK  3 active torsions:
REMARK  status: ('A' for Active; 'I' for Inactive)
REMARK    1  A    between atoms: C15_19  and  O3_3 
REMARK    2  A    between atoms: C16_20  and  O4_4 
REMARK    3  A    between atoms: C4_8  and  C9_13 
ROOT
HETATM    1  O1  UNK     1      17.989   3.516  33.203  1.00  0.00    -0.308 OA
HETATM    2  O2  UNK     1      19.018   2.587  29.372  1.00  0.00    -0.287 OA
HETATM    3  C1  UNK     1      18.326   2.226  32.880  1.00  0.00     0.096 A 
HETATM    4  C2  UNK     1      18.689   1.840  31.590  1.00  0.00     0.049 A 
HETATM    5  C3  UNK     1      18.293   1.283  33.907  1.00  0.00    -0.027 A 
HETATM    6  C4  UNK     1      18.020   4.477  32.204  1.00  0.00     0.090 A 
HETATM    7  C5  UNK     1      18.988  -0.430  32.347  1.00  0.00    -0.060 A 
HETATM    8  C6  UNK     1      19.021   0.511  31.317  1.00  0.00     0.025 A 
HETATM    9  C7  UNK     1      18.624  -0.045  33.639  1.00  0.00     0.016 A 
HETATM   10  C8  UNK     1      18.713   2.855  30.525  1.00  0.00     0.187 A 
HETATM   11  C10 UNK     1      18.345   4.228  30.925  1.00  0.00     0.093 A 
HETATM   12  C11 UNK     1      17.908   1.668  35.297  1.00  0.00     0.051 C 
HETATM   13  C14 UNK     1      19.340  -1.852  32.066  1.00  0.00     0.048 C 
ENDROOT
BRANCH   6  14
HETATM   14  C9  UNK     1      17.635   5.829  32.659  1.00  0.00     0.001 A 
HETATM   15  C12 UNK     1      18.425   6.507  33.590  1.00  0.00     0.054 A 
HETATM   16  C15 UNK     1      18.062   7.783  34.020  1.00  0.00     0.102 A 
HETATM   17  C16 UNK     1      16.906   8.384  33.521  1.00  0.00     0.101 A 
HETATM   18  C17 UNK     1      16.114   7.710  32.592  1.00  0.00     0.040 A 
HETATM   19  C13 UNK     1      16.478   6.433  32.161  1.00  0.00     0.017 A 
BRANCH  16  20
HETATM   20  O3  UNK     1      18.843   8.432  34.928  1.00  0.00    -0.353 OA
HETATM   21  C18 UNK     1      20.086   8.952  34.461  1.00  0.00     0.210 C 
ENDBRANCH  16  20
BRANCH  17  22
HETATM   22  O4  UNK     1      16.541   9.630  33.933  1.00  0.00    -0.353 OA
HETATM   23  C19 UNK     1      15.487   9.714  34.890  1.00  0.00     0.210 C 
ENDBRANCH  17  22
ENDBRANCH   6  14
TORSDOF 3
ENDMDL
MODEL 10
REMARK VINA RESULT:      -7.6      4.030      8.934
REMARK  3 active torsions:
REMARK  status: ('A' for Active; 'I' for Inactive)
REMARK    1  A    between atoms: C15_19  and  O3_3 
REMARK    2  A    between atoms: C16_20  and  O4_4 
REMARK    3  A    between atoms: C4_8  and  C9_13 
ROOT
HETATM    1  O1  UNK     1      19.091   0.001  34.096  1.00  0.00    -0.308 OA
HETATM    2  O2  UNK     1      17.665   0.084  37.912  1.00  0.00    -0.287 OA
HETATM    3  C1  UNK     1      19.238  -1.097  34.905  1.00  0.00     0.096 A 
HETATM    4  C2  UNK     1      18.773  -1.137  36.219  1.00  0.00     0.049 A 
HETATM    5  C3  UNK     1      19.887  -2.206  34.361  1.00  0.00    -0.027 A 
HETATM    6  C4  UNK     1      18.444   1.116  34.607  1.00  0.00     0.090 A 
HETATM    7  C5  UNK     1      19.601  -3.390  36.451  1.00  0.00    -0.060 A 
HETATM    8  C6  UNK     1      18.953  -2.282  36.997  1.00  0.00     0.025 A 
HETATM    9  C7  UNK     1      20.068  -3.352  35.135  1.00  0.00     0.016 A 
HETATM   10  C8  UNK     1      18.095   0.048  36.767  1.00  0.00     0.187 A 
HETATM   11  C10 UNK     1      17.958   1.202  35.857  1.00  0.00     0.093 A 
HETATM   12  C11 UNK     1      20.395  -2.191  32.957  1.00  0.00     0.051 C 
HETATM   13  C14 UNK     1      19.799  -4.618  37.274  1.00  0.00     0.048 C 
ENDROOT
BRANCH   6  14
HETATM   14  C9  UNK     1      18.344   2.241  33.655  1.00  0.00     0.001 A 
HETATM   15  C12 UNK     1      18.352   1.999  32.280  1.00  0.00     0.054 A 
HETATM   16  C15 UNK     1      18.258   3.062  31.381  1.00  0.00     0.102 A 
HETATM   17  C16 UNK     1      18.158   4.370  31.856  1.00  0.00     0.101 A 
HETATM   18  C17 UNK     1      18.149   4.615  33.229  1.00  0.00     0.040 A 
HETATM   19  C13 UNK     1      18.243   3.552  34.128  1.00  0.00     0.017 A 
BRANCH  16  20
HETATM   20  O3  UNK     1      18.267   2.811  30.042  1.00  0.00    -0.353 OA
HETATM   21  C18 UNK     1      18.661   1.503  29.630  1.00  0.00     0.210 C 
ENDBRANCH  16  20
BRANCH  17  22
HETATM   22  O4  UNK     1      18.065   5.417  30.989  1.00  0.00    -0.353 OA
HETATM   23  C19 UNK     1      19.281   6.063  30.620  1.00  0.00     0.210 C 
ENDBRANCH  17  22
ENDBRANCH   6  14
TORSDOF 3
ENDMDL
