MODEL 1
REMARK VINA RESULT:      -9.7      0.000      0.000
REMARK  7 active torsions:
REMARK  status: ('A' for Active; 'I' for Inactive)
REMARK    1  A    between atoms: C16_23  and  O3_3 
REMARK    2  A    between atoms: C26_33  and  O3_3 
REMARK    3  A    between atoms: C5_12  and  N1_5 
REMARK    4  A    between atoms: C6_13  and  N2_6 
REMARK    5  A    between atoms: C13_20  and  N3_7 
REMARK       I    between atoms: C8_15  and  N3_7 
REMARK    6  A    between atoms: C5_12  and  C7_14 
REMARK    7  A    between atoms: C6_13  and  C8_15 
ROOT
HETATM    1  N1  UNK     1      18.887   3.679  31.380  1.00  0.00     0.096 N 
HETATM    2  N2  UNK     1      19.288   6.344  32.425  1.00  0.00     0.100 N 
HETATM    3  C1  UNK     1      19.378   4.767  30.525  1.00  0.00     0.303 C 
HETATM    4  C2  UNK     1      18.039   4.212  32.454  1.00  0.00     0.303 C 
HETATM    5  C3  UNK     1      20.136   5.811  31.352  1.00  0.00     0.303 C 
HETATM    6  C4  UNK     1      18.799   5.256  33.280  1.00  0.00     0.303 C 
ENDROOT
BRANCH   1   7
HETATM    7  C5  UNK     1      18.161   2.685  30.591  1.00  0.00     0.312 C 
BRANCH   7   8
HETATM    8  C7  UNK     1      18.871   1.377  30.544  1.00  0.00    -0.011 A 
HETATM    9  C10 UNK     1      19.499   0.970  29.432  1.00  0.00     0.092 A 
HETATM   10  C14 UNK     1      20.214  -0.314  29.337  1.00  0.00     0.288 A 
HETATM   11  O1  UNK     1      20.214  -1.112  30.472  1.00  0.00    -0.275 OA
HETATM   12  O4  UNK     1      20.778  -0.654  28.303  1.00  0.00    -0.260 OA
HETATM   13  C11 UNK     1      19.561  -0.712  31.654  1.00  0.00     0.090 A 
HETATM   14  C9  UNK     1      18.887   0.509  31.729  1.00  0.00     0.009 A 
HETATM   15  C15 UNK     1      19.626  -1.595  32.733  1.00  0.00     0.041 A 
HETATM   16  C12 UNK     1      18.263   0.833  32.941  1.00  0.00     0.051 A 
HETATM   17  C16 UNK     1      18.318  -0.043  34.031  1.00  0.00     0.069 A 
HETATM   18  C19 UNK     1      18.999  -1.255  33.927  1.00  0.00     0.039 A 
BRANCH  17  19
HETATM   19  O3  UNK     1      17.705   0.292  35.200  1.00  0.00    -0.351 OA
BRANCH  19  20
HETATM   20  C26 UNK     1      18.396   1.195  36.061  1.00  0.00     0.171 C 
HETATM   21  C27 UNK     1      17.687   1.242  37.398  1.00  0.00     0.034 C 
ENDBRANCH  19  20
ENDBRANCH  17  19
ENDBRANCH   7   8
ENDBRANCH   1   7
BRANCH   2  22
HETATM   22  C6  UNK     1      20.012   7.338  33.214  1.00  0.00     0.375 C 
BRANCH  22  23
HETATM   23  C8  UNK     1      19.047   8.037  34.156  1.00  0.00     0.250 C 
HETATM   24  O2  UNK     1      19.183   8.023  35.375  1.00  0.00    -0.271 OA
HETATM   25  N3  UNK     1      18.038   8.667  33.430  1.00  0.00    -0.325 N 
HETATM   26  H14 UNK     1      17.876   8.275  32.504  1.00  0.00     0.169 HD
BRANCH  25  27
HETATM   27  C13 UNK     1      16.952   9.421  33.935  1.00  0.00     0.046 A 
HETATM   28  C17 UNK     1      15.712   8.811  34.132  1.00  0.00    -0.034 A 
HETATM   29  C20 UNK     1      14.641   9.554  34.630  1.00  0.00     0.015 A 
HETATM   30  C23 UNK     1      15.500   7.366  33.817  1.00  0.00     0.050 C 
HETATM   31  C22 UNK     1      14.810  10.905  34.931  1.00  0.00    -0.061 A 
HETATM   32  C21 UNK     1      16.049  11.514  34.735  1.00  0.00     0.015 A 
HETATM   33  C25 UNK     1      13.665  11.700  35.462  1.00  0.00     0.048 C 
HETATM   34  C18 UNK     1      17.120  10.772  34.237  1.00  0.00    -0.034 A 
HETATM   35  C24 UNK     1      18.436  11.451  34.037  1.00  0.00     0.050 C 
ENDBRANCH  25  27
ENDBRANCH  22  23
ENDBRANCH   2  22
TORSDOF 7
ENDMDL
MODEL 2
REMARK VINA RESULT:      -8.9      5.711     12.032
REMARK  7 active torsions:
REMARK  status: ('A' for Active; 'I' for Inactive)
REMARK    1  A    between atoms: C16_23  and  O3_3 
REMARK    2  A    between atoms: C26_33  and  O3_3 
REMARK    3  A    between atoms: C5_12  and  N1_5 
REMARK    4  A    between atoms: C6_13  and  N2_6 
REMARK    5  A    between atoms: C13_20  and  N3_7 
REMARK       I    between atoms: C8_15  and  N3_7 
REMARK    6  A    between atoms: C5_12  and  C7_14 
REMARK    7  A    between atoms: C6_13  and  C8_15 
ROOT
HETATM    1  N1  UNK     1      18.741  -0.900  35.138  1.00  0.00     0.096 N 
HETATM    2  N2  UNK     1      19.750  -2.962  36.895  1.00  0.00     0.100 N 
HETATM    3  C1  UNK     1      17.941  -1.401  36.262  1.00  0.00     0.303 C 
HETATM    4  C2  UNK     1      19.647  -1.945  34.646  1.00  0.00     0.303 C 
HETATM    5  C3  UNK     1      18.845  -1.916  37.388  1.00  0.00     0.303 C 
HETATM    6  C4  UNK     1      20.550  -2.458  35.772  1.00  0.00     0.303 C 
ENDROOT
BRANCH   1   7
HETATM    7  C5  UNK     1      17.879  -0.412  34.064  1.00  0.00     0.312 C 
BRANCH   7   8
HETATM    8  C7  UNK     1      18.588  -0.355  32.756  1.00  0.00    -0.011 A 
HETATM    9  C10 UNK     1      19.185  -1.440  32.243  1.00  0.00     0.092 A 
HETATM   10  C14 UNK     1      19.898  -1.432  30.955  1.00  0.00     0.288 A 
HETATM   11  O1  UNK     1      19.933  -0.227  30.270  1.00  0.00    -0.275 OA
HETATM   12  O4  UNK     1      20.431  -2.445  30.517  1.00  0.00    -0.260 OA
HETATM   13  C11 UNK     1      19.317   0.931  30.784  1.00  0.00     0.090 A 
HETATM   14  C9  UNK     1      18.644   0.908  32.007  1.00  0.00     0.009 A 
HETATM   15  C15 UNK     1      19.416   2.088  30.009  1.00  0.00     0.041 A 
HETATM   16  C12 UNK     1      18.059   2.103  32.449  1.00  0.00     0.051 A 
HETATM   17  C16 UNK     1      18.151   3.271  31.684  1.00  0.00     0.069 A 
HETATM   18  C19 UNK     1      18.828   3.263  30.466  1.00  0.00     0.039 A 
BRANCH  17  19
HETATM   19  O3  UNK     1      17.574   4.420  32.132  1.00  0.00    -0.351 OA
BRANCH  19  20
HETATM   20  C26 UNK     1      18.240   5.111  33.188  1.00  0.00     0.171 C 
HETATM   21  C27 UNK     1      19.020   6.270  32.604  1.00  0.00     0.034 C 
ENDBRANCH  19  20
ENDBRANCH  17  19
ENDBRANCH   7   8
ENDBRANCH   1   7
BRANCH   2  22
HETATM   22  C6  UNK     1      20.612  -3.451  37.969  1.00  0.00     0.375 C 
BRANCH  22  23
HETATM   23  C8  UNK     1      20.920  -4.921  37.740  1.00  0.00     0.250 C 
HETATM   24  O2  UNK     1      21.932  -5.303  37.162  1.00  0.00    -0.271 OA
HETATM   25  N3  UNK     1      19.908  -5.713  38.277  1.00  0.00    -0.325 N 
HETATM   26  H14 UNK     1      19.010  -5.244  38.374  1.00  0.00     0.169 HD
BRANCH  25  27
HETATM   27  C13 UNK     1      19.822  -7.126  38.271  1.00  0.00     0.046 A 
HETATM   28  C17 UNK     1      20.672  -7.880  39.082  1.00  0.00    -0.034 A 
HETATM   29  C20 UNK     1      20.587  -9.272  39.077  1.00  0.00     0.015 A 
HETATM   30  C23 UNK     1      21.683  -7.224  39.965  1.00  0.00     0.050 C 
HETATM   31  C22 UNK     1      19.653  -9.911  38.260  1.00  0.00    -0.061 A 
HETATM   32  C21 UNK     1      18.804  -9.157  37.451  1.00  0.00     0.015 A 
HETATM   33  C25 UNK     1      19.564 -11.400  38.252  1.00  0.00     0.048 C 
HETATM   34  C18 UNK     1      18.888  -7.765  37.456  1.00  0.00    -0.034 A 
HETATM   35  C24 UNK     1      17.965  -6.984  36.578  1.00  0.00     0.050 C 
ENDBRANCH  25  27
ENDBRANCH  22  23
ENDBRANCH   2  22
TORSDOF 7
ENDMDL
MODEL 3
REMARK VINA RESULT:      -8.9      5.558     12.196
REMARK  7 active torsions:
REMARK  status: ('A' for Active; 'I' for Inactive)
REMARK    1  A    between atoms: C16_23  and  O3_3 
REMARK    2  A    between atoms: C26_33  and  O3_3 
REMARK    3  A    between atoms: C5_12  and  N1_5 
REMARK    4  A    between atoms: C6_13  and  N2_6 
REMARK    5  A    between atoms: C13_20  and  N3_7 
REMARK       I    between atoms: C8_15  and  N3_7 
REMARK    6  A    between atoms: C5_12  and  C7_14 
REMARK    7  A    between atoms: C6_13  and  C8_15 
ROOT
HETATM    1  N1  UNK     1      18.919  -0.905  34.472  1.00  0.00     0.096 N 
HETATM    2  N2  UNK     1      19.584  -2.883  36.471  1.00  0.00     0.100 N 
HETATM    3  C1  UNK     1      17.916  -1.388  35.428  1.00  0.00     0.303 C 
HETATM    4  C2  UNK     1      19.923  -1.943  34.212  1.00  0.00     0.303 C 
HETATM    5  C3  UNK     1      18.580  -1.844  36.732  1.00  0.00     0.303 C 
HETATM    6  C4  UNK     1      20.587  -2.398  35.516  1.00  0.00     0.303 C 
ENDROOT
BRANCH   1   7
HETATM    7  C5  UNK     1      18.285  -0.473  33.227  1.00  0.00     0.312 C 
BRANCH   7   8
HETATM    8  C7  UNK     1      18.320   1.007  33.062  1.00  0.00    -0.011 A 
HETATM    9  C10 UNK     1      18.206   1.824  34.118  1.00  0.00     0.092 A 
HETATM   10  C14 UNK     1      18.235   3.292  34.005  1.00  0.00     0.288 A 
HETATM   11  O1  UNK     1      18.387   3.816  32.729  1.00  0.00    -0.275 OA
HETATM   12  O4  UNK     1      18.128   4.009  34.994  1.00  0.00    -0.260 OA
HETATM   13  C11 UNK     1      18.508   2.982  31.600  1.00  0.00     0.090 A 
HETATM   14  C9  UNK     1      18.479   1.591  31.723  1.00  0.00     0.009 A 
HETATM   15  C15 UNK     1      18.657   3.618  30.367  1.00  0.00     0.041 A 
HETATM   16  C12 UNK     1      18.604   0.832  30.552  1.00  0.00     0.051 A 
HETATM   17  C16 UNK     1      18.753   1.456  29.308  1.00  0.00     0.069 A 
HETATM   18  C19 UNK     1      18.779   2.846  29.216  1.00  0.00     0.039 A 
BRANCH  17  19
HETATM   19  O3  UNK     1      18.873   0.699  28.182  1.00  0.00    -0.351 OA
BRANCH  19  20
HETATM   20  C26 UNK     1      19.379  -0.625  28.341  1.00  0.00     0.171 C 
HETATM   21  C27 UNK     1      20.800  -0.550  28.859  1.00  0.00     0.034 C 
ENDBRANCH  19  20
ENDBRANCH  17  19
ENDBRANCH   7   8
ENDBRANCH   1   7
BRANCH   2  22
HETATM   22  C6  UNK     1      20.218  -3.316  37.715  1.00  0.00     0.375 C 
BRANCH  22  23
HETATM   23  C8  UNK     1      20.652  -4.765  37.583  1.00  0.00     0.250 C 
HETATM   24  O2  UNK     1      21.781  -5.089  37.229  1.00  0.00    -0.271 OA
HETATM   25  N3  UNK     1      19.601  -5.615  37.923  1.00  0.00    -0.325 N 
HETATM   26  H14 UNK     1      18.676  -5.201  37.827  1.00  0.00     0.169 HD
BRANCH  25  27
HETATM   27  C13 UNK     1      19.601  -7.030  37.929  1.00  0.00     0.046 A 
HETATM   28  C17 UNK     1      18.869  -7.732  36.970  1.00  0.00    -0.034 A 
HETATM   29  C20 UNK     1      18.869  -9.127  36.976  1.00  0.00     0.015 A 
HETATM   30  C23 UNK     1      18.074  -7.017  35.926  1.00  0.00     0.050 C 
HETATM   31  C22 UNK     1      19.601  -9.820  37.941  1.00  0.00    -0.061 A 
HETATM   32  C21 UNK     1      20.333  -9.118  38.898  1.00  0.00     0.015 A 
HETATM   33  C25 UNK     1      19.601 -11.312  37.949  1.00  0.00     0.048 C 
HETATM   34  C18 UNK     1      20.333  -7.724  38.892  1.00  0.00    -0.034 A 
HETATM   35  C24 UNK     1      21.127  -6.999  39.931  1.00  0.00     0.050 C 
ENDBRANCH  25  27
ENDBRANCH  22  23
ENDBRANCH   2  22
TORSDOF 7
ENDMDL
MODEL 4
REMARK VINA RESULT:      -8.8     10.837     16.186
REMARK  7 active torsions:
REMARK  status: ('A' for Active; 'I' for Inactive)
REMARK    1  A    between atoms: C16_23  and  O3_3 
REMARK    2  A    between atoms: C26_33  and  O3_3 
REMARK    3  A    between atoms: C5_12  and  N1_5 
REMARK    4  A    between atoms: C6_13  and  N2_6 
REMARK    5  A    between atoms: C13_20  and  N3_7 
REMARK       I    between atoms: C8_15  and  N3_7 
REMARK    6  A    between atoms: C5_12  and  C7_14 
REMARK    7  A    between atoms: C6_13  and  C8_15 
ROOT
HETATM    1  N1  UNK     1      23.753  -9.346  37.153  1.00  0.00     0.096 N 
HETATM    2  N2  UNK     1      26.199  -8.284  38.270  1.00  0.00     0.100 N 
HETATM    3  C1  UNK     1      25.053  -9.595  36.517  1.00  0.00     0.303 C 
HETATM    4  C2  UNK     1      23.770  -8.066  37.871  1.00  0.00     0.303 C 
HETATM    5  C3  UNK     1      26.182  -9.565  37.553  1.00  0.00     0.303 C 
HETATM    6  C4  UNK     1      24.899  -8.037  38.907  1.00  0.00     0.303 C 
ENDROOT
BRANCH   1   7
HETATM    7  C5  UNK     1      22.678  -9.372  36.163  1.00  0.00     0.312 C 
BRANCH   7   8
HETATM    8  C7  UNK     1      21.333  -9.463  36.797  1.00  0.00    -0.011 A 
HETATM    9  C10 UNK     1      20.924 -10.591  37.394  1.00  0.00     0.092 A 
HETATM   10  C14 UNK     1      19.604 -10.729  38.033  1.00  0.00     0.288 A 
HETATM   11  O1  UNK     1      18.774  -9.618  37.994  1.00  0.00    -0.275 OA
HETATM   12  O4  UNK     1      19.264 -11.777  38.571  1.00  0.00    -0.260 OA
HETATM   13  C11 UNK     1      19.176  -8.420  37.372  1.00  0.00     0.090 A 
HETATM   14  C9  UNK     1      20.430  -8.304  36.770  1.00  0.00     0.009 A 
HETATM   15  C15 UNK     1      18.259  -7.368  37.393  1.00  0.00     0.041 A 
HETATM   16  C12 UNK     1      20.753  -7.078  36.172  1.00  0.00     0.051 A 
HETATM   17  C16 UNK     1      19.844  -6.015  36.184  1.00  0.00     0.069 A 
HETATM   18  C19 UNK     1      18.599  -6.160  36.793  1.00  0.00     0.039 A 
BRANCH  17  19
HETATM   19  O3  UNK     1      20.178  -4.832  35.597  1.00  0.00    -0.351 OA
BRANCH  19  20
HETATM   20  C26 UNK     1      19.833  -3.639  36.298  1.00  0.00     0.171 C 
HETATM   21  C27 UNK     1      20.461  -2.455  35.595  1.00  0.00     0.034 C 
ENDBRANCH  19  20
ENDBRANCH  17  19
ENDBRANCH   7   8
ENDBRANCH   1   7
BRANCH   2  22
HETATM   22  C6  UNK     1      27.274  -8.257  39.259  1.00  0.00     0.375 C 
BRANCH  22  23
HETATM   23  C8  UNK     1      28.596  -7.989  38.560  1.00  0.00     0.250 C 
HETATM   24  O2  UNK     1      29.552  -8.754  38.634  1.00  0.00    -0.271 OA
HETATM   25  N3  UNK     1      28.532  -6.790  37.854  1.00  0.00    -0.325 N 
HETATM   26  H14 UNK     1      27.832  -6.134  38.197  1.00  0.00     0.169 HD
BRANCH  25  27
HETATM   27  C13 UNK     1      29.550  -6.190  37.075  1.00  0.00     0.046 A 
HETATM   28  C17 UNK     1      29.810  -6.659  35.786  1.00  0.00    -0.034 A 
HETATM   29  C20 UNK     1      30.814  -6.068  35.019  1.00  0.00     0.015 A 
HETATM   30  C23 UNK     1      29.031  -7.793  35.202  1.00  0.00     0.050 C 
HETATM   31  C22 UNK     1      31.558  -5.009  35.540  1.00  0.00    -0.061 A 
HETATM   32  C21 UNK     1      31.298  -4.541  36.827  1.00  0.00     0.015 A 
HETATM   33  C25 UNK     1      32.633  -4.378  34.720  1.00  0.00     0.048 C 
HETATM   34  C18 UNK     1      30.294  -5.131  37.595  1.00  0.00    -0.034 A 
HETATM   35  C24 UNK     1      30.038  -4.608  38.971  1.00  0.00     0.050 C 
ENDBRANCH  25  27
ENDBRANCH  22  23
ENDBRANCH   2  22
TORSDOF 7
ENDMDL
MODEL 5
REMARK VINA RESULT:      -8.8     14.088     17.775
REMARK  7 active torsions:
REMARK  status: ('A' for Active; 'I' for Inactive)
REMARK    1  A    between atoms: C16_23  and  O3_3 
REMARK    2  A    between atoms: C26_33  and  O3_3 
REMARK    3  A    between atoms: C5_12  and  N1_5 
REMARK    4  A    between atoms: C6_13  and  N2_6 
REMARK    5  A    between atoms: C13_20  and  N3_7 
REMARK       I    between atoms: C8_15  and  N3_7 
REMARK    6  A    between atoms: C5_12  and  C7_14 
REMARK    7  A    between atoms: C6_13  and  C8_15 
ROOT
HETATM    1  N1  UNK     1      26.777  -9.435  37.510  1.00  0.00     0.096 N 
HETATM    2  N2  UNK     1      29.637  -9.117  37.786  1.00  0.00     0.100 N 
HETATM    3  C1  UNK     1      27.587  -8.854  36.432  1.00  0.00     0.303 C 
HETATM    4  C2  UNK     1      27.391  -9.165  38.815  1.00  0.00     0.303 C 
HETATM    5  C3  UNK     1      29.022  -9.388  36.480  1.00  0.00     0.303 C 
HETATM    6  C4  UNK     1      28.827  -9.700  38.863  1.00  0.00     0.303 C 
ENDROOT
BRANCH   1   7
HETATM    7  C5  UNK     1      25.409  -8.923  37.465  1.00  0.00     0.312 C 
BRANCH   7   8
HETATM    8  C7  UNK     1      24.486  -9.847  36.750  1.00  0.00    -0.011 A 
HETATM    9  C10 UNK     1      24.920 -11.018  36.261  1.00  0.00     0.092 A 
HETATM   10  C14 UNK     1      24.046 -11.964  35.546  1.00  0.00     0.288 A 
HETATM   11  O1  UNK     1      22.719 -11.590  35.391  1.00  0.00    -0.275 OA
HETATM   12  O4  UNK     1      24.478 -13.026  35.113  1.00  0.00    -0.260 OA
HETATM   13  C11 UNK     1      22.234 -10.367  35.892  1.00  0.00     0.090 A 
HETATM   14  C9  UNK     1      23.075  -9.479  36.568  1.00  0.00     0.009 A 
HETATM   15  C15 UNK     1      20.882 -10.095  35.678  1.00  0.00     0.041 A 
HETATM   16  C12 UNK     1      22.516  -8.282  37.035  1.00  0.00     0.051 A 
HETATM   17  C16 UNK     1      21.162  -7.996  36.826  1.00  0.00     0.069 A 
HETATM   18  C19 UNK     1      20.347  -8.901  36.149  1.00  0.00     0.039 A 
BRANCH  17  19
HETATM   19  O3  UNK     1      20.639  -6.826  37.288  1.00  0.00    -0.351 OA
BRANCH  19  20
HETATM   20  C26 UNK     1      19.541  -6.920  38.194  1.00  0.00     0.171 C 
HETATM   21  C27 UNK     1      20.033  -7.485  39.509  1.00  0.00     0.034 C 
ENDBRANCH  19  20
ENDBRANCH  17  19
ENDBRANCH   7   8
ENDBRANCH   1   7
BRANCH   2  22
HETATM   22  C6  UNK     1      31.005  -9.628  37.831  1.00  0.00     0.375 C 
BRANCH  22  23
HETATM   23  C8  UNK     1      31.862  -8.868  36.833  1.00  0.00     0.250 C 
HETATM   24  O2  UNK     1      32.467  -9.422  35.922  1.00  0.00    -0.271 OA
HETATM   25  N3  UNK     1      31.834  -7.503  37.118  1.00  0.00    -0.325 N 
HETATM   26  H14 UNK     1      31.604  -7.278  38.083  1.00  0.00     0.169 HD
BRANCH  25  27
HETATM   27  C13 UNK     1      32.498  -6.463  36.425  1.00  0.00     0.046 A 
HETATM   28  C17 UNK     1      31.833  -5.758  35.420  1.00  0.00    -0.034 A 
HETATM   29  C20 UNK     1      32.487  -4.733  34.738  1.00  0.00     0.015 A 
HETATM   30  C23 UNK     1      30.421  -6.080  35.053  1.00  0.00     0.050 C 
HETATM   31  C22 UNK     1      33.807  -4.413  35.059  1.00  0.00    -0.061 A 
HETATM   32  C21 UNK     1      34.471  -5.117  36.063  1.00  0.00     0.015 A 
HETATM   33  C25 UNK     1      34.508  -3.318  34.328  1.00  0.00     0.048 C 
HETATM   34  C18 UNK     1      33.817  -6.142  36.746  1.00  0.00    -0.034 A 
HETATM   35  C24 UNK     1      34.554  -6.879  37.817  1.00  0.00     0.050 C 
ENDBRANCH  25  27
ENDBRANCH  22  23
ENDBRANCH   2  22
TORSDOF 7
ENDMDL
MODEL 6
REMARK VINA RESULT:      -8.7      4.927     11.642
REMARK  7 active torsions:
REMARK  status: ('A' for Active; 'I' for Inactive)
REMARK    1  A    between atoms: C16_23  and  O3_3 
REMARK    2  A    between atoms: C26_33  and  O3_3 
REMARK    3  A    between atoms: C5_12  and  N1_5 
REMARK    4  A    between atoms: C6_13  and  N2_6 
REMARK    5  A    between atoms: C13_20  and  N3_7 
REMARK       I    between atoms: C8_15  and  N3_7 
REMARK    6  A    between atoms: C5_12  and  C7_14 
REMARK    7  A    between atoms: C6_13  and  C8_15 
ROOT
HETATM    1  N1  UNK     1      18.760   0.448  34.306  1.00  0.00     0.096 N 
HETATM    2  N2  UNK     1      19.402  -1.961  35.769  1.00  0.00     0.100 N 
HETATM    3  C1  UNK     1      18.624   0.385  35.766  1.00  0.00     0.303 C 
HETATM    4  C2  UNK     1      18.559  -0.879  33.713  1.00  0.00     0.303 C 
HETATM    5  C3  UNK     1      19.603  -0.632  36.361  1.00  0.00     0.303 C 
HETATM    6  C4  UNK     1      19.540  -1.896  34.309  1.00  0.00     0.303 C 
ENDROOT
BRANCH   1   7
HETATM    7  C5  UNK     1      17.823   1.417  33.738  1.00  0.00     0.312 C 
BRANCH   7   8
HETATM    8  C7  UNK     1      18.273   1.923  32.412  1.00  0.00    -0.011 A 
HETATM    9  C10 UNK     1      18.559   1.081  31.410  1.00  0.00     0.092 A 
HETATM   10  C14 UNK     1      19.007   1.534  30.082  1.00  0.00     0.288 A 
HETATM   11  O1  UNK     1      19.128   2.904  29.900  1.00  0.00    -0.275 OA
HETATM   12  O4  UNK     1      19.259   0.734  29.188  1.00  0.00    -0.260 OA
HETATM   13  C11 UNK     1      18.836   3.814  30.935  1.00  0.00     0.090 A 
HETATM   14  C9  UNK     1      18.412   3.369  32.189  1.00  0.00     0.009 A 
HETATM   15  C15 UNK     1      18.993   5.169  30.639  1.00  0.00     0.041 A 
HETATM   16  C12 UNK     1      18.143   4.338  33.165  1.00  0.00     0.051 A 
HETATM   17  C16 UNK     1      18.297   5.700  32.883  1.00  0.00     0.069 A 
HETATM   18  C19 UNK     1      18.722   6.114  31.622  1.00  0.00     0.039 A 
BRANCH  17  19
HETATM   19  O3  UNK     1      18.030   6.624  33.846  1.00  0.00    -0.351 OA
BRANCH  19  20
HETATM   20  C26 UNK     1      18.065   7.996  33.457  1.00  0.00     0.171 C 
HETATM   21  C27 UNK     1      19.110   8.717  34.282  1.00  0.00     0.034 C 
ENDBRANCH  19  20
ENDBRANCH  17  19
ENDBRANCH   7   8
ENDBRANCH   1   7
BRANCH   2  22
HETATM   22  C6  UNK     1      20.338  -2.929  36.336  1.00  0.00     0.375 C 
BRANCH  22  23
HETATM   23  C8  UNK     1      19.626  -4.255  36.546  1.00  0.00     0.250 C 
HETATM   24  O2  UNK     1      18.404  -4.353  36.576  1.00  0.00    -0.271 OA
HETATM   25  N3  UNK     1      20.557  -5.283  36.686  1.00  0.00    -0.325 N 
HETATM   26  H14 UNK     1      21.476  -4.981  37.001  1.00  0.00     0.169 HD
BRANCH  25  27
HETATM   27  C13 UNK     1      20.299  -6.659  36.897  1.00  0.00     0.046 A 
HETATM   28  C17 UNK     1      20.188  -7.523  35.806  1.00  0.00    -0.034 A 
HETATM   29  C20 UNK     1      19.933  -8.878  36.013  1.00  0.00     0.015 A 
HETATM   30  C23 UNK     1      20.334  -7.024  34.405  1.00  0.00     0.050 C 
HETATM   31  C22 UNK     1      19.790  -9.370  37.311  1.00  0.00    -0.061 A 
HETATM   32  C21 UNK     1      19.901  -8.507  38.400  1.00  0.00     0.015 A 
HETATM   33  C25 UNK     1      19.516 -10.820  37.533  1.00  0.00     0.048 C 
HETATM   34  C18 UNK     1      20.155  -7.151  38.193  1.00  0.00    -0.034 A 
HETATM   35  C24 UNK     1      20.270  -6.251  39.380  1.00  0.00     0.050 C 
ENDBRANCH  25  27
ENDBRANCH  22  23
ENDBRANCH   2  22
TORSDOF 7
ENDMDL
MODEL 7
REMARK VINA RESULT:      -8.6     15.486     18.765
REMARK  7 active torsions:
REMARK  status: ('A' for Active; 'I' for Inactive)
REMARK    1  A    between atoms: C16_23  and  O3_3 
REMARK    2  A    between atoms: C26_33  and  O3_3 
REMARK    3  A    between atoms: C5_12  and  N1_5 
REMARK    4  A    between atoms: C6_13  and  N2_6 
REMARK    5  A    between atoms: C13_20  and  N3_7 
REMARK       I    between atoms: C8_15  and  N3_7 
REMARK    6  A    between atoms: C5_12  and  C7_14 
REMARK    7  A    between atoms: C6_13  and  C8_15 
ROOT
HETATM    1  N1  UNK     1      32.214  -8.152  35.918  1.00  0.00     0.096 N 
HETATM    2  N2  UNK     1      32.459 -10.329  34.033  1.00  0.00     0.100 N 
HETATM    3  C1  UNK     1      33.310  -8.195  34.943  1.00  0.00     0.303 C 
HETATM    4  C2  UNK     1      31.778  -9.511  36.262  1.00  0.00     0.303 C 
HETATM    5  C3  UNK     1      32.894  -8.970  33.688  1.00  0.00     0.303 C 
HETATM    6  C4  UNK     1      31.361 -10.284  35.006  1.00  0.00     0.303 C 
ENDROOT
BRANCH   1   7
HETATM    7  C5  UNK     1      32.613  -7.416  37.116  1.00  0.00     0.312 C 
BRANCH   7   8
HETATM    8  C7  UNK     1      31.941  -6.090  37.211  1.00  0.00    -0.011 A 
HETATM    9  C10 UNK     1      32.513  -4.986  36.711  1.00  0.00     0.092 A 
HETATM   10  C14 UNK     1      31.888  -3.654  36.782  1.00  0.00     0.288 A 
HETATM   11  O1  UNK     1      30.650  -3.580  37.404  1.00  0.00    -0.275 OA
HETATM   12  O4  UNK     1      32.441  -2.666  36.313  1.00  0.00    -0.260 OA
HETATM   13  C11 UNK     1      30.025  -4.723  37.941  1.00  0.00     0.090 A 
HETATM   14  C9  UNK     1      30.630  -5.979  37.866  1.00  0.00     0.009 A 
HETATM   15  C15 UNK     1      28.781  -4.529  38.544  1.00  0.00     0.041 A 
HETATM   16  C12 UNK     1      29.943  -7.065  38.425  1.00  0.00     0.051 A 
HETATM   17  C16 UNK     1      28.696  -6.886  39.034  1.00  0.00     0.069 A 
HETATM   18  C19 UNK     1      28.116  -5.620  39.093  1.00  0.00     0.039 A 
BRANCH  17  19
HETATM   19  O3  UNK     1      28.046  -7.956  39.571  1.00  0.00    -0.351 OA
BRANCH  19  20
HETATM   20  C26 UNK     1      28.075  -9.173  38.827  1.00  0.00     0.171 C 
HETATM   21  C27 UNK     1      27.280 -10.224  39.572  1.00  0.00     0.034 C 
ENDBRANCH  19  20
ENDBRANCH  17  19
ENDBRANCH   7   8
ENDBRANCH   1   7
BRANCH   2  22
HETATM   22  C6  UNK     1      32.060 -11.066  32.835  1.00  0.00     0.375 C 
BRANCH  22  23
HETATM   23  C8  UNK     1      30.624 -10.718  32.483  1.00  0.00     0.250 C 
HETATM   24  O2  UNK     1      29.692 -11.496  32.657  1.00  0.00    -0.271 OA
HETATM   25  N3  UNK     1      30.556  -9.426  31.963  1.00  0.00    -0.325 N 
HETATM   26  H14 UNK     1      31.426  -9.088  31.557  1.00  0.00     0.169 HD
BRANCH  25  27
HETATM   27  C13 UNK     1      29.405  -8.734  31.518  1.00  0.00     0.046 A 
HETATM   28  C17 UNK     1      28.799  -7.784  32.342  1.00  0.00    -0.034 A 
HETATM   29  C20 UNK     1      27.665  -7.102  31.904  1.00  0.00     0.015 A 
HETATM   30  C23 UNK     1      29.342  -7.479  33.701  1.00  0.00     0.050 C 
HETATM   31  C22 UNK     1      27.135  -7.369  30.641  1.00  0.00    -0.061 A 
HETATM   32  C21 UNK     1      27.741  -8.317  29.817  1.00  0.00     0.015 A 
HETATM   33  C25 UNK     1      25.921  -6.641  30.172  1.00  0.00     0.048 C 
HETATM   34  C18 UNK     1      28.875  -9.000  30.256  1.00  0.00    -0.034 A 
HETATM   35  C24 UNK     1      29.502 -10.010  29.351  1.00  0.00     0.050 C 
ENDBRANCH  25  27
ENDBRANCH  22  23
ENDBRANCH   2  22
TORSDOF 7
ENDMDL
MODEL 8
REMARK VINA RESULT:      -8.5     11.420     17.079
REMARK  7 active torsions:
REMARK  status: ('A' for Active; 'I' for Inactive)
REMARK    1  A    between atoms: C16_23  and  O3_3 
REMARK    2  A    between atoms: C26_33  and  O3_3 
REMARK    3  A    between atoms: C5_12  and  N1_5 
REMARK    4  A    between atoms: C6_13  and  N2_6 
REMARK    5  A    between atoms: C13_20  and  N3_7 
REMARK       I    between atoms: C8_15  and  N3_7 
REMARK    6  A    between atoms: C5_12  and  C7_14 
REMARK    7  A    between atoms: C6_13  and  C8_15 
ROOT
HETATM    1  N1  UNK     1      23.529  -8.504  38.636  1.00  0.00     0.096 N 
HETATM    2  N2  UNK     1      26.001  -8.873  37.182  1.00  0.00     0.100 N 
HETATM    3  C1  UNK     1      23.530  -8.860  37.212  1.00  0.00     0.303 C 
HETATM    4  C2  UNK     1      24.734  -7.737  38.974  1.00  0.00     0.303 C 
HETATM    5  C3  UNK     1      24.796  -9.641  36.845  1.00  0.00     0.303 C 
HETATM    6  C4  UNK     1      25.999  -8.520  38.607  1.00  0.00     0.303 C 
ENDROOT
BRANCH   1   7
HETATM    7  C5  UNK     1      22.323  -7.756  38.983  1.00  0.00     0.312 C 
BRANCH   7   8
HETATM    8  C7  UNK     1      21.088  -8.409  38.467  1.00  0.00    -0.011 A 
HETATM    9  C10 UNK     1      20.684  -9.597  38.938  1.00  0.00     0.092 A 
HETATM   10  C14 UNK     1      19.471 -10.282  38.459  1.00  0.00     0.288 A 
HETATM   11  O1  UNK     1      18.740  -9.636  37.473  1.00  0.00    -0.275 OA
HETATM   12  O4  UNK     1      19.132 -11.368  38.914  1.00  0.00    -0.260 OA
HETATM   13  C11 UNK     1      19.141  -8.388  36.957  1.00  0.00     0.090 A 
HETATM   14  C9  UNK     1      20.293  -7.751  37.421  1.00  0.00     0.009 A 
HETATM   15  C15 UNK     1      18.329  -7.831  35.967  1.00  0.00     0.041 A 
HETATM   16  C12 UNK     1      20.623  -6.511  36.856  1.00  0.00     0.051 A 
HETATM   17  C16 UNK     1      19.820  -5.942  35.862  1.00  0.00     0.069 A 
HETATM   18  C19 UNK     1      18.674  -6.601  35.418  1.00  0.00     0.039 A 
BRANCH  17  19
HETATM   19  O3  UNK     1      20.159  -4.737  35.326  1.00  0.00    -0.351 OA
BRANCH  19  20
HETATM   20  C26 UNK     1      20.166  -3.614  36.206  1.00  0.00     0.171 C 
HETATM   21  C27 UNK     1      19.939  -2.353  35.399  1.00  0.00     0.034 C 
ENDBRANCH  19  20
ENDBRANCH  17  19
ENDBRANCH   7   8
ENDBRANCH   1   7
BRANCH   2  22
HETATM   22  C6  UNK     1      27.207  -9.621  36.834  1.00  0.00     0.375 C 
BRANCH  22  23
HETATM   23  C8  UNK     1      28.340  -8.648  36.553  1.00  0.00     0.250 C 
HETATM   24  O2  UNK     1      28.272  -7.784  35.685  1.00  0.00    -0.271 OA
HETATM   25  N3  UNK     1      29.409  -8.893  37.414  1.00  0.00    -0.325 N 
HETATM   26  H14 UNK     1      29.441  -9.839  37.788  1.00  0.00     0.169 HD
BRANCH  25  27
HETATM   27  C13 UNK     1      30.646  -8.207  37.472  1.00  0.00     0.046 A 
HETATM   28  C17 UNK     1      31.773  -8.748  36.850  1.00  0.00    -0.034 A 
HETATM   29  C20 UNK     1      32.992  -8.073  36.907  1.00  0.00     0.015 A 
HETATM   30  C23 UNK     1      31.704 -10.050  36.119  1.00  0.00     0.050 C 
HETATM   31  C22 UNK     1      33.085  -6.858  37.586  1.00  0.00    -0.061 A 
HETATM   32  C21 UNK     1      31.958  -6.317  38.205  1.00  0.00     0.015 A 
HETATM   33  C25 UNK     1      34.388  -6.136  37.648  1.00  0.00     0.048 C 
HETATM   34  C18 UNK     1      30.739  -6.992  38.149  1.00  0.00    -0.034 A 
HETATM   35  C24 UNK     1      29.550  -6.388  38.822  1.00  0.00     0.050 C 
ENDBRANCH  25  27
ENDBRANCH  22  23
ENDBRANCH   2  22
TORSDOF 7
ENDMDL
MODEL 9
REMARK VINA RESULT:      -8.5     15.443     18.708
REMARK  7 active torsions:
REMARK  status: ('A' for Active; 'I' for Inactive)
REMARK    1  A    between atoms: C16_23  and  O3_3 
REMARK    2  A    between atoms: C26_33  and  O3_3 
REMARK    3  A    between atoms: C5_12  and  N1_5 
REMARK    4  A    between atoms: C6_13  and  N2_6 
REMARK    5  A    between atoms: C13_20  and  N3_7 
REMARK       I    between atoms: C8_15  and  N3_7 
REMARK    6  A    between atoms: C5_12  and  C7_14 
REMARK    7  A    between atoms: C6_13  and  C8_15 
ROOT
HETATM    1  N1  UNK     1      32.211  -8.089  35.918  1.00  0.00     0.096 N 
HETATM    2  N2  UNK     1      32.429 -10.278  34.042  1.00  0.00     0.100 N 
HETATM    3  C1  UNK     1      33.313  -8.157  34.951  1.00  0.00     0.303 C 
HETATM    4  C2  UNK     1      31.748  -9.439  36.264  1.00  0.00     0.303 C 
HETATM    5  C3  UNK     1      32.892  -8.928  33.695  1.00  0.00     0.303 C 
HETATM    6  C4  UNK     1      31.326 -10.208  35.007  1.00  0.00     0.303 C 
ENDROOT
BRANCH   1   7
HETATM    7  C5  UNK     1      32.615  -7.356  37.116  1.00  0.00     0.312 C 
BRANCH   7   8
HETATM    8  C7  UNK     1      31.949  -6.028  37.214  1.00  0.00    -0.011 A 
HETATM    9  C10 UNK     1      32.530  -4.924  36.723  1.00  0.00     0.092 A 
HETATM   10  C14 UNK     1      31.912  -3.590  36.796  1.00  0.00     0.288 A 
HETATM   11  O1  UNK     1      30.670  -3.512  37.410  1.00  0.00    -0.275 OA
HETATM   12  O4  UNK     1      32.473  -2.602  36.335  1.00  0.00    -0.260 OA
HETATM   13  C11 UNK     1      30.036  -4.654  37.937  1.00  0.00     0.090 A 
HETATM   14  C9  UNK     1      30.635  -5.913  37.860  1.00  0.00     0.009 A 
HETATM   15  C15 UNK     1      28.789  -4.457  38.533  1.00  0.00     0.041 A 
HETATM   16  C12 UNK     1      29.939  -6.998  38.409  1.00  0.00     0.051 A 
HETATM   17  C16 UNK     1      28.689  -6.816  39.011  1.00  0.00     0.069 A 
HETATM   18  C19 UNK     1      28.115  -5.547  39.072  1.00  0.00     0.039 A 
BRANCH  17  19
HETATM   19  O3  UNK     1      28.029  -7.884  39.538  1.00  0.00    -0.351 OA
BRANCH  19  20
HETATM   20  C26 UNK     1      28.314  -9.164  38.976  1.00  0.00     0.171 C 
HETATM   21  C27 UNK     1      27.592 -10.226  39.778  1.00  0.00     0.034 C 
ENDBRANCH  19  20
ENDBRANCH  17  19
ENDBRANCH   7   8
ENDBRANCH   1   7
BRANCH   2  22
HETATM   22  C6  UNK     1      32.026 -11.011  32.844  1.00  0.00     0.375 C 
BRANCH  22  23
HETATM   23  C8  UNK     1      30.587 -10.664  32.500  1.00  0.00     0.250 C 
HETATM   24  O2  UNK     1      29.654 -11.436  32.697  1.00  0.00    -0.271 OA
HETATM   25  N3  UNK     1      30.519  -9.382  31.959  1.00  0.00    -0.325 N 
HETATM   26  H14 UNK     1      31.386  -9.054  31.538  1.00  0.00     0.169 HD
BRANCH  25  27
HETATM   27  C13 UNK     1      29.365  -8.693  31.513  1.00  0.00     0.046 A 
HETATM   28  C17 UNK     1      28.823  -8.979  30.258  1.00  0.00    -0.034 A 
HETATM   29  C20 UNK     1      27.687  -8.300  29.819  1.00  0.00     0.015 A 
HETATM   30  C23 UNK     1      29.440 -10.005  29.364  1.00  0.00     0.050 C 
HETATM   31  C22 UNK     1      27.092  -7.336  30.633  1.00  0.00    -0.061 A 
HETATM   32  C21 UNK     1      27.633  -7.051  31.886  1.00  0.00     0.015 A 
HETATM   33  C25 UNK     1      25.878  -6.609  30.162  1.00  0.00     0.048 C 
HETATM   34  C18 UNK     1      28.770  -7.730  32.326  1.00  0.00    -0.034 A 
HETATM   35  C24 UNK     1      29.327  -7.403  33.674  1.00  0.00     0.050 C 
ENDBRANCH  25  27
ENDBRANCH  22  23
ENDBRANCH   2  22
TORSDOF 7
ENDMDL
MODEL 10
REMARK VINA RESULT:      -8.5     15.649     19.039
REMARK  7 active torsions:
REMARK  status: ('A' for Active; 'I' for Inactive)
REMARK    1  A    between atoms: C16_23  and  O3_3 
REMARK    2  A    between atoms: C26_33  and  O3_3 
REMARK    3  A    between atoms: C5_12  and  N1_5 
REMARK    4  A    between atoms: C6_13  and  N2_6 
REMARK    5  A    between atoms: C13_20  and  N3_7 
REMARK       I    between atoms: C8_15  and  N3_7 
REMARK    6  A    between atoms: C5_12  and  C7_14 
REMARK    7  A    between atoms: C6_13  and  C8_15 
ROOT
HETATM    1  N1  UNK     1      31.493  -9.431  36.313  1.00  0.00     0.096 N 
HETATM    2  N2  UNK     1      32.590 -10.394  33.818  1.00  0.00     0.100 N 
HETATM    3  C1  UNK     1      32.684  -8.816  35.717  1.00  0.00     0.303 C 
HETATM    4  C2  UNK     1      31.404 -10.848  35.938  1.00  0.00     0.303 C 
HETATM    5  C3  UNK     1      32.678  -8.977  34.193  1.00  0.00     0.303 C 
HETATM    6  C4  UNK     1      31.396 -11.008  34.413  1.00  0.00     0.303 C 
ENDROOT
BRANCH   1   7
HETATM    7  C5  UNK     1      31.502  -9.279  37.767  1.00  0.00     0.312 C 
BRANCH   7   8
HETATM    8  C7  UNK     1      30.267  -8.615  38.270  1.00  0.00    -0.011 A 
HETATM    9  C10 UNK     1      29.214  -9.333  38.684  1.00  0.00     0.092 A 
HETATM   10  C14 UNK     1      27.973  -8.722  39.189  1.00  0.00     0.288 A 
HETATM   11  O1  UNK     1      27.930  -7.336  39.221  1.00  0.00    -0.275 OA
HETATM   12  O4  UNK     1      27.029  -9.411  39.560  1.00  0.00    -0.260 OA
HETATM   13  C11 UNK     1      29.020  -6.554  38.791  1.00  0.00     0.090 A 
HETATM   14  C9  UNK     1      30.191  -7.149  38.315  1.00  0.00     0.009 A 
HETATM   15  C15 UNK     1      28.865  -5.169  38.868  1.00  0.00     0.041 A 
HETATM   16  C12 UNK     1      31.229  -6.301  37.906  1.00  0.00     0.051 A 
HETATM   17  C16 UNK     1      31.088  -4.911  37.976  1.00  0.00     0.069 A 
HETATM   18  C19 UNK     1      29.908  -4.346  38.456  1.00  0.00     0.039 A 
BRANCH  17  19
HETATM   19  O3  UNK     1      32.110  -4.106  37.572  1.00  0.00    -0.351 OA
BRANCH  19  20
HETATM   20  C26 UNK     1      32.155  -3.759  36.190  1.00  0.00     0.171 C 
HETATM   21  C27 UNK     1      33.412  -4.340  35.577  1.00  0.00     0.034 C 
ENDBRANCH  19  20
ENDBRANCH  17  19
ENDBRANCH   7   8
ENDBRANCH   1   7
BRANCH   2  22
HETATM   22  C6  UNK     1      32.582 -10.547  32.365  1.00  0.00     0.375 C 
BRANCH  22  23
HETATM   23  C8  UNK     1      31.751  -9.436  31.745  1.00  0.00     0.250 C 
HETATM   24  O2  UNK     1      32.253  -8.450  31.217  1.00  0.00    -0.271 OA
HETATM   25  N3  UNK     1      30.393  -9.724  31.871  1.00  0.00    -0.325 N 
HETATM   26  H14 UNK     1      30.165 -10.360  32.632  1.00  0.00     0.169 HD
BRANCH  25  27
HETATM   27  C13 UNK     1      29.300  -8.943  31.425  1.00  0.00     0.046 A 
HETATM   28  C17 UNK     1      28.791  -9.127  30.138  1.00  0.00    -0.034 A 
HETATM   29  C20 UNK     1      27.714  -8.358  29.697  1.00  0.00     0.015 A 
HETATM   30  C23 UNK     1      29.381 -10.138  29.208  1.00  0.00     0.050 C 
HETATM   31  C22 UNK     1      27.146  -7.405  30.543  1.00  0.00    -0.061 A 
HETATM   32  C21 UNK     1      27.654  -7.222  31.829  1.00  0.00     0.015 A 
HETATM   33  C25 UNK     1      25.995  -6.581  30.072  1.00  0.00     0.048 C 
HETATM   34  C18 UNK     1      28.731  -7.991  32.270  1.00  0.00    -0.034 A 
HETATM   35  C24 UNK     1      29.254  -7.773  33.652  1.00  0.00     0.050 C 
ENDBRANCH  25  27
ENDBRANCH  22  23
ENDBRANCH   2  22
TORSDOF 7
ENDMDL
