MODEL 1
REMARK VINA RESULT:      -8.0      0.000      0.000
REMARK  1 active torsions:
REMARK  status: ('A' for Active; 'I' for Inactive)
REMARK       I    between atoms: C8_13  and  N1_5 
REMARK    1  A    between atoms: C8_13  and  C9_14 
ROOT
HETATM    1 Cl1  UNK     1      28.491 -10.107  39.562  1.00  0.00    -0.084 Cl
HETATM    2  O2  UNK     1      24.725  -5.658  38.659  1.00  0.00    -0.274 OA
HETATM    3  O3  UNK     1      22.587  -4.878  38.462  1.00  0.00    -0.259 OA
HETATM    4  C9  UNK     1      22.838  -7.195  38.887  1.00  0.00     0.108 A 
HETATM    5  C10 UNK     1      23.666  -8.225  39.096  1.00  0.00     0.037 A 
HETATM    6  C11 UNK     1      25.106  -8.019  39.096  1.00  0.00     0.001 A 
HETATM    7  C12 UNK     1      23.343  -5.824  38.653  1.00  0.00     0.304 A 
HETATM    8  C13 UNK     1      25.603  -6.739  38.877  1.00  0.00     0.089 A 
HETATM    9  C14 UNK     1      26.007  -9.065  39.309  1.00  0.00     0.038 A 
HETATM   10  C15 UNK     1      26.971  -6.474  38.867  1.00  0.00     0.040 A 
HETATM   11  C16 UNK     1      27.383  -8.815  39.300  1.00  0.00     0.035 A 
HETATM   12  C17 UNK     1      27.863  -7.522  39.080  1.00  0.00     0.026 A 
ENDROOT
BRANCH   4  13
HETATM   13  C8  UNK     1      21.393  -7.505  38.905  1.00  0.00     0.259 C 
HETATM   14  O1  UNK     1      20.809  -7.410  39.987  1.00  0.00    -0.267 OA
HETATM   15  N1  UNK     1      20.781  -7.880  37.702  1.00  0.00    -0.348 N 
HETATM   16  C6  UNK     1      21.440  -7.852  36.387  1.00  0.00     0.126 C 
HETATM   17  C7  UNK     1      19.345  -8.183  37.730  1.00  0.00     0.126 C 
HETATM   18  C4  UNK     1      22.336  -9.065  36.119  1.00  0.00     0.020 C 
HETATM   19  C2  UNK     1      21.624 -10.415  35.992  1.00  0.00     0.002 C 
HETATM   20  C1  UNK     1      20.958 -10.897  37.283  1.00  0.00     0.000 C 
HETATM   21  C3  UNK     1      19.439 -10.725  37.323  1.00  0.00     0.002 C 
HETATM   22  C5  UNK     1      18.885  -9.370  36.886  1.00  0.00     0.020 C 
ENDBRANCH   4  13
TORSDOF 1
ENDMDL
MODEL 2
REMARK VINA RESULT:      -7.7      5.631      9.646
REMARK  1 active torsions:
REMARK  status: ('A' for Active; 'I' for Inactive)
REMARK       I    between atoms: C8_13  and  N1_5 
REMARK    1  A    between atoms: C8_13  and  C9_14 
ROOT
HETATM    1 Cl1  UNK     1      26.885 -10.710  39.372  1.00  0.00    -0.084 Cl
HETATM    2  O2  UNK     1      28.539  -5.180  38.162  1.00  0.00    -0.274 OA
HETATM    3  O3  UNK     1      30.183  -3.636  37.794  1.00  0.00    -0.259 OA
HETATM    4  C9  UNK     1      30.888  -5.853  38.242  1.00  0.00     0.108 A 
HETATM    5  C10 UNK     1      30.545  -7.117  38.518  1.00  0.00     0.037 A 
HETATM    6  C11 UNK     1      29.143  -7.487  38.633  1.00  0.00     0.001 A 
HETATM    7  C12 UNK     1      29.872  -4.795  38.046  1.00  0.00     0.304 A 
HETATM    8  C13 UNK     1      28.171  -6.508  38.453  1.00  0.00     0.089 A 
HETATM    9  C14 UNK     1      28.739  -8.793  38.919  1.00  0.00     0.038 A 
HETATM   10  C15 UNK     1      26.811  -6.798  38.548  1.00  0.00     0.040 A 
HETATM   11  C16 UNK     1      27.378  -9.098  39.020  1.00  0.00     0.035 A 
HETATM   12  C17 UNK     1      26.418  -8.103  38.833  1.00  0.00     0.026 A 
ENDROOT
BRANCH   4  13
HETATM   13  C8  UNK     1      32.337  -5.575  38.146  1.00  0.00     0.259 C 
HETATM   14  O1  UNK     1      32.841  -4.894  39.042  1.00  0.00    -0.267 OA
HETATM   15  N1  UNK     1      33.041  -6.101  37.056  1.00  0.00    -0.348 N 
HETATM   16  C6  UNK     1      32.474  -7.033  36.068  1.00  0.00     0.126 C 
HETATM   17  C7  UNK     1      34.479  -5.822  36.971  1.00  0.00     0.126 C 
HETATM   18  C4  UNK     1      31.633  -6.349  34.985  1.00  0.00     0.020 C 
HETATM   19  C2  UNK     1      32.391  -5.427  34.024  1.00  0.00     0.002 C 
HETATM   20  C1  UNK     1      32.979  -4.179  34.687  1.00  0.00     0.000 C 
HETATM   21  C3  UNK     1      34.486  -4.238  34.940  1.00  0.00     0.002 C 
HETATM   22  C5  UNK     1      35.030  -5.513  35.580  1.00  0.00     0.020 C 
ENDBRANCH   4  13
TORSDOF 1
ENDMDL
MODEL 3
REMARK VINA RESULT:      -7.6      4.674      6.408
REMARK  1 active torsions:
REMARK  status: ('A' for Active; 'I' for Inactive)
REMARK       I    between atoms: C8_13  and  N1_5 
REMARK    1  A    between atoms: C8_13  and  C9_14 
ROOT
HETATM    1 Cl1  UNK     1      16.806  -0.659  35.472  1.00  0.00    -0.084 Cl
HETATM    2  O2  UNK     1      21.458  -3.978  36.933  1.00  0.00    -0.274 OA
HETATM    3  O3  UNK     1      22.326  -5.920  37.767  1.00  0.00    -0.259 OA
HETATM    4  C9  UNK     1      19.964  -5.766  37.673  1.00  0.00     0.108 A 
HETATM    5  C10 UNK     1      18.888  -5.038  37.351  1.00  0.00     0.037 A 
HETATM    6  C11 UNK     1      19.046  -3.706  36.789  1.00  0.00     0.001 A 
HETATM    7  C12 UNK     1      21.338  -5.255  37.473  1.00  0.00     0.304 A 
HETATM    8  C13 UNK     1      20.329  -3.205  36.594  1.00  0.00     0.089 A 
HETATM    9  C14 UNK     1      17.952  -2.911  36.439  1.00  0.00     0.038 A 
HETATM   10  C15 UNK     1      20.549  -1.938  36.058  1.00  0.00     0.040 A 
HETATM   11  C16 UNK     1      18.158  -1.636  35.902  1.00  0.00     0.035 A 
HETATM   12  C17 UNK     1      19.453  -1.152  35.712  1.00  0.00     0.026 A 
ENDROOT
BRANCH   4  13
HETATM   13  C8  UNK     1      19.700  -7.106  38.237  1.00  0.00     0.259 C 
HETATM   14  O1  UNK     1      19.744  -7.219  39.464  1.00  0.00    -0.267 OA
HETATM   15  N1  UNK     1      19.416  -8.154  37.352  1.00  0.00    -0.348 N 
HETATM   16  C6  UNK     1      19.219  -7.991  35.903  1.00  0.00     0.126 C 
HETATM   17  C7  UNK     1      19.154  -9.480  37.923  1.00  0.00     0.126 C 
HETATM   18  C4  UNK     1      20.526  -7.893  35.109  1.00  0.00     0.020 C 
HETATM   19  C2  UNK     1      21.396  -9.154  35.084  1.00  0.00     0.002 C 
HETATM   20  C1  UNK     1      21.979  -9.541  36.445  1.00  0.00     0.000 C 
HETATM   21  C3  UNK     1      21.275 -10.711  37.134  1.00  0.00     0.002 C 
HETATM   22  C5  UNK     1      19.748 -10.672  37.175  1.00  0.00     0.020 C 
ENDBRANCH   4  13
TORSDOF 1
ENDMDL
MODEL 4
REMARK VINA RESULT:      -7.4      7.158      8.805
REMARK  1 active torsions:
REMARK  status: ('A' for Active; 'I' for Inactive)
REMARK       I    between atoms: C8_13  and  N1_5 
REMARK    1  A    between atoms: C8_13  and  C9_14 
ROOT
HETATM    1 Cl1  UNK     1      35.329  -5.457  36.450  1.00  0.00    -0.084 Cl
HETATM    2  O2  UNK     1      29.478  -6.144  36.738  1.00  0.00    -0.274 OA
HETATM    3  O3  UNK     1      27.525  -6.916  35.839  1.00  0.00    -0.259 OA
HETATM    4  C9  UNK     1      29.498  -7.313  34.591  1.00  0.00     0.108 A 
HETATM    5  C10 UNK     1      30.826  -7.173  34.496  1.00  0.00     0.037 A 
HETATM    6  C11 UNK     1      31.568  -6.493  35.546  1.00  0.00     0.001 A 
HETATM    7  C12 UNK     1      28.741  -6.790  35.750  1.00  0.00     0.304 A 
HETATM    8  C13 UNK     1      30.876  -5.993  36.644  1.00  0.00     0.089 A 
HETATM    9  C14 UNK     1      32.954  -6.325  35.489  1.00  0.00     0.038 A 
HETATM   10  C15 UNK     1      31.528  -5.333  37.684  1.00  0.00     0.040 A 
HETATM   11  C16 UNK     1      33.621  -5.663  36.524  1.00  0.00     0.035 A 
HETATM   12  C17 UNK     1      32.909  -5.170  37.619  1.00  0.00     0.026 A 
ENDROOT
BRANCH   4  13
HETATM   13  C8  UNK     1      28.834  -8.017  33.474  1.00  0.00     0.259 C 
HETATM   14  O1  UNK     1      28.814  -9.249  33.518  1.00  0.00    -0.267 OA
HETATM   15  N1  UNK     1      28.273  -7.249  32.447  1.00  0.00    -0.348 N 
HETATM   16  C6  UNK     1      28.167  -5.781  32.465  1.00  0.00     0.126 C 
HETATM   17  C7  UNK     1      27.613  -7.958  31.344  1.00  0.00     0.126 C 
HETATM   18  C4  UNK     1      29.462  -5.064  32.069  1.00  0.00     0.020 C 
HETATM   19  C2  UNK     1      29.918  -5.246  30.618  1.00  0.00     0.002 C 
HETATM   20  C1  UNK     1      30.326  -6.678  30.264  1.00  0.00     0.000 C 
HETATM   21  C3  UNK     1      29.290  -7.457  29.453  1.00  0.00     0.002 C 
HETATM   22  C5  UNK     1      27.844  -7.398  29.942  1.00  0.00     0.020 C 
ENDBRANCH   4  13
TORSDOF 1
ENDMDL
MODEL 5
REMARK VINA RESULT:      -7.4      2.644      3.736
REMARK  1 active torsions:
REMARK  status: ('A' for Active; 'I' for Inactive)
REMARK       I    between atoms: C8_13  and  N1_5 
REMARK    1  A    between atoms: C8_13  and  C9_14 
ROOT
HETATM    1 Cl1  UNK     1      27.982  -7.224  39.785  1.00  0.00    -0.084 Cl
HETATM    2  O2  UNK     1      24.946 -10.963  36.379  1.00  0.00    -0.274 OA
HETATM    3  O3  UNK     1      23.045 -11.505  35.233  1.00  0.00    -0.259 OA
HETATM    4  C9  UNK     1      23.044  -9.426  36.369  1.00  0.00     0.108 A 
HETATM    5  C10 UNK     1      23.707  -8.557  37.141  1.00  0.00     0.037 A 
HETATM    6  C11 UNK     1      25.060  -8.855  37.584  1.00  0.00     0.001 A 
HETATM    7  C12 UNK     1      23.650 -10.706  35.940  1.00  0.00     0.304 A 
HETATM    8  C13 UNK     1      25.649 -10.052  37.193  1.00  0.00     0.089 A 
HETATM    9  C14 UNK     1      25.789  -7.977  38.391  1.00  0.00     0.038 A 
HETATM   10  C15 UNK     1      26.942 -10.396  37.582  1.00  0.00     0.040 A 
HETATM   11  C16 UNK     1      27.087  -8.309  38.790  1.00  0.00     0.035 A 
HETATM   12  C17 UNK     1      27.662  -9.515  38.386  1.00  0.00     0.026 A 
ENDROOT
BRANCH   4  13
HETATM   13  C8  UNK     1      21.676  -9.035  35.971  1.00  0.00     0.259 C 
HETATM   14  O1  UNK     1      21.527  -8.582  34.834  1.00  0.00    -0.267 OA
HETATM   15  N1  UNK     1      20.642  -9.205  36.901  1.00  0.00    -0.348 N 
HETATM   16  C6  UNK     1      20.790  -9.879  38.200  1.00  0.00     0.126 C 
HETATM   17  C7  UNK     1      19.286  -8.815  36.495  1.00  0.00     0.126 C 
HETATM   18  C4  UNK     1      21.402  -8.992  39.290  1.00  0.00     0.020 C 
HETATM   19  C2  UNK     1      20.555  -7.799  39.744  1.00  0.00     0.002 C 
HETATM   20  C1  UNK     1      20.345  -6.733  38.666  1.00  0.00     0.000 C 
HETATM   21  C3  UNK     1      18.965  -6.753  38.006  1.00  0.00     0.002 C 
HETATM   22  C5  UNK     1      18.436  -8.112  37.552  1.00  0.00     0.020 C 
ENDBRANCH   4  13
TORSDOF 1
ENDMDL
MODEL 6
REMARK VINA RESULT:      -7.3      8.213     10.199
REMARK  1 active torsions:
REMARK  status: ('A' for Active; 'I' for Inactive)
REMARK       I    between atoms: C8_13  and  N1_5 
REMARK    1  A    between atoms: C8_13  and  C9_14 
ROOT
HETATM    1 Cl1  UNK     1      25.566  -6.325  29.758  1.00  0.00    -0.084 Cl
HETATM    2  O2  UNK     1      30.185  -8.610  32.626  1.00  0.00    -0.274 OA
HETATM    3  O3  UNK     1      31.915  -8.383  34.102  1.00  0.00    -0.259 OA
HETATM    4  C9  UNK     1      30.572  -6.466  33.735  1.00  0.00     0.108 A 
HETATM    5  C10 UNK     1      29.529  -5.918  33.099  1.00  0.00     0.037 A 
HETATM    6  C11 UNK     1      28.740  -6.710  32.169  1.00  0.00     0.001 A 
HETATM    7  C12 UNK     1      30.960  -7.878  33.521  1.00  0.00     0.304 A 
HETATM    8  C13 UNK     1      29.087  -8.039  31.953  1.00  0.00     0.089 A 
HETATM    9  C14 UNK     1      27.644  -6.179  31.485  1.00  0.00     0.038 A 
HETATM   10  C15 UNK     1      28.371  -8.852  31.077  1.00  0.00     0.040 A 
HETATM   11  C16 UNK     1      26.917  -6.982  30.600  1.00  0.00     0.035 A 
HETATM   12  C17 UNK     1      27.280  -8.315  30.398  1.00  0.00     0.026 A 
ENDROOT
BRANCH   4  13
HETATM   13  C8  UNK     1      31.312  -5.581  34.659  1.00  0.00     0.259 C 
HETATM   14  O1  UNK     1      32.284  -4.976  34.202  1.00  0.00    -0.267 OA
HETATM   15  N1  UNK     1      30.866  -5.484  35.983  1.00  0.00    -0.348 N 
HETATM   16  C6  UNK     1      29.624  -6.089  36.491  1.00  0.00     0.126 C 
HETATM   17  C7  UNK     1      31.606  -4.601  36.892  1.00  0.00     0.126 C 
HETATM   18  C4  UNK     1      29.752  -7.581  36.817  1.00  0.00     0.020 C 
HETATM   19  C2  UNK     1      30.678  -7.939  37.983  1.00  0.00     0.002 C 
HETATM   20  C1  UNK     1      32.155  -7.628  37.730  1.00  0.00     0.000 C 
HETATM   21  C3  UNK     1      32.674  -6.371  38.429  1.00  0.00     0.002 C 
HETATM   22  C5  UNK     1      31.815  -5.113  38.316  1.00  0.00     0.020 C 
ENDBRANCH   4  13
TORSDOF 1
ENDMDL
MODEL 7
REMARK VINA RESULT:      -7.3      5.712      9.755
REMARK  1 active torsions:
REMARK  status: ('A' for Active; 'I' for Inactive)
REMARK       I    between atoms: C8_13  and  N1_5 
REMARK    1  A    between atoms: C8_13  and  C9_14 
ROOT
HETATM    1 Cl1  UNK     1      24.552  -8.079  39.076  1.00  0.00    -0.084 Cl
HETATM    2  O2  UNK     1      30.167  -9.556  38.039  1.00  0.00    -0.274 OA
HETATM    3  O3  UNK     1      32.123  -9.244  36.899  1.00  0.00    -0.259 OA
HETATM    4  C9  UNK     1      30.322  -7.814  36.331  1.00  0.00     0.108 A 
HETATM    5  C10 UNK     1      29.050  -7.455  36.543  1.00  0.00     0.037 A 
HETATM    6  C11 UNK     1      28.250  -8.148  37.541  1.00  0.00     0.001 A 
HETATM    7  C12 UNK     1      30.958  -8.913  37.091  1.00  0.00     0.304 A 
HETATM    8  C13 UNK     1      28.828  -9.184  38.267  1.00  0.00     0.089 A 
HETATM    9  C14 UNK     1      26.919  -7.806  37.795  1.00  0.00     0.038 A 
HETATM   10  C15 UNK     1      28.116  -9.885  39.238  1.00  0.00     0.040 A 
HETATM   11  C16 UNK     1      26.192  -8.503  38.766  1.00  0.00     0.035 A 
HETATM   12  C17 UNK     1      26.791  -9.539  39.485  1.00  0.00     0.026 A 
ENDROOT
BRANCH   4  13
HETATM   13  C8  UNK     1      31.052  -7.052  35.296  1.00  0.00     0.259 C 
HETATM   14  O1  UNK     1      31.022  -7.493  34.145  1.00  0.00    -0.267 OA
HETATM   15  N1  UNK     1      31.724  -5.886  35.683  1.00  0.00    -0.348 N 
HETATM   16  C6  UNK     1      31.640  -5.280  37.022  1.00  0.00     0.126 C 
HETATM   17  C7  UNK     1      32.443  -5.135  34.648  1.00  0.00     0.126 C 
HETATM   18  C4  UNK     1      32.545  -5.949  38.061  1.00  0.00     0.020 C 
HETATM   19  C2  UNK     1      34.054  -5.803  37.835  1.00  0.00     0.002 C 
HETATM   20  C1  UNK     1      34.571  -6.513  36.581  1.00  0.00     0.000 C 
HETATM   21  C3  UNK     1      34.866  -5.590  35.398  1.00  0.00     0.002 C 
HETATM   22  C5  UNK     1      33.799  -4.555  35.048  1.00  0.00     0.020 C 
ENDBRANCH   4  13
TORSDOF 1
ENDMDL
MODEL 8
REMARK VINA RESULT:      -7.3     14.686     16.479
REMARK  1 active torsions:
REMARK  status: ('A' for Active; 'I' for Inactive)
REMARK       I    between atoms: C8_13  and  N1_5 
REMARK    1  A    between atoms: C8_13  and  C9_14 
ROOT
HETATM    1 Cl1  UNK     1      17.987  -0.162  34.242  1.00  0.00    -0.084 Cl
HETATM    2  O2  UNK     1      18.976   4.434  30.681  1.00  0.00    -0.274 OA
HETATM    3  O3  UNK     1      19.067   6.691  30.333  1.00  0.00    -0.259 OA
HETATM    4  C9  UNK     1      18.459   5.975  32.507  1.00  0.00     0.108 A 
HETATM    5  C10 UNK     1      18.228   4.953  33.340  1.00  0.00     0.037 A 
HETATM    6  C11 UNK     1      18.362   3.583  32.873  1.00  0.00     0.001 A 
HETATM    7  C12 UNK     1      18.855   5.757  31.098  1.00  0.00     0.304 A 
HETATM    8  C13 UNK     1      18.733   3.355  31.552  1.00  0.00     0.089 A 
HETATM    9  C14 UNK     1      18.131   2.486  33.708  1.00  0.00     0.038 A 
HETATM   10  C15 UNK     1      18.881   2.066  31.043  1.00  0.00     0.040 A 
HETATM   11  C16 UNK     1      18.274   1.187  33.210  1.00  0.00     0.035 A 
HETATM   12  C17 UNK     1      18.649   0.978  31.882  1.00  0.00     0.026 A 
ENDROOT
BRANCH   4  13
HETATM   13  C8  UNK     1      18.295   7.330  33.074  1.00  0.00     0.259 C 
HETATM   14  O1  UNK     1      19.103   7.681  33.937  1.00  0.00    -0.267 OA
HETATM   15  N1  UNK     1      17.245   8.125  32.598  1.00  0.00    -0.348 N 
HETATM   16  C6  UNK     1      16.373   7.767  31.469  1.00  0.00     0.126 C 
HETATM   17  C7  UNK     1      17.093   9.470  33.166  1.00  0.00     0.126 C 
HETATM   18  C4  UNK     1      15.249   6.794  31.841  1.00  0.00     0.020 C 
HETATM   19  C2  UNK     1      14.180   7.332  32.797  1.00  0.00     0.002 C 
HETATM   20  C1  UNK     1      14.696   7.641  34.204  1.00  0.00     0.000 C 
HETATM   21  C3  UNK     1      14.912   9.128  34.494  1.00  0.00     0.002 C 
HETATM   22  C5  UNK     1      15.664   9.935  33.438  1.00  0.00     0.020 C 
ENDBRANCH   4  13
TORSDOF 1
ENDMDL
MODEL 9
REMARK VINA RESULT:      -7.2     10.003     11.694
REMARK  1 active torsions:
REMARK  status: ('A' for Active; 'I' for Inactive)
REMARK       I    between atoms: C8_13  and  N1_5 
REMARK    1  A    between atoms: C8_13  and  C9_14 
ROOT
HETATM    1 Cl1  UNK     1      30.722 -15.381  33.071  1.00  0.00    -0.084 Cl
HETATM    2  O2  UNK     1      32.978 -11.266  29.499  1.00  0.00    -0.274 OA
HETATM    3  O3  UNK     1      33.226  -9.073  28.906  1.00  0.00    -0.259 OA
HETATM    4  C9  UNK     1      31.882  -9.514  30.806  1.00  0.00     0.108 A 
HETATM    5  C10 UNK     1      31.355 -10.424  31.634  1.00  0.00     0.037 A 
HETATM    6  C11 UNK     1      31.620 -11.840  31.431  1.00  0.00     0.001 A 
HETATM    7  C12 UNK     1      32.742  -9.904  29.667  1.00  0.00     0.304 A 
HETATM    8  C13 UNK     1      32.426 -12.228  30.366  1.00  0.00     0.089 A 
HETATM    9  C14 UNK     1      31.092 -12.823  32.271  1.00  0.00     0.038 A 
HETATM   10  C15 UNK     1      32.719 -13.568  30.119  1.00  0.00     0.040 A 
HETATM   11  C16 UNK     1      31.376 -14.172  32.033  1.00  0.00     0.035 A 
HETATM   12  C17 UNK     1      32.188 -14.542  30.960  1.00  0.00     0.026 A 
ENDROOT
BRANCH   4  13
HETATM   13  C8  UNK     1      31.555  -8.102  31.094  1.00  0.00     0.259 C 
HETATM   14  O1  UNK     1      32.192  -7.549  31.993  1.00  0.00    -0.267 OA
HETATM   15  N1  UNK     1      30.555  -7.485  30.332  1.00  0.00    -0.348 N 
HETATM   16  C6  UNK     1      29.899  -8.096  29.165  1.00  0.00     0.126 C 
HETATM   17  C7  UNK     1      30.240  -6.081  30.624  1.00  0.00     0.126 C 
HETATM   18  C4  UNK     1      28.784  -9.082  29.529  1.00  0.00     0.020 C 
HETATM   19  C2  UNK     1      27.546  -8.482  30.202  1.00  0.00     0.002 C 
HETATM   20  C1  UNK     1      27.809  -7.902  31.594  1.00  0.00     0.000 C 
HETATM   21  C3  UNK     1      27.893  -6.376  31.647  1.00  0.00     0.002 C 
HETATM   22  C5  UNK     1      28.762  -5.696  30.590  1.00  0.00     0.020 C 
ENDBRANCH   4  13
TORSDOF 1
ENDMDL
MODEL 10
REMARK VINA RESULT:      -7.2     33.772     35.103
REMARK  1 active torsions:
REMARK  status: ('A' for Active; 'I' for Inactive)
REMARK       I    between atoms: C8_13  and  N1_5 
REMARK    1  A    between atoms: C8_13  and  C9_14 
ROOT
HETATM    1 Cl1  UNK     1      17.551  13.169   6.950  1.00  0.00    -0.084 Cl
HETATM    2  O2  UNK     1      15.914   8.496  10.154  1.00  0.00    -0.274 OA
HETATM    3  O3  UNK     1      14.279   7.128  10.976  1.00  0.00    -0.259 OA
HETATM    4  C9  UNK     1      13.571   8.926   9.607  1.00  0.00     0.108 A 
HETATM    5  C10 UNK     1      13.910   9.993   8.872  1.00  0.00     0.037 A 
HETATM    6  C11 UNK     1      15.307  10.375   8.738  1.00  0.00     0.001 A 
HETATM    7  C12 UNK     1      14.587   8.105  10.302  1.00  0.00     0.304 A 
HETATM    8  C13 UNK     1      16.278   9.617   9.383  1.00  0.00     0.089 A 
HETATM    9  C14 UNK     1      15.707  11.480   7.981  1.00  0.00     0.038 A 
HETATM   10  C15 UNK     1      17.633   9.930   9.293  1.00  0.00     0.040 A 
HETATM   11  C16 UNK     1      17.063  11.807   7.883  1.00  0.00     0.035 A 
HETATM   12  C17 UNK     1      18.023  11.032   8.537  1.00  0.00     0.026 A 
ENDROOT
BRANCH   4  13
HETATM   13  C8  UNK     1      12.128   8.619   9.683  1.00  0.00     0.259 C 
HETATM   14  O1  UNK     1      11.499   9.096  10.630  1.00  0.00    -0.267 OA
HETATM   15  N1  UNK     1      11.568   7.814   8.682  1.00  0.00    -0.348 N 
HETATM   16  C6  UNK     1      12.281   7.367   7.476  1.00  0.00     0.126 C 
HETATM   17  C7  UNK     1      10.133   7.516   8.766  1.00  0.00     0.126 C 
HETATM   18  C4  UNK     1      13.192   6.157   7.709  1.00  0.00     0.020 C 
HETATM   19  C2  UNK     1      12.490   4.842   8.064  1.00  0.00     0.002 C 
HETATM   20  C1  UNK     1      11.772   4.859   9.416  1.00  0.00     0.000 C 
HETATM   21  C3  UNK     1      10.252   5.006   9.332  1.00  0.00     0.002 C 
HETATM   22  C5  UNK     1       9.713   6.093   8.404  1.00  0.00     0.020 C 
ENDBRANCH   4  13
TORSDOF 1
ENDMDL
