MODEL 1
REMARK VINA RESULT:      -9.3      0.000      0.000
REMARK  2 active torsions:
REMARK  status: ('A' for Active; 'I' for Inactive)
REMARK    1  A    between atoms: C4_7  and  N1_3 
REMARK    2  A    between atoms: C4_7  and  C7_10 
ROOT
HETATM    1  O1  UNK     1      18.895   0.173  33.506  1.00  0.00    -0.275 OA
HETATM    2  O2  UNK     1      18.193   1.042  35.502  1.00  0.00    -0.260 OA
HETATM    3  C7  UNK     1      18.215   2.643  32.305  1.00  0.00    -0.011 A 
HETATM    4  C8  UNK     1      18.772   1.553  31.494  1.00  0.00     0.012 A 
HETATM    5  C11 UNK     1      19.003   1.647  30.115  1.00  0.00    -0.048 A 
HETATM    6  C12 UNK     1      19.096   0.348  32.123  1.00  0.00     0.091 A 
HETATM    7  C13 UNK     1      18.035   2.448  33.619  1.00  0.00     0.092 A 
HETATM    8  C16 UNK     1      19.538   0.568  29.402  1.00  0.00     0.014 A 
HETATM    9  C17 UNK     1      19.630  -0.737  31.426  1.00  0.00     0.045 A 
HETATM   10  C18 UNK     1      19.850  -0.623  30.057  1.00  0.00    -0.059 A 
HETATM   11  C19 UNK     1      18.371   1.184  34.297  1.00  0.00     0.288 A 
HETATM   12  C20 UNK     1      18.718   2.859  29.285  1.00  0.00     0.049 C 
HETATM   13  C21 UNK     1      20.422  -1.768  29.294  1.00  0.00     0.048 C 
ENDROOT
BRANCH   3  14
HETATM   14  C4  UNK     1      17.832   3.965  31.737  1.00  0.00     0.312 C 
BRANCH  14  15
HETATM   15  N1  UNK     1      18.336   5.079  32.540  1.00  0.00     0.097 N 
HETATM   16  C1  UNK     1      19.707   5.427  32.147  1.00  0.00     0.277 C 
HETATM   17  C3  UNK     1      20.287   6.447  33.131  1.00  0.00     0.069 C 
HETATM   18  C6  UNK     1      19.352   7.597  33.402  1.00  0.00    -0.049 A 
HETATM   19  C10 UNK     1      19.830   8.760  34.018  1.00  0.00     0.007 A 
HETATM   20  C5  UNK     1      17.986   7.485  33.093  1.00  0.00    -0.024 A 
HETATM   21  C15 UNK     1      18.963   9.815  34.303  1.00  0.00     0.001 A 
HETATM   22  C14 UNK     1      17.612   9.713  33.978  1.00  0.00     0.001 A 
HETATM   23  C9  UNK     1      17.124   8.555  33.373  1.00  0.00     0.009 A 
HETATM   24  C2  UNK     1      17.453   6.251  32.401  1.00  0.00     0.311 C 
ENDBRANCH  14  15
ENDBRANCH   3  14
TORSDOF 2
ENDMDL
MODEL 2
REMARK VINA RESULT:      -8.6      6.328     11.009
REMARK  2 active torsions:
REMARK  status: ('A' for Active; 'I' for Inactive)
REMARK    1  A    between atoms: C4_7  and  N1_3 
REMARK    2  A    between atoms: C4_7  and  C7_10 
ROOT
HETATM    1  O1  UNK     1      18.244  -0.799  33.277  1.00  0.00    -0.275 OA
HETATM    2  O2  UNK     1      19.676  -1.670  31.721  1.00  0.00    -0.260 OA
HETATM    3  C7  UNK     1      19.710  -2.189  35.257  1.00  0.00    -0.011 A 
HETATM    4  C8  UNK     1      18.555  -1.363  35.633  1.00  0.00     0.012 A 
HETATM    5  C11 UNK     1      18.106  -1.205  36.951  1.00  0.00    -0.048 A 
HETATM    6  C12 UNK     1      17.856  -0.693  34.627  1.00  0.00     0.091 A 
HETATM    7  C13 UNK     1      20.056  -2.272  33.966  1.00  0.00     0.092 A 
HETATM    8  C16 UNK     1      16.996  -0.401  37.239  1.00  0.00     0.014 A 
HETATM    9  C17 UNK     1      16.748   0.112  34.897  1.00  0.00     0.045 A 
HETATM   10  C18 UNK     1      16.318   0.256  36.213  1.00  0.00    -0.059 A 
HETATM   11  C19 UNK     1      19.330  -1.570  32.893  1.00  0.00     0.288 A 
HETATM   12  C20 UNK     1      18.735  -1.846  38.148  1.00  0.00     0.049 C 
HETATM   13  C21 UNK     1      15.138   1.112  36.525  1.00  0.00     0.048 C 
ENDROOT
BRANCH   3  14
HETATM   14  C4  UNK     1      20.522  -2.949  36.248  1.00  0.00     0.312 C 
BRANCH  14  15
HETATM   15  N1  UNK     1      19.922  -4.242  36.578  1.00  0.00     0.097 N 
HETATM   16  C1  UNK     1      19.974  -5.150  35.425  1.00  0.00     0.277 C 
HETATM   17  C3  UNK     1      19.161  -6.414  35.722  1.00  0.00     0.069 C 
HETATM   18  C6  UNK     1      19.483  -7.014  37.067  1.00  0.00    -0.049 A 
HETATM   19  C10 UNK     1      19.075  -8.320  37.367  1.00  0.00     0.007 A 
HETATM   20  C5  UNK     1      20.137  -6.247  38.045  1.00  0.00    -0.024 A 
HETATM   21  C15 UNK     1      19.338  -8.870  38.622  1.00  0.00     0.001 A 
HETATM   22  C14 UNK     1      20.006  -8.118  39.586  1.00  0.00     0.001 A 
HETATM   23  C9  UNK     1      20.407  -6.813  39.299  1.00  0.00     0.009 A 
HETATM   24  C2  UNK     1      20.611  -4.846  37.733  1.00  0.00     0.311 C 
ENDBRANCH  14  15
ENDBRANCH   3  14
TORSDOF 2
ENDMDL
MODEL 3
REMARK VINA RESULT:      -8.3      3.119      8.278
REMARK  2 active torsions:
REMARK  status: ('A' for Active; 'I' for Inactive)
REMARK    1  A    between atoms: C4_7  and  N1_3 
REMARK    2  A    between atoms: C4_7  and  C7_10 
ROOT
HETATM    1  O1  UNK     1      14.349   8.740  32.864  1.00  0.00    -0.275 OA
HETATM    2  O2  UNK     1      13.423   6.879  31.912  1.00  0.00    -0.260 OA
HETATM    3  C7  UNK     1      16.851   7.423  32.768  1.00  0.00    -0.011 A 
HETATM    4  C8  UNK     1      16.749   8.780  33.320  1.00  0.00     0.012 A 
HETATM    5  C11 UNK     1      17.841   9.502  33.821  1.00  0.00    -0.048 A 
HETATM    6  C12 UNK     1      15.497   9.398  33.351  1.00  0.00     0.091 A 
HETATM    7  C13 UNK     1      15.743   6.822  32.312  1.00  0.00     0.092 A 
HETATM    8  C16 UNK     1      17.672  10.793  34.333  1.00  0.00     0.014 A 
HETATM    9  C17 UNK     1      15.312  10.685  33.858  1.00  0.00     0.045 A 
HETATM   10  C18 UNK     1      16.409  11.384  34.352  1.00  0.00    -0.059 A 
HETATM   11  C19 UNK     1      14.416   7.460  32.338  1.00  0.00     0.288 A 
HETATM   12  C20 UNK     1      19.248   8.997  33.863  1.00  0.00     0.049 C 
HETATM   13  C21 UNK     1      16.235  12.760  34.896  1.00  0.00     0.048 C 
ENDROOT
BRANCH   3  14
HETATM   14  C4  UNK     1      18.135   6.672  32.691  1.00  0.00     0.312 C 
BRANCH  14  15
HETATM   15  N1  UNK     1      17.929   5.224  32.703  1.00  0.00     0.097 N 
HETATM   16  C1  UNK     1      18.599   4.592  31.559  1.00  0.00     0.277 C 
HETATM   17  C3  UNK     1      18.201   3.115  31.474  1.00  0.00     0.069 C 
HETATM   18  C6  UNK     1      18.311   2.402  32.797  1.00  0.00    -0.049 A 
HETATM   19  C10 UNK     1      18.291   1.002  32.842  1.00  0.00     0.007 A 
HETATM   20  C5  UNK     1      18.373   3.136  33.993  1.00  0.00    -0.024 A 
HETATM   21  C15 UNK     1      18.357   0.335  34.066  1.00  0.00     0.001 A 
HETATM   22  C14 UNK     1      18.440   1.062  35.251  1.00  0.00     0.001 A 
HETATM   23  C9  UNK     1      18.451   2.456  35.217  1.00  0.00     0.009 A 
HETATM   24  C2  UNK     1      18.425   4.646  33.966  1.00  0.00     0.311 C 
ENDBRANCH  14  15
ENDBRANCH   3  14
TORSDOF 2
ENDMDL
MODEL 4
REMARK VINA RESULT:      -8.3      1.806      3.041
REMARK  2 active torsions:
REMARK  status: ('A' for Active; 'I' for Inactive)
REMARK    1  A    between atoms: C4_7  and  N1_3 
REMARK    2  A    between atoms: C4_7  and  C7_10 
ROOT
HETATM    1  O1  UNK     1      17.982   2.244  33.092  1.00  0.00    -0.275 OA
HETATM    2  O2  UNK     1      17.947   2.568  35.355  1.00  0.00    -0.260 OA
HETATM    3  C7  UNK     1      18.846   4.925  32.823  1.00  0.00    -0.011 A 
HETATM    4  C8  UNK     1      18.653   4.086  31.633  1.00  0.00     0.012 A 
HETATM    5  C11 UNK     1      18.874   4.530  30.323  1.00  0.00    -0.048 A 
HETATM    6  C12 UNK     1      18.226   2.768  31.806  1.00  0.00     0.091 A 
HETATM    7  C13 UNK     1      18.607   4.401  34.033  1.00  0.00     0.092 A 
HETATM    8  C16 UNK     1      18.671   3.675  29.233  1.00  0.00     0.014 A 
HETATM    9  C17 UNK     1      18.019   1.903  30.730  1.00  0.00     0.045 A 
HETATM   10  C18 UNK     1      18.243   2.364  29.437  1.00  0.00    -0.059 A 
HETATM   11  C19 UNK     1      18.156   3.013  34.232  1.00  0.00     0.288 A 
HETATM   12  C20 UNK     1      19.334   5.905  29.955  1.00  0.00     0.049 C 
HETATM   13  C21 UNK     1      18.030   1.457  28.273  1.00  0.00     0.048 C 
ENDROOT
BRANCH   3  14
HETATM   14  C4  UNK     1      19.294   6.344  32.753  1.00  0.00     0.312 C 
BRANCH  14  15
HETATM   15  N1  UNK     1      18.360   7.252  33.419  1.00  0.00     0.097 N 
HETATM   16  C1  UNK     1      18.987   8.557  33.663  1.00  0.00     0.277 C 
HETATM   17  C3  UNK     1      18.073   9.417  34.541  1.00  0.00     0.069 C 
HETATM   18  C6  UNK     1      16.646   9.436  34.057  1.00  0.00    -0.049 A 
HETATM   19  C10 UNK     1      15.754  10.401  34.542  1.00  0.00     0.007 A 
HETATM   20  C5  UNK     1      16.188   8.450  33.167  1.00  0.00    -0.024 A 
HETATM   21  C15 UNK     1      14.423  10.403  34.125  1.00  0.00     0.001 A 
HETATM   22  C14 UNK     1      13.973   9.439  33.226  1.00  0.00     0.001 A 
HETATM   23  C9  UNK     1      14.851   8.468  32.745  1.00  0.00     0.009 A 
HETATM   24  C2  UNK     1      17.140   7.417  32.609  1.00  0.00     0.311 C 
ENDBRANCH  14  15
ENDBRANCH   3  14
TORSDOF 2
ENDMDL
MODEL 5
REMARK VINA RESULT:      -8.3     14.164     16.502
REMARK  2 active torsions:
REMARK  status: ('A' for Active; 'I' for Inactive)
REMARK    1  A    between atoms: C4_7  and  N1_3 
REMARK    2  A    between atoms: C4_7  and  C7_10 
ROOT
HETATM    1  O1  UNK     1      28.345  -5.678  39.666  1.00  0.00    -0.275 OA
HETATM    2  O2  UNK     1      29.036  -3.504  39.505  1.00  0.00    -0.260 OA
HETATM    3  C7  UNK     1      30.402  -6.361  37.848  1.00  0.00    -0.011 A 
HETATM    4  C8  UNK     1      29.513  -7.400  38.385  1.00  0.00     0.012 A 
HETATM    5  C11 UNK     1      29.610  -8.757  38.053  1.00  0.00    -0.048 A 
HETATM    6  C12 UNK     1      28.509  -7.023  39.280  1.00  0.00     0.091 A 
HETATM    7  C13 UNK     1      30.223  -5.090  38.233  1.00  0.00     0.092 A 
HETATM    8  C16 UNK     1      28.728  -9.695  38.603  1.00  0.00     0.014 A 
HETATM    9  C17 UNK     1      27.621  -7.946  39.837  1.00  0.00     0.045 A 
HETATM   10  C18 UNK     1      27.735  -9.289  39.493  1.00  0.00    -0.059 A 
HETATM   11  C19 UNK     1      29.170  -4.677  39.176  1.00  0.00     0.288 A 
HETATM   12  C20 UNK     1      30.623  -9.334  37.116  1.00  0.00     0.049 C 
HETATM   13  C21 UNK     1      26.799 -10.292  40.078  1.00  0.00     0.048 C 
ENDROOT
BRANCH   3  14
HETATM   14  C4  UNK     1      31.501  -6.652  36.885  1.00  0.00     0.312 C 
BRANCH  14  15
HETATM   15  N1  UNK     1      31.199  -6.166  35.539  1.00  0.00     0.097 N 
HETATM   16  C1  UNK     1      32.228  -6.599  34.585  1.00  0.00     0.277 C 
HETATM   17  C3  UNK     1      32.008  -5.911  33.235  1.00  0.00     0.069 C 
HETATM   18  C6  UNK     1      30.579  -5.990  32.764  1.00  0.00    -0.049 A 
HETATM   19  C10 UNK     1      30.262  -5.697  31.431  1.00  0.00     0.007 A 
HETATM   20  C5  UNK     1      29.551  -6.296  33.671  1.00  0.00    -0.024 A 
HETATM   21  C15 UNK     1      28.937  -5.734  30.997  1.00  0.00     0.001 A 
HETATM   22  C14 UNK     1      27.920  -6.059  31.891  1.00  0.00     0.001 A 
HETATM   23  C9  UNK     1      28.224  -6.342  33.222  1.00  0.00     0.009 A 
HETATM   24  C2  UNK     1      29.873  -6.643  35.107  1.00  0.00     0.311 C 
ENDBRANCH  14  15
ENDBRANCH   3  14
TORSDOF 2
ENDMDL
MODEL 6
REMARK VINA RESULT:      -8.2     14.308     16.542
REMARK  2 active torsions:
REMARK  status: ('A' for Active; 'I' for Inactive)
REMARK    1  A    between atoms: C4_7  and  N1_3 
REMARK    2  A    between atoms: C4_7  and  C7_10 
ROOT
HETATM    1  O1  UNK     1      29.447  -6.820  35.274  1.00  0.00    -0.275 OA
HETATM    2  O2  UNK     1      29.351  -8.092  33.376  1.00  0.00    -0.260 OA
HETATM    3  C7  UNK     1      27.967  -8.844  36.585  1.00  0.00    -0.011 A 
HETATM    4  C8  UNK     1      28.385  -7.641  37.316  1.00  0.00     0.012 A 
HETATM    5  C11 UNK     1      28.095  -7.410  38.667  1.00  0.00    -0.048 A 
HETATM    6  C12 UNK     1      29.114  -6.664  36.635  1.00  0.00     0.091 A 
HETATM    7  C13 UNK     1      28.299  -8.967  35.292  1.00  0.00     0.092 A 
HETATM    8  C16 UNK     1      28.525  -6.239  39.302  1.00  0.00     0.014 A 
HETATM    9  C17 UNK     1      29.549  -5.491  37.253  1.00  0.00     0.045 A 
HETATM   10  C18 UNK     1      29.251  -5.280  38.596  1.00  0.00    -0.059 A 
HETATM   11  C19 UNK     1      29.067  -7.946  34.560  1.00  0.00     0.288 A 
HETATM   12  C20 UNK     1      27.330  -8.347  39.546  1.00  0.00     0.049 C 
HETATM   13  C21 UNK     1      29.707  -4.036  39.277  1.00  0.00     0.048 C 
ENDROOT
BRANCH   3  14
HETATM   14  C4  UNK     1      27.184  -9.945  37.213  1.00  0.00     0.312 C 
BRANCH  14  15
HETATM   15  N1  UNK     1      25.903 -10.163  36.542  1.00  0.00     0.097 N 
HETATM   16  C1  UNK     1      25.514 -11.578  36.609  1.00  0.00     0.277 C 
HETATM   17  C3  UNK     1      24.284 -11.821  35.728  1.00  0.00     0.069 C 
HETATM   18  C6  UNK     1      23.190 -10.810  35.959  1.00  0.00    -0.049 A 
HETATM   19  C10 UNK     1      21.897 -11.056  35.481  1.00  0.00     0.007 A 
HETATM   20  C5  UNK     1      23.476  -9.593  36.600  1.00  0.00    -0.024 A 
HETATM   21  C15 UNK     1      20.888 -10.110  35.660  1.00  0.00     0.001 A 
HETATM   22  C14 UNK     1      21.164  -8.911  36.314  1.00  0.00     0.001 A 
HETATM   23  C9  UNK     1      22.451  -8.654  36.786  1.00  0.00     0.009 A 
HETATM   24  C2  UNK     1      24.857  -9.319  37.149  1.00  0.00     0.311 C 
ENDBRANCH  14  15
ENDBRANCH   3  14
TORSDOF 2
ENDMDL
MODEL 7
REMARK VINA RESULT:      -8.1      1.955      3.366
REMARK  2 active torsions:
REMARK  status: ('A' for Active; 'I' for Inactive)
REMARK    1  A    between atoms: C4_7  and  N1_3 
REMARK    2  A    between atoms: C4_7  and  C7_10 
ROOT
HETATM    1  O1  UNK     1      18.907   2.628  29.987  1.00  0.00    -0.275 OA
HETATM    2  O2  UNK     1      18.768   4.670  28.967  1.00  0.00    -0.260 OA
HETATM    3  C7  UNK     1      18.263   3.913  32.424  1.00  0.00    -0.011 A 
HETATM    4  C8  UNK     1      18.499   2.464  32.390  1.00  0.00     0.012 A 
HETATM    5  C11 UNK     1      18.425   1.636  33.518  1.00  0.00    -0.048 A 
HETATM    6  C12 UNK     1      18.815   1.866  31.169  1.00  0.00     0.091 A 
HETATM    7  C13 UNK     1      18.358   4.614  31.285  1.00  0.00     0.092 A 
HETATM    8  C16 UNK     1      18.661   0.260  33.414  1.00  0.00     0.014 A 
HETATM    9  C17 UNK     1      19.053   0.496  31.048  1.00  0.00     0.045 A 
HETATM   10  C18 UNK     1      18.975  -0.309  32.181  1.00  0.00    -0.059 A 
HETATM   11  C19 UNK     1      18.690   3.997  29.989  1.00  0.00     0.288 A 
HETATM   12  C20 UNK     1      18.098   2.107  34.900  1.00  0.00     0.049 C 
HETATM   13  C21 UNK     1      19.224  -1.775  32.075  1.00  0.00     0.048 C 
ENDROOT
BRANCH   3  14
HETATM   14  C4  UNK     1      17.925   4.653  33.672  1.00  0.00     0.312 C 
BRANCH  14  15
HETATM   15  N1  UNK     1      17.922   6.102  33.472  1.00  0.00     0.097 N 
HETATM   16  C1  UNK     1      16.648   6.686  33.910  1.00  0.00     0.277 C 
HETATM   17  C3  UNK     1      16.585   8.161  33.502  1.00  0.00     0.069 C 
HETATM   18  C6  UNK     1      17.834   8.922  33.865  1.00  0.00    -0.049 A 
HETATM   19  C10 UNK     1      17.830  10.323  33.854  1.00  0.00     0.007 A 
HETATM   20  C5  UNK     1      19.023   8.232  34.156  1.00  0.00    -0.024 A 
HETATM   21  C15 UNK     1      18.992  11.034  34.154  1.00  0.00     0.001 A 
HETATM   22  C14 UNK     1      20.166  10.351  34.464  1.00  0.00     0.001 A 
HETATM   23  C9  UNK     1      20.182   8.956  34.468  1.00  0.00     0.009 A 
HETATM   24  C2  UNK     1      19.043   6.722  34.202  1.00  0.00     0.311 C 
ENDBRANCH  14  15
ENDBRANCH   3  14
TORSDOF 2
ENDMDL
MODEL 8
REMARK VINA RESULT:      -8.1     15.492     17.681
REMARK  2 active torsions:
REMARK  status: ('A' for Active; 'I' for Inactive)
REMARK    1  A    between atoms: C4_7  and  N1_3 
REMARK    2  A    between atoms: C4_7  and  C7_10 
ROOT
HETATM    1  O1  UNK     1      28.703  -5.603  39.757  1.00  0.00    -0.275 OA
HETATM    2  O2  UNK     1      29.520  -3.467  39.814  1.00  0.00    -0.260 OA
HETATM    3  C7  UNK     1      29.736  -5.820  37.132  1.00  0.00    -0.011 A 
HETATM    4  C8  UNK     1      29.028  -6.952  37.746  1.00  0.00     0.012 A 
HETATM    5  C11 UNK     1      28.819  -8.180  37.105  1.00  0.00    -0.048 A 
HETATM    6  C12 UNK     1      28.533  -6.806  39.043  1.00  0.00     0.091 A 
HETATM    7  C13 UNK     1      29.883  -4.688  37.833  1.00  0.00     0.092 A 
HETATM    8  C16 UNK     1      28.135  -9.217  37.750  1.00  0.00     0.014 A 
HETATM    9  C17 UNK     1      27.849  -7.831  39.700  1.00  0.00     0.045 A 
HETATM   10  C18 UNK     1      27.651  -9.043  39.046  1.00  0.00    -0.059 A 
HETATM   11  C19 UNK     1      29.366  -4.519  39.202  1.00  0.00     0.288 A 
HETATM   12  C20 UNK     1      29.282  -8.509  35.721  1.00  0.00     0.049 C 
HETATM   13  C21 UNK     1      26.926 -10.151  39.729  1.00  0.00     0.048 C 
ENDROOT
BRANCH   3  14
HETATM   14  C4  UNK     1      30.300  -5.866  35.754  1.00  0.00     0.312 C 
BRANCH  14  15
HETATM   15  N1  UNK     1      31.762  -5.883  35.756  1.00  0.00     0.097 N 
HETATM   16  C1  UNK     1      32.272  -6.763  36.816  1.00  0.00     0.277 C 
HETATM   17  C3  UNK     1      33.791  -6.605  36.937  1.00  0.00     0.069 C 
HETATM   18  C6  UNK     1      34.494  -6.678  35.606  1.00  0.00    -0.049 A 
HETATM   19  C10 UNK     1      35.881  -6.867  35.555  1.00  0.00     0.007 A 
HETATM   20  C5  UNK     1      33.773  -6.497  34.414  1.00  0.00    -0.024 A 
HETATM   21  C15 UNK     1      36.543  -6.900  34.328  1.00  0.00     0.001 A 
HETATM   22  C14 UNK     1      35.826  -6.742  33.144  1.00  0.00     0.001 A 
HETATM   23  C9  UNK     1      34.446  -6.544  33.185  1.00  0.00     0.009 A 
HETATM   24  C2  UNK     1      32.272  -6.321  34.444  1.00  0.00     0.311 C 
ENDBRANCH  14  15
ENDBRANCH   3  14
TORSDOF 2
ENDMDL
MODEL 9
REMARK VINA RESULT:      -8.0     14.761     17.061
REMARK  2 active torsions:
REMARK  status: ('A' for Active; 'I' for Inactive)
REMARK    1  A    between atoms: C4_7  and  N1_3 
REMARK    2  A    between atoms: C4_7  and  C7_10 
ROOT
HETATM    1  O1  UNK     1      27.564  -8.010  37.698  1.00  0.00    -0.275 OA
HETATM    2  O2  UNK     1      26.654  -9.954  36.908  1.00  0.00    -0.260 OA
HETATM    3  C7  UNK     1      29.219  -7.971  35.404  1.00  0.00    -0.011 A 
HETATM    4  C8  UNK     1      29.317  -6.901  36.406  1.00  0.00     0.012 A 
HETATM    5  C11 UNK     1      30.202  -5.820  36.308  1.00  0.00    -0.048 A 
HETATM    6  C12 UNK     1      28.483  -6.956  37.525  1.00  0.00     0.091 A 
HETATM    7  C13 UNK     1      28.336  -8.960  35.593  1.00  0.00     0.092 A 
HETATM    8  C16 UNK     1      30.242  -4.835  37.302  1.00  0.00     0.014 A 
HETATM    9  C17 UNK     1      28.511  -5.981  38.524  1.00  0.00     0.045 A 
HETATM   10  C18 UNK     1      29.398  -4.916  38.408  1.00  0.00    -0.059 A 
HETATM   11  C19 UNK     1      27.450  -9.031  36.768  1.00  0.00     0.288 A 
HETATM   12  C20 UNK     1      31.161  -5.604  35.181  1.00  0.00     0.049 C 
HETATM   13  C21 UNK     1      29.444  -3.863  39.462  1.00  0.00     0.048 C 
ENDROOT
BRANCH   3  14
HETATM   14  C4  UNK     1      30.062  -8.013  34.177  1.00  0.00     0.312 C 
BRANCH  14  15
HETATM   15  N1  UNK     1      29.311  -8.462  33.005  1.00  0.00     0.097 N 
HETATM   16  C1  UNK     1      28.657  -7.328  32.339  1.00  0.00     0.277 C 
HETATM   17  C3  UNK     1      27.713  -7.840  31.247  1.00  0.00     0.069 C 
HETATM   18  C6  UNK     1      28.357  -8.867  30.351  1.00  0.00    -0.049 A 
HETATM   19  C10 UNK     1      27.758  -9.206  29.131  1.00  0.00     0.007 A 
HETATM   20  C5  UNK     1      29.524  -9.531  30.762  1.00  0.00    -0.024 A 
HETATM   21  C15 UNK     1      28.330 -10.181  28.313  1.00  0.00     0.001 A 
HETATM   22  C14 UNK     1      29.499 -10.825  28.709  1.00  0.00     0.001 A 
HETATM   23  C9  UNK     1      30.097 -10.501  29.927  1.00  0.00     0.009 A 
HETATM   24  C2  UNK     1      30.202  -9.161  32.061  1.00  0.00     0.311 C 
ENDBRANCH  14  15
ENDBRANCH   3  14
TORSDOF 2
ENDMDL
MODEL 10
REMARK VINA RESULT:      -7.9      7.709     10.234
REMARK  2 active torsions:
REMARK  status: ('A' for Active; 'I' for Inactive)
REMARK    1  A    between atoms: C4_7  and  N1_3 
REMARK    2  A    between atoms: C4_7  and  C7_10 
ROOT
HETATM    1  O1  UNK     1      23.217  -7.139  38.191  1.00  0.00    -0.275 OA
HETATM    2  O2  UNK     1      23.524  -5.245  39.436  1.00  0.00    -0.260 OA
HETATM    3  C7  UNK     1      20.793  -6.014  37.261  1.00  0.00    -0.011 A 
HETATM    4  C8  UNK     1      21.219  -7.341  36.799  1.00  0.00     0.012 A 
HETATM    5  C11 UNK     1      20.488  -8.124  35.896  1.00  0.00    -0.048 A 
HETATM    6  C12 UNK     1      22.421  -7.863  37.281  1.00  0.00     0.091 A 
HETATM    7  C13 UNK     1      21.569  -5.347  38.126  1.00  0.00     0.092 A 
HETATM    8  C16 UNK     1      20.954  -9.382  35.497  1.00  0.00     0.014 A 
HETATM    9  C17 UNK     1      22.900  -9.116  36.894  1.00  0.00     0.045 A 
HETATM   10  C18 UNK     1      22.158  -9.878  35.996  1.00  0.00    -0.059 A 
HETATM   11  C19 UNK     1      22.840  -5.884  38.644  1.00  0.00     0.288 A 
HETATM   12  C20 UNK     1      19.186  -7.721  35.280  1.00  0.00     0.049 C 
HETATM   13  C21 UNK     1      22.650 -11.218  35.567  1.00  0.00     0.048 C 
ENDROOT
BRANCH   3  14
HETATM   14  C4  UNK     1      19.529  -5.365  36.814  1.00  0.00     0.312 C 
BRANCH  14  15
HETATM   15  N1  UNK     1      19.672  -3.917  36.669  1.00  0.00     0.097 N 
HETATM   16  C1  UNK     1      19.973  -3.560  35.276  1.00  0.00     0.277 C 
HETATM   17  C3  UNK     1      20.323  -2.072  35.185  1.00  0.00     0.069 C 
HETATM   18  C6  UNK     1      19.335  -1.193  35.906  1.00  0.00    -0.049 A 
HETATM   19  C10 UNK     1      19.320   0.188  35.669  1.00  0.00     0.007 A 
HETATM   20  C5  UNK     1      18.466  -1.743  36.864  1.00  0.00    -0.024 A 
HETATM   21  C15 UNK     1      18.432   1.012  36.359  1.00  0.00     0.001 A 
HETATM   22  C14 UNK     1      17.555   0.465  37.293  1.00  0.00     0.001 A 
HETATM   23  C9  UNK     1      17.568  -0.907  37.543  1.00  0.00     0.009 A 
HETATM   24  C2  UNK     1      18.445  -3.233  37.115  1.00  0.00     0.311 C 
ENDBRANCH  14  15
ENDBRANCH   3  14
TORSDOF 2
ENDMDL
