MODEL 1
REMARK VINA RESULT:      -9.4      0.000      0.000
REMARK  4 active torsions:
REMARK  status: ('A' for Active; 'I' for Inactive)
REMARK       I    between atoms: C10_17  and  N1_6 
REMARK    1  A    between atoms: N1_6  and  N2_7 
REMARK    2  A    between atoms: C1_8  and  C2_9 
REMARK    3  A    between atoms: C10_17  and  C6_13 
REMARK    4  A    between atoms: C12_19  and  C18_25 
ROOT
HETATM    1  N2  UNK     1      20.766  -2.808  34.657  1.00  0.00    -0.183 NA
HETATM    2  C18 UNK     1      19.848  -3.672  34.947  1.00  0.00     0.156 C 
ENDROOT
BRANCH   1   3
HETATM    3  N1  UNK     1      20.472  -2.027  33.589  1.00  0.00    -0.243 N 
HETATM    4  C10 UNK     1      20.809  -2.482  32.323  1.00  0.00     0.272 C 
HETATM    5  O2  UNK     1      21.363  -3.563  32.122  1.00  0.00    -0.266 OA
HETATM    6  H14 UNK     1      19.993  -1.150  33.760  1.00  0.00     0.192 HD
BRANCH   4   7
HETATM    7  C6  UNK     1      20.435  -1.595  31.213  1.00  0.00     0.041 A 
HETATM    8  C5  UNK     1      19.879  -0.312  31.372  1.00  0.00     0.032 A 
HETATM    9  C2  UNK     1      19.635   0.277  30.150  1.00  0.00    -0.013 A 
HETATM   10  S1  UNK     1      20.085  -0.739  28.847  1.00  0.00    -0.105 SA
HETATM   11  C7  UNK     1      20.609  -1.970  29.916  1.00  0.00     0.067 A 
BRANCH   9  12
HETATM   12  C1  UNK     1      19.061   1.609  29.869  1.00  0.00     0.017 C 
HETATM   13  C3  UNK     1      17.950   1.571  28.796  1.00  0.00     0.015 C 
HETATM   14  C4  UNK     1      18.523   2.313  31.136  1.00  0.00     0.015 C 
ENDBRANCH   9  12
ENDBRANCH   4   7
ENDBRANCH   1   3
BRANCH   2  15
HETATM   15  C12 UNK     1      19.973  -4.607  36.065  1.00  0.00     0.056 A 
HETATM   16  C11 UNK     1      19.629  -6.042  35.974  1.00  0.00     0.198 A 
HETATM   17  O3  UNK     1      19.213  -6.549  34.941  1.00  0.00    -0.286 OA
HETATM   18  C8  UNK     1      19.819  -6.831  37.206  1.00  0.00     0.050 A 
HETATM   19  C13 UNK     1      19.522  -8.195  37.231  1.00  0.00     0.042 A 
HETATM   20  C9  UNK     1      20.299  -6.195  38.352  1.00  0.00     0.089 A 
HETATM   21  C16 UNK     1      19.709  -8.920  38.409  1.00  0.00     0.035 A 
HETATM   22 Cl1  UNK     1      19.346 -10.602  38.449  1.00  0.00    -0.084 Cl
HETATM   23  C17 UNK     1      20.190  -8.285  39.554  1.00  0.00     0.026 A 
HETATM   24  C14 UNK     1      20.486  -6.921  39.528  1.00  0.00     0.040 A 
HETATM   25  O1  UNK     1      20.607  -4.856  38.386  1.00  0.00    -0.321 OA
HETATM   26  C15 UNK     1      20.424  -4.132  37.231  1.00  0.00     0.159 A 
ENDBRANCH   2  15
TORSDOF 4
ENDMDL
MODEL 2
REMARK VINA RESULT:      -9.1      7.738     12.531
REMARK  4 active torsions:
REMARK  status: ('A' for Active; 'I' for Inactive)
REMARK       I    between atoms: C10_17  and  N1_6 
REMARK    1  A    between atoms: N1_6  and  N2_7 
REMARK    2  A    between atoms: C1_8  and  C2_9 
REMARK    3  A    between atoms: C10_17  and  C6_13 
REMARK    4  A    between atoms: C12_19  and  C18_25 
ROOT
HETATM    1  N2  UNK     1      18.661   4.959  30.809  1.00  0.00    -0.183 NA
HETATM    2  C18 UNK     1      18.301   5.192  32.029  1.00  0.00     0.156 C 
ENDROOT
BRANCH   1   3
HETATM    3  N1  UNK     1      19.227   3.741  30.622  1.00  0.00    -0.243 N 
HETATM    4  C10 UNK     1      18.399   2.633  30.534  1.00  0.00     0.272 C 
HETATM    5  O2  UNK     1      17.172   2.701  30.617  1.00  0.00    -0.266 OA
HETATM    6  H14 UNK     1      20.236   3.697  30.530  1.00  0.00     0.192 HD
BRANCH   4   7
HETATM    7  C6  UNK     1      19.081   1.352  30.304  1.00  0.00     0.041 A 
HETATM    8  C5  UNK     1      19.535   0.497  31.325  1.00  0.00     0.032 A 
HETATM    9  C2  UNK     1      20.134  -0.627  30.800  1.00  0.00    -0.013 A 
HETATM   10  S1  UNK     1      20.130  -0.617  29.089  1.00  0.00    -0.105 SA
HETATM   11  C7  UNK     1      19.325   0.894  29.045  1.00  0.00     0.067 A 
BRANCH   9  12
HETATM   12  C1  UNK     1      20.741  -1.767  31.519  1.00  0.00     0.017 C 
HETATM   13  C3  UNK     1      20.001  -2.114  32.831  1.00  0.00     0.015 C 
HETATM   14  C4  UNK     1      20.854  -3.038  30.646  1.00  0.00     0.015 C 
ENDBRANCH   9  12
ENDBRANCH   4   7
ENDBRANCH   1   3
BRANCH   2  15
HETATM   15  C12 UNK     1      17.671   6.448  32.437  1.00  0.00     0.056 A 
HETATM   16  C11 UNK     1      18.420   7.596  32.993  1.00  0.00     0.198 A 
HETATM   17  O3  UNK     1      19.633   7.569  33.149  1.00  0.00    -0.286 OA
HETATM   18  C8  UNK     1      17.615   8.780  33.350  1.00  0.00     0.050 A 
HETATM   19  C13 UNK     1      18.221   9.917  33.886  1.00  0.00     0.042 A 
HETATM   20  C9  UNK     1      16.235   8.748  33.146  1.00  0.00     0.089 A 
HETATM   21  C16 UNK     1      17.438  11.025  34.216  1.00  0.00     0.035 A 
HETATM   22 Cl1  UNK     1      18.176  12.432  34.877  1.00  0.00    -0.084 Cl
HETATM   23  C17 UNK     1      16.058  10.994  34.012  1.00  0.00     0.026 A 
HETATM   24  C14 UNK     1      15.454   9.856  33.476  1.00  0.00     0.040 A 
HETATM   25  O1  UNK     1      15.585   7.656  32.623  1.00  0.00    -0.321 OA
HETATM   26  C15 UNK     1      16.346   6.559  32.296  1.00  0.00     0.159 A 
ENDBRANCH   2  15
TORSDOF 4
ENDMDL
MODEL 3
REMARK VINA RESULT:      -9.1      7.704     12.442
REMARK  4 active torsions:
REMARK  status: ('A' for Active; 'I' for Inactive)
REMARK       I    between atoms: C10_17  and  N1_6 
REMARK    1  A    between atoms: N1_6  and  N2_7 
REMARK    2  A    between atoms: C1_8  and  C2_9 
REMARK    3  A    between atoms: C10_17  and  C6_13 
REMARK    4  A    between atoms: C12_19  and  C18_25 
ROOT
HETATM    1  N2  UNK     1      18.657   5.055  30.903  1.00  0.00    -0.183 NA
HETATM    2  C18 UNK     1      18.828   5.445  32.124  1.00  0.00     0.156 C 
ENDROOT
BRANCH   1   3
HETATM    3  N1  UNK     1      19.194   3.840  30.630  1.00  0.00    -0.243 N 
HETATM    4  C10 UNK     1      18.355   2.737  30.598  1.00  0.00     0.272 C 
HETATM    5  O2  UNK     1      17.143   2.807  30.804  1.00  0.00    -0.266 OA
HETATM    6  H14 UNK     1      20.189   3.794  30.436  1.00  0.00     0.192 HD
BRANCH   4   7
HETATM    7  C6  UNK     1      19.003   1.460  30.268  1.00  0.00     0.041 A 
HETATM    8  C5  UNK     1      19.556   0.581  31.217  1.00  0.00     0.032 A 
HETATM    9  C2  UNK     1      20.091  -0.533  30.606  1.00  0.00    -0.013 A 
HETATM   10  S1  UNK     1      19.909  -0.482  28.905  1.00  0.00    -0.105 SA
HETATM   11  C7  UNK     1      19.112   1.032  28.980  1.00  0.00     0.067 A 
BRANCH   9  12
HETATM   12  C1  UNK     1      20.763  -1.692  31.232  1.00  0.00     0.017 C 
HETATM   13  C3  UNK     1      20.117  -2.110  32.572  1.00  0.00     0.015 C 
HETATM   14  C4  UNK     1      20.840  -2.920  30.296  1.00  0.00     0.015 C 
ENDBRANCH   9  12
ENDBRANCH   4   7
ENDBRANCH   1   3
BRANCH   2  15
HETATM   15  C12 UNK     1      18.323   6.726  32.618  1.00  0.00     0.056 A 
HETATM   16  C11 UNK     1      16.917   7.161  32.477  1.00  0.00     0.198 A 
HETATM   17  O3  UNK     1      16.071   6.465  31.931  1.00  0.00    -0.286 OA
HETATM   18  C8  UNK     1      16.592   8.487  33.035  1.00  0.00     0.050 A 
HETATM   19  C13 UNK     1      15.294   8.995  32.952  1.00  0.00     0.042 A 
HETATM   20  C9  UNK     1      17.601   9.231  33.647  1.00  0.00     0.089 A 
HETATM   21  C16 UNK     1      15.011  10.253  33.488  1.00  0.00     0.035 A 
HETATM   22 Cl1  UNK     1      13.415  10.888  33.392  1.00  0.00    -0.084 Cl
HETATM   23  C17 UNK     1      16.020  10.997  34.101  1.00  0.00     0.026 A 
HETATM   24  C14 UNK     1      17.317  10.488  34.182  1.00  0.00     0.040 A 
HETATM   25  O1  UNK     1      18.895   8.782  33.756  1.00  0.00    -0.321 OA
HETATM   26  C15 UNK     1      19.185   7.545  33.230  1.00  0.00     0.159 A 
ENDBRANCH   2  15
TORSDOF 4
ENDMDL
MODEL 4
REMARK VINA RESULT:      -8.9      7.038     10.173
REMARK  4 active torsions:
REMARK  status: ('A' for Active; 'I' for Inactive)
REMARK       I    between atoms: C10_17  and  N1_6 
REMARK    1  A    between atoms: N1_6  and  N2_7 
REMARK    2  A    between atoms: C1_8  and  C2_9 
REMARK    3  A    between atoms: C10_17  and  C6_13 
REMARK    4  A    between atoms: C12_19  and  C18_25 
ROOT
HETATM    1  N2  UNK     1      18.671   4.792  31.601  1.00  0.00    -0.183 NA
HETATM    2  C18 UNK     1      17.965   3.726  31.401  1.00  0.00     0.156 C 
ENDROOT
BRANCH   1   3
HETATM    3  N1  UNK     1      17.976   5.821  32.144  1.00  0.00    -0.243 N 
HETATM    4  C10 UNK     1      18.681   6.875  32.703  1.00  0.00     0.272 C 
HETATM    5  O2  UNK     1      19.912   6.922  32.730  1.00  0.00    -0.266 OA
HETATM    6  H14 UNK     1      16.963   5.787  32.095  1.00  0.00     0.192 HD
BRANCH   4   7
HETATM    7  C6  UNK     1      17.861   7.967  33.245  1.00  0.00     0.041 A 
HETATM    8  C5  UNK     1      16.472   7.891  33.452  1.00  0.00     0.032 A 
HETATM    9  C2  UNK     1      15.983   9.070  33.972  1.00  0.00    -0.013 A 
HETATM   10  S1  UNK     1      17.219  10.234  34.195  1.00  0.00    -0.105 SA
HETATM   11  C7  UNK     1      18.413   9.162  33.596  1.00  0.00     0.067 A 
BRANCH   9  12
HETATM   12  C1  UNK     1      14.591   9.410  34.332  1.00  0.00     0.017 C 
HETATM   13  C3  UNK     1      14.499  10.375  35.537  1.00  0.00     0.015 C 
HETATM   14  C4  UNK     1      13.787   9.995  33.148  1.00  0.00     0.015 C 
ENDBRANCH   9  12
ENDBRANCH   4   7
ENDBRANCH   1   3
BRANCH   2  15
HETATM   15  C12 UNK     1      18.530   2.506  30.825  1.00  0.00     0.056 A 
HETATM   16  C11 UNK     1      18.942   1.335  31.629  1.00  0.00     0.198 A 
HETATM   17  O3  UNK     1      18.832   1.311  32.848  1.00  0.00    -0.286 OA
HETATM   18  C8  UNK     1      19.493   0.194  30.874  1.00  0.00     0.050 A 
HETATM   19  C13 UNK     1      19.915  -0.961  31.536  1.00  0.00     0.042 A 
HETATM   20  C9  UNK     1      19.590   0.284  29.485  1.00  0.00     0.089 A 
HETATM   21  C16 UNK     1      20.433  -2.027  30.799  1.00  0.00     0.035 A 
HETATM   22 Cl1  UNK     1      20.955  -3.454  31.606  1.00  0.00    -0.084 Cl
HETATM   23  C17 UNK     1      20.530  -1.938  29.410  1.00  0.00     0.026 A 
HETATM   24  C14 UNK     1      20.108  -0.783  28.750  1.00  0.00     0.040 A 
HETATM   25  O1  UNK     1      19.192   1.395  28.781  1.00  0.00    -0.321 OA
HETATM   26  C15 UNK     1      18.681   2.452  29.497  1.00  0.00     0.159 A 
ENDBRANCH   2  15
TORSDOF 4
ENDMDL
MODEL 5
REMARK VINA RESULT:      -8.8      4.930     10.139
REMARK  4 active torsions:
REMARK  status: ('A' for Active; 'I' for Inactive)
REMARK       I    between atoms: C10_17  and  N1_6 
REMARK    1  A    between atoms: N1_6  and  N2_7 
REMARK    2  A    between atoms: C1_8  and  C2_9 
REMARK    3  A    between atoms: C10_17  and  C6_13 
REMARK    4  A    between atoms: C12_19  and  C18_25 
ROOT
HETATM    1  N2  UNK     1      19.250  -1.735  35.739  1.00  0.00    -0.183 NA
HETATM    2  C18 UNK     1      18.171  -1.086  35.439  1.00  0.00     0.156 C 
ENDROOT
BRANCH   1   3
HETATM    3  N1  UNK     1      19.028  -2.972  36.245  1.00  0.00    -0.243 N 
HETATM    4  C10 UNK     1      20.120  -3.769  36.550  1.00  0.00     0.272 C 
HETATM    5  O2  UNK     1      21.285  -3.407  36.383  1.00  0.00    -0.266 OA
HETATM    6  H14 UNK     1      18.066  -3.254  36.403  1.00  0.00     0.192 HD
BRANCH   4   7
HETATM    7  C6  UNK     1      19.802  -5.085  37.121  1.00  0.00     0.041 A 
HETATM    8  C5  UNK     1      20.515  -5.691  38.171  1.00  0.00     0.032 A 
HETATM    9  C2  UNK     1      19.981  -6.921  38.489  1.00  0.00    -0.013 A 
HETATM   10  S1  UNK     1      18.632  -7.307  37.508  1.00  0.00    -0.105 SA
HETATM   11  C7  UNK     1      18.759  -5.827  36.655  1.00  0.00     0.067 A 
BRANCH   9  12
HETATM   12  C1  UNK     1      20.426  -7.878  39.523  1.00  0.00     0.017 C 
HETATM   13  C3  UNK     1      19.941  -9.321  39.255  1.00  0.00     0.015 C 
HETATM   14  C4  UNK     1      21.959  -7.883  39.720  1.00  0.00     0.015 C 
ENDBRANCH   9  12
ENDBRANCH   4   7
ENDBRANCH   1   3
BRANCH   2  15
HETATM   15  C12 UNK     1      18.197   0.265  34.880  1.00  0.00     0.056 A 
HETATM   16  C11 UNK     1      18.331   0.550  33.434  1.00  0.00     0.198 A 
HETATM   17  O3  UNK     1      18.429  -0.341  32.601  1.00  0.00    -0.286 OA
HETATM   18  C8  UNK     1      18.340   1.975  33.055  1.00  0.00     0.050 A 
HETATM   19  C13 UNK     1      18.464   2.355  31.717  1.00  0.00     0.042 A 
HETATM   20  C9  UNK     1      18.223   2.943  34.053  1.00  0.00     0.089 A 
HETATM   21  C16 UNK     1      18.470   3.710  31.383  1.00  0.00     0.035 A 
HETATM   22 Cl1  UNK     1      18.623   4.189  29.737  1.00  0.00    -0.084 Cl
HETATM   23  C17 UNK     1      18.353   4.679  32.381  1.00  0.00     0.026 A 
HETATM   24  C14 UNK     1      18.228   4.297  33.718  1.00  0.00     0.040 A 
HETATM   25  O1  UNK     1      18.098   2.628  35.385  1.00  0.00    -0.321 OA
HETATM   26  C15 UNK     1      18.093   1.296  35.725  1.00  0.00     0.159 A 
ENDBRANCH   2  15
TORSDOF 4
ENDMDL
MODEL 6
REMARK VINA RESULT:      -8.7      1.813      2.241
REMARK  4 active torsions:
REMARK  status: ('A' for Active; 'I' for Inactive)
REMARK       I    between atoms: C10_17  and  N1_6 
REMARK    1  A    between atoms: N1_6  and  N2_7 
REMARK    2  A    between atoms: C1_8  and  C2_9 
REMARK    3  A    between atoms: C10_17  and  C6_13 
REMARK    4  A    between atoms: C12_19  and  C18_25 
ROOT
HETATM    1  N2  UNK     1      19.717  -2.454  35.589  1.00  0.00    -0.183 NA
HETATM    2  C18 UNK     1      20.042  -3.666  35.273  1.00  0.00     0.156 C 
ENDROOT
BRANCH   1   3
HETATM    3  N1  UNK     1      19.725  -1.590  34.544  1.00  0.00    -0.243 N 
HETATM    4  C10 UNK     1      18.581  -0.851  34.287  1.00  0.00     0.272 C 
HETATM    5  O2  UNK     1      17.555  -0.941  34.963  1.00  0.00    -0.266 OA
HETATM    6  H14 UNK     1      20.581  -1.503  34.007  1.00  0.00     0.192 HD
BRANCH   4   7
HETATM    7  C6  UNK     1      18.674   0.084  33.157  1.00  0.00     0.041 A 
HETATM    8  C5  UNK     1      19.145  -0.259  31.877  1.00  0.00     0.032 A 
HETATM    9  C2  UNK     1      19.113   0.828  31.030  1.00  0.00    -0.013 A 
HETATM   10  S1  UNK     1      18.514   2.230  31.808  1.00  0.00    -0.105 SA
HETATM   11  C7  UNK     1      18.295   1.386  33.282  1.00  0.00     0.067 A 
BRANCH   9  12
HETATM   12  C1  UNK     1      19.518   0.900  29.610  1.00  0.00     0.017 C 
HETATM   13  C3  UNK     1      20.243  -0.376  29.126  1.00  0.00     0.015 C 
HETATM   14  C4  UNK     1      18.336   1.207  28.662  1.00  0.00     0.015 C 
ENDBRANCH   9  12
ENDBRANCH   4   7
ENDBRANCH   1   3
BRANCH   2  15
HETATM   15  C12 UNK     1      20.092  -4.748  36.257  1.00  0.00     0.056 A 
HETATM   16  C11 UNK     1      19.854  -6.169  35.923  1.00  0.00     0.198 A 
HETATM   17  O3  UNK     1      19.596  -6.537  34.785  1.00  0.00    -0.286 OA
HETATM   18  C8  UNK     1      19.944  -7.120  37.048  1.00  0.00     0.050 A 
HETATM   19  C13 UNK     1      19.734  -8.485  36.843  1.00  0.00     0.042 A 
HETATM   20  C9  UNK     1      20.243  -6.636  38.322  1.00  0.00     0.089 A 
HETATM   21  C16 UNK     1      19.825  -9.365  37.924  1.00  0.00     0.035 A 
HETATM   22 Cl1  UNK     1      19.567 -11.049  37.683  1.00  0.00    -0.084 Cl
HETATM   23  C17 UNK     1      20.124  -8.882  39.198  1.00  0.00     0.026 A 
HETATM   24  C14 UNK     1      20.334  -7.517  39.400  1.00  0.00     0.040 A 
HETATM   25  O1  UNK     1      20.459  -5.304  38.581  1.00  0.00    -0.321 OA
HETATM   26  C15 UNK     1      20.369  -4.428  37.525  1.00  0.00     0.159 A 
ENDBRANCH   2  15
TORSDOF 4
ENDMDL
MODEL 7
REMARK VINA RESULT:      -8.6      8.759     13.077
REMARK  4 active torsions:
REMARK  status: ('A' for Active; 'I' for Inactive)
REMARK       I    between atoms: C10_17  and  N1_6 
REMARK    1  A    between atoms: N1_6  and  N2_7 
REMARK    2  A    between atoms: C1_8  and  C2_9 
REMARK    3  A    between atoms: C10_17  and  C6_13 
REMARK    4  A    between atoms: C12_19  and  C18_25 
ROOT
HETATM    1  N2  UNK     1      17.125   5.544  32.165  1.00  0.00    -0.183 NA
HETATM    2  C18 UNK     1      17.520   6.118  33.254  1.00  0.00     0.156 C 
ENDROOT
BRANCH   1   3
HETATM    3  N1  UNK     1      17.513   4.250  32.050  1.00  0.00    -0.243 N 
HETATM    4  C10 UNK     1      18.358   3.901  31.008  1.00  0.00     0.272 C 
HETATM    5  O2  UNK     1      18.774   4.711  30.180  1.00  0.00    -0.266 OA
HETATM    6  H14 UNK     1      17.186   3.593  32.751  1.00  0.00     0.192 HD
BRANCH   4   7
HETATM    7  C6  UNK     1      18.757   2.488  30.965  1.00  0.00     0.041 A 
HETATM    8  C5  UNK     1      19.286   1.844  29.832  1.00  0.00     0.032 A 
HETATM    9  C2  UNK     1      19.565   0.521  30.098  1.00  0.00    -0.013 A 
HETATM   10  S1  UNK     1      19.181   0.097  31.711  1.00  0.00    -0.105 SA
HETATM   11  C7  UNK     1      18.639   1.684  32.058  1.00  0.00     0.067 A 
BRANCH   9  12
HETATM   12  C1  UNK     1      20.127  -0.502  29.191  1.00  0.00     0.017 C 
HETATM   13  C3  UNK     1      20.369  -1.858  29.891  1.00  0.00     0.015 C 
HETATM   14  C4  UNK     1      19.263  -0.726  27.928  1.00  0.00     0.015 C 
ENDBRANCH   9  12
ENDBRANCH   4   7
ENDBRANCH   1   3
BRANCH   2  15
HETATM   15  C12 UNK     1      17.204   7.512  33.566  1.00  0.00     0.056 A 
HETATM   16  C11 UNK     1      15.897   7.957  34.096  1.00  0.00     0.198 A 
HETATM   17  O3  UNK     1      14.982   7.174  34.314  1.00  0.00    -0.286 OA
HETATM   18  C8  UNK     1      15.761   9.404  34.350  1.00  0.00     0.050 A 
HETATM   19  C13 UNK     1      14.567   9.930  34.848  1.00  0.00     0.042 A 
HETATM   20  C9  UNK     1      16.843  10.243  34.083  1.00  0.00     0.089 A 
HETATM   21  C16 UNK     1      14.463  11.302  35.079  1.00  0.00     0.035 A 
HETATM   22 Cl1  UNK     1      12.996  11.961  35.693  1.00  0.00    -0.084 Cl
HETATM   23  C17 UNK     1      15.545  12.143  34.813  1.00  0.00     0.026 A 
HETATM   24  C14 UNK     1      16.737  11.615  34.315  1.00  0.00     0.040 A 
HETATM   25  O1  UNK     1      18.040   9.781  33.592  1.00  0.00    -0.321 OA
HETATM   26  C15 UNK     1      18.153   8.431  33.359  1.00  0.00     0.159 A 
ENDBRANCH   2  15
TORSDOF 4
ENDMDL
MODEL 8
REMARK VINA RESULT:      -8.5      4.946     10.290
REMARK  4 active torsions:
REMARK  status: ('A' for Active; 'I' for Inactive)
REMARK       I    between atoms: C10_17  and  N1_6 
REMARK    1  A    between atoms: N1_6  and  N2_7 
REMARK    2  A    between atoms: C1_8  and  C2_9 
REMARK    3  A    between atoms: C10_17  and  C6_13 
REMARK    4  A    between atoms: C12_19  and  C18_25 
ROOT
HETATM    1  N2  UNK     1      19.120  -1.253  35.611  1.00  0.00    -0.183 NA
HETATM    2  C18 UNK     1      18.444  -1.111  34.518  1.00  0.00     0.156 C 
ENDROOT
BRANCH   1   3
HETATM    3  N1  UNK     1      19.012  -2.482  36.172  1.00  0.00    -0.243 N 
HETATM    4  C10 UNK     1      20.149  -3.270  36.266  1.00  0.00     0.272 C 
HETATM    5  O2  UNK     1      21.255  -2.905  35.864  1.00  0.00    -0.266 OA
HETATM    6  H14 UNK     1      18.103  -2.765  36.523  1.00  0.00     0.192 HD
BRANCH   4   7
HETATM    7  C6  UNK     1      19.960  -4.577  36.910  1.00  0.00     0.041 A 
HETATM    8  C5  UNK     1      20.759  -5.071  37.956  1.00  0.00     0.032 A 
HETATM    9  C2  UNK     1      20.339  -6.322  38.352  1.00  0.00    -0.013 A 
HETATM   10  S1  UNK     1      18.990  -6.862  37.447  1.00  0.00    -0.105 SA
HETATM   11  C7  UNK     1      18.965  -5.421  36.521  1.00  0.00     0.067 A 
BRANCH   9  12
HETATM   12  C1  UNK     1      20.898  -7.189  39.411  1.00  0.00     0.017 C 
HETATM   13  C3  UNK     1      20.514  -8.676  39.236  1.00  0.00     0.015 C 
HETATM   14  C4  UNK     1      22.434  -7.070  39.537  1.00  0.00     0.015 C 
ENDBRANCH   9  12
ENDBRANCH   4   7
ENDBRANCH   1   3
BRANCH   2  15
HETATM   15  C12 UNK     1      18.429   0.141  33.760  1.00  0.00     0.056 A 
HETATM   16  C11 UNK     1      18.256   1.472  34.381  1.00  0.00     0.198 A 
HETATM   17  O3  UNK     1      18.114   1.614  35.588  1.00  0.00    -0.286 OA
HETATM   18  C8  UNK     1      18.265   2.622  33.457  1.00  0.00     0.050 A 
HETATM   19  C13 UNK     1      18.107   3.923  33.939  1.00  0.00     0.042 A 
HETATM   20  C9  UNK     1      18.433   2.392  32.091  1.00  0.00     0.089 A 
HETATM   21  C16 UNK     1      18.119   4.994  33.045  1.00  0.00     0.035 A 
HETATM   22 Cl1  UNK     1      17.926   6.602  33.628  1.00  0.00    -0.084 Cl
HETATM   23  C17 UNK     1      18.288   4.766  31.679  1.00  0.00     0.026 A 
HETATM   24  C14 UNK     1      18.445   3.465  31.199  1.00  0.00     0.040 A 
HETATM   25  O1  UNK     1      18.592   1.135  31.561  1.00  0.00    -0.321 OA
HETATM   26  C15 UNK     1      18.580   0.071  32.433  1.00  0.00     0.159 A 
ENDBRANCH   2  15
TORSDOF 4
ENDMDL
MODEL 9
REMARK VINA RESULT:      -8.4      8.812     13.172
REMARK  4 active torsions:
REMARK  status: ('A' for Active; 'I' for Inactive)
REMARK       I    between atoms: C10_17  and  N1_6 
REMARK    1  A    between atoms: N1_6  and  N2_7 
REMARK    2  A    between atoms: C1_8  and  C2_9 
REMARK    3  A    between atoms: C10_17  and  C6_13 
REMARK    4  A    between atoms: C12_19  and  C18_25 
ROOT
HETATM    1  N2  UNK     1      17.176   5.485  32.241  1.00  0.00    -0.183 NA
HETATM    2  C18 UNK     1      17.257   5.962  33.441  1.00  0.00     0.156 C 
ENDROOT
BRANCH   1   3
HETATM    3  N1  UNK     1      17.574   4.193  32.133  1.00  0.00    -0.243 N 
HETATM    4  C10 UNK     1      18.358   3.830  31.049  1.00  0.00     0.272 C 
HETATM    5  O2  UNK     1      18.712   4.625  30.178  1.00  0.00    -0.266 OA
HETATM    6  H14 UNK     1      17.299   3.550  32.867  1.00  0.00     0.192 HD
BRANCH   4   7
HETATM    7  C6  UNK     1      18.773   2.421  31.014  1.00  0.00     0.041 A 
HETATM    8  C5  UNK     1      19.302   1.775  29.882  1.00  0.00     0.032 A 
HETATM    9  C2  UNK     1      19.597   0.457  30.156  1.00  0.00    -0.013 A 
HETATM   10  S1  UNK     1      19.226   0.040  31.775  1.00  0.00    -0.105 SA
HETATM   11  C7  UNK     1      18.669   1.623  32.113  1.00  0.00     0.067 A 
BRANCH   9  12
HETATM   12  C1  UNK     1      20.165  -0.566  29.254  1.00  0.00     0.017 C 
HETATM   13  C3  UNK     1      20.364  -1.935  29.944  1.00  0.00     0.015 C 
HETATM   14  C4  UNK     1      19.333  -0.761  27.965  1.00  0.00     0.015 C 
ENDBRANCH   9  12
ENDBRANCH   4   7
ENDBRANCH   1   3
BRANCH   2  15
HETATM   15  C12 UNK     1      16.875   7.336  33.766  1.00  0.00     0.056 A 
HETATM   16  C11 UNK     1      17.810   8.482  33.707  1.00  0.00     0.198 A 
HETATM   17  O3  UNK     1      18.980   8.351  33.374  1.00  0.00    -0.286 OA
HETATM   18  C8  UNK     1      17.246   9.795  34.073  1.00  0.00     0.050 A 
HETATM   19  C13 UNK     1      18.042  10.942  34.053  1.00  0.00     0.042 A 
HETATM   20  C9  UNK     1      15.903   9.877  34.442  1.00  0.00     0.089 A 
HETATM   21  C16 UNK     1      17.486  12.173  34.404  1.00  0.00     0.035 A 
HETATM   22 Cl1  UNK     1      18.459  13.592  34.383  1.00  0.00    -0.084 Cl
HETATM   23  C17 UNK     1      16.142  12.256  34.773  1.00  0.00     0.026 A 
HETATM   24  C14 UNK     1      15.348  11.108  34.792  1.00  0.00     0.040 A 
HETATM   25  O1  UNK     1      15.073   8.782  34.480  1.00  0.00    -0.321 OA
HETATM   26  C15 UNK     1      15.611   7.564  34.138  1.00  0.00     0.159 A 
ENDBRANCH   2  15
TORSDOF 4
ENDMDL
MODEL 10
REMARK VINA RESULT:      -8.3      7.500     11.011
REMARK  4 active torsions:
REMARK  status: ('A' for Active; 'I' for Inactive)
REMARK       I    between atoms: C10_17  and  N1_6 
REMARK    1  A    between atoms: N1_6  and  N2_7 
REMARK    2  A    between atoms: C1_8  and  C2_9 
REMARK    3  A    between atoms: C10_17  and  C6_13 
REMARK    4  A    between atoms: C12_19  and  C18_25 
ROOT
HETATM    1  N2  UNK     1      18.126   5.705  31.865  1.00  0.00    -0.183 NA
HETATM    2  C18 UNK     1      17.675   4.504  32.035  1.00  0.00     0.156 C 
ENDROOT
BRANCH   1   3
HETATM    3  N1  UNK     1      17.491   6.644  32.607  1.00  0.00    -0.243 N 
HETATM    4  C10 UNK     1      16.852   7.686  31.952  1.00  0.00     0.272 C 
HETATM    5  O2  UNK     1      16.834   7.799  30.726  1.00  0.00    -0.266 OA
HETATM    6  H14 UNK     1      17.489   6.530  33.615  1.00  0.00     0.192 HD
BRANCH   4   7
HETATM    7  C6  UNK     1      16.162   8.649  32.821  1.00  0.00     0.041 A 
HETATM    8  C5  UNK     1      14.966   9.309  32.485  1.00  0.00     0.032 A 
HETATM    9  C2  UNK     1      14.562  10.150  33.499  1.00  0.00    -0.013 A 
HETATM   10  S1  UNK     1      15.641  10.116  34.828  1.00  0.00    -0.105 SA
HETATM   11  C7  UNK     1      16.653   8.975  34.049  1.00  0.00     0.067 A 
BRANCH   9  12
HETATM   12  C1  UNK     1      13.369  11.021  33.553  1.00  0.00     0.017 C 
HETATM   13  C3  UNK     1      13.205  11.734  34.914  1.00  0.00     0.015 C 
HETATM   14  C4  UNK     1      13.340  12.072  32.419  1.00  0.00     0.015 C 
ENDBRANCH   9  12
ENDBRANCH   4   7
ENDBRANCH   1   3
BRANCH   2  15
HETATM   15  C12 UNK     1      18.226   3.350  31.326  1.00  0.00     0.056 A 
HETATM   16  C11 UNK     1      18.632   2.095  31.997  1.00  0.00     0.198 A 
HETATM   17  O3  UNK     1      18.528   1.939  33.206  1.00  0.00    -0.286 OA
HETATM   18  C8  UNK     1      19.170   1.038  31.119  1.00  0.00     0.050 A 
HETATM   19  C13 UNK     1      19.585  -0.185  31.650  1.00  0.00     0.042 A 
HETATM   20  C9  UNK     1      19.261   1.278  29.747  1.00  0.00     0.089 A 
HETATM   21  C16 UNK     1      20.091  -1.168  30.798  1.00  0.00     0.035 A 
HETATM   22 Cl1  UNK     1      20.605  -2.680  31.443  1.00  0.00    -0.084 Cl
HETATM   23  C17 UNK     1      20.182  -0.930  29.427  1.00  0.00     0.026 A 
HETATM   24  C14 UNK     1      19.767   0.293  28.898  1.00  0.00     0.040 A 
HETATM   25  O1  UNK     1      18.869   2.462  29.171  1.00  0.00    -0.321 OA
HETATM   26  C15 UNK     1      18.370   3.439  30.000  1.00  0.00     0.159 A 
ENDBRANCH   2  15
TORSDOF 4
ENDMDL
