MODEL 1
REMARK VINA RESULT:      -9.4      0.000      0.000
REMARK  3 active torsions:
REMARK  status: ('A' for Active; 'I' for Inactive)
REMARK       I    between atoms: C12_16  and  N1_4 
REMARK    1  A    between atoms: C6_10  and  N1_4 
REMARK    2  A    between atoms: C12_16  and  C4_8 
REMARK    3  A    between atoms: C11_15  and  C6_10 
ROOT
HETATM    1  O1  UNK     1      18.972   0.868  31.714  1.00  0.00    -0.304 OA
HETATM    2  O2  UNK     1      20.472  -0.762  28.290  1.00  0.00    -0.287 OA
HETATM    3  C1  UNK     1      20.082  -0.992  30.612  1.00  0.00     0.048 A 
HETATM    4  C2  UNK     1      19.551  -0.377  31.746  1.00  0.00     0.091 A 
HETATM    5  C3  UNK     1      20.170  -2.298  33.071  1.00  0.00    -0.059 A 
HETATM    6  C4  UNK     1      18.923   1.523  30.502  1.00  0.00     0.147 A 
HETATM    7  C5  UNK     1      19.594  -1.030  32.978  1.00  0.00     0.045 A 
HETATM    8  C7  UNK     1      20.024  -0.282  29.323  1.00  0.00     0.187 A 
HETATM    9  C8  UNK     1      20.659  -2.261  30.702  1.00  0.00     0.019 A 
HETATM   10  C9  UNK     1      20.701  -2.911  31.936  1.00  0.00     0.008 A 
HETATM   11  C10 UNK     1      19.393   1.053  29.341  1.00  0.00     0.098 A 
HETATM   12  C13 UNK     1      20.218  -2.998  34.387  1.00  0.00     0.048 C 
ENDROOT
BRANCH   6  13
HETATM   13  C12 UNK     1      18.303   2.850  30.491  1.00  0.00     0.275 C 
HETATM   14  O3  UNK     1      17.129   3.004  30.828  1.00  0.00    -0.265 OA
HETATM   15  N1  UNK     1      19.166   3.848  30.074  1.00  0.00    -0.351 N 
HETATM   16  H7  UNK     1      20.116   3.605  29.805  1.00  0.00     0.163 HD
BRANCH  15  17
HETATM   17  C6  UNK     1      18.781   5.238  29.979  1.00  0.00     0.161 C 
BRANCH  17  18
HETATM   18  C11 UNK     1      19.090   5.993  31.240  1.00  0.00    -0.041 A 
HETATM   19  C14 UNK     1      18.095   6.745  31.852  1.00  0.00     0.009 A 
HETATM   20  C16 UNK     1      18.382   7.446  33.023  1.00  0.00     0.001 A 
HETATM   21  C18 UNK     1      19.662   7.392  33.573  1.00  0.00     0.000 A 
HETATM   22  C17 UNK     1      20.656   6.636  32.951  1.00  0.00     0.001 A 
HETATM   23  C15 UNK     1      20.369   5.934  31.781  1.00  0.00     0.009 A 
ENDBRANCH  17  18
ENDBRANCH  15  17
ENDBRANCH   6  13
TORSDOF 3
ENDMDL
MODEL 2
REMARK VINA RESULT:      -9.2      2.094      3.377
REMARK  3 active torsions:
REMARK  status: ('A' for Active; 'I' for Inactive)
REMARK       I    between atoms: C12_16  and  N1_4 
REMARK    1  A    between atoms: C6_10  and  N1_4 
REMARK    2  A    between atoms: C12_16  and  C4_8 
REMARK    3  A    between atoms: C11_15  and  C6_10 
ROOT
HETATM    1  O1  UNK     1      19.054   1.539  31.792  1.00  0.00    -0.304 OA
HETATM    2  O2  UNK     1      17.918   2.514  27.998  1.00  0.00    -0.287 OA
HETATM    3  C1  UNK     1      18.933   0.937  29.441  1.00  0.00     0.048 A 
HETATM    4  C2  UNK     1      19.296   0.666  30.760  1.00  0.00     0.091 A 
HETATM    5  C3  UNK     1      20.205  -1.461  30.068  1.00  0.00    -0.059 A 
HETATM    6  C4  UNK     1      18.425   2.729  31.493  1.00  0.00     0.147 A 
HETATM    7  C5  UNK     1      19.933  -0.535  31.076  1.00  0.00     0.045 A 
HETATM    8  C7  UNK     1      18.262   2.211  29.133  1.00  0.00     0.187 A 
HETATM    9  C8  UNK     1      19.204   0.012  28.430  1.00  0.00     0.019 A 
HETATM   10  C9  UNK     1      19.841  -1.188  28.749  1.00  0.00     0.008 A 
HETATM   11  C10 UNK     1      18.025   3.116  30.276  1.00  0.00     0.098 A 
HETATM   12  C13 UNK     1      20.886  -2.746  30.402  1.00  0.00     0.048 C 
ENDROOT
BRANCH   6  13
HETATM   13  C12 UNK     1      18.178   3.646  32.608  1.00  0.00     0.275 C 
HETATM   14  O3  UNK     1      17.814   3.224  33.706  1.00  0.00    -0.265 OA
HETATM   15  N1  UNK     1      18.394   4.972  32.277  1.00  0.00    -0.351 N 
HETATM   16  H7  UNK     1      18.681   5.209  31.331  1.00  0.00     0.163 HD
BRANCH  15  17
HETATM   17  C6  UNK     1      18.214   6.059  33.212  1.00  0.00     0.161 C 
BRANCH  17  18
HETATM   18  C11 UNK     1      16.821   6.619  33.160  1.00  0.00    -0.041 A 
HETATM   19  C14 UNK     1      16.130   6.634  31.954  1.00  0.00     0.009 A 
HETATM   20  C16 UNK     1      14.837   7.153  31.907  1.00  0.00     0.001 A 
HETATM   21  C18 UNK     1      14.243   7.656  33.065  1.00  0.00     0.000 A 
HETATM   22  C17 UNK     1      14.945   7.639  34.271  1.00  0.00     0.001 A 
HETATM   23  C15 UNK     1      16.237   7.119  34.319  1.00  0.00     0.009 A 
ENDBRANCH  17  18
ENDBRANCH  15  17
ENDBRANCH   6  13
TORSDOF 3
ENDMDL
MODEL 3
REMARK VINA RESULT:      -9.2      1.859      2.722
REMARK  3 active torsions:
REMARK  status: ('A' for Active; 'I' for Inactive)
REMARK       I    between atoms: C12_16  and  N1_4 
REMARK    1  A    between atoms: C6_10  and  N1_4 
REMARK    2  A    between atoms: C12_16  and  C4_8 
REMARK    3  A    between atoms: C11_15  and  C6_10 
ROOT
HETATM    1  O1  UNK     1      18.902   1.391  31.816  1.00  0.00    -0.304 OA
HETATM    2  O2  UNK     1      18.090   2.341  27.934  1.00  0.00    -0.287 OA
HETATM    3  C1  UNK     1      19.000   0.783  29.465  1.00  0.00     0.048 A 
HETATM    4  C2  UNK     1      19.249   0.521  30.812  1.00  0.00     0.091 A 
HETATM    5  C3  UNK     1      20.252  -1.592  30.209  1.00  0.00    -0.059 A 
HETATM    6  C4  UNK     1      18.282   2.569  31.459  1.00  0.00     0.147 A 
HETATM    7  C5  UNK     1      19.876  -0.669  31.186  1.00  0.00     0.045 A 
HETATM    8  C7  UNK     1      18.338   2.046  29.095  1.00  0.00     0.187 A 
HETATM    9  C8  UNK     1      19.375  -0.138  28.484  1.00  0.00     0.019 A 
HETATM   10  C9  UNK     1      20.002  -1.327  28.862  1.00  0.00     0.008 A 
HETATM   11  C10 UNK     1      17.985   2.948  30.210  1.00  0.00     0.098 A 
HETATM   12  C13 UNK     1      20.922  -2.864  30.606  1.00  0.00     0.048 C 
ENDROOT
BRANCH   6  13
HETATM   13  C12 UNK     1      17.922   3.483  32.545  1.00  0.00     0.275 C 
HETATM   14  O3  UNK     1      17.993   3.129  33.722  1.00  0.00    -0.265 OA
HETATM   15  N1  UNK     1      17.512   4.727  32.094  1.00  0.00    -0.351 N 
HETATM   16  H7  UNK     1      17.478   4.907  31.094  1.00  0.00     0.163 HD
BRANCH  15  17
HETATM   17  C6  UNK     1      17.106   5.794  32.979  1.00  0.00     0.161 C 
BRANCH  17  18
HETATM   18  C11 UNK     1      18.256   6.685  33.350  1.00  0.00    -0.041 A 
HETATM   19  C14 UNK     1      19.527   6.406  32.863  1.00  0.00     0.009 A 
HETATM   20  C16 UNK     1      20.595   7.234  33.208  1.00  0.00     0.001 A 
HETATM   21  C18 UNK     1      20.385   8.335  34.039  1.00  0.00     0.000 A 
HETATM   22  C17 UNK     1      19.106   8.607  34.525  1.00  0.00     0.001 A 
HETATM   23  C15 UNK     1      18.037   7.780  34.179  1.00  0.00     0.009 A 
ENDBRANCH  17  18
ENDBRANCH  15  17
ENDBRANCH   6  13
TORSDOF 3
ENDMDL
MODEL 4
REMARK VINA RESULT:      -9.1      1.811      7.605
REMARK  3 active torsions:
REMARK  status: ('A' for Active; 'I' for Inactive)
REMARK       I    between atoms: C12_16  and  N1_4 
REMARK    1  A    between atoms: C6_10  and  N1_4 
REMARK    2  A    between atoms: C12_16  and  C4_8 
REMARK    3  A    between atoms: C11_15  and  C6_10 
ROOT
HETATM    1  O1  UNK     1      17.460   5.071  32.116  1.00  0.00    -0.304 OA
HETATM    2  O2  UNK     1      21.340   6.322  32.236  1.00  0.00    -0.287 OA
HETATM    3  C1  UNK     1      19.100   6.680  32.907  1.00  0.00     0.048 A 
HETATM    4  C2  UNK     1      17.793   6.199  32.824  1.00  0.00     0.091 A 
HETATM    5  C3  UNK     1      17.038   8.023  34.214  1.00  0.00    -0.059 A 
HETATM    6  C4  UNK     1      18.473   4.398  31.465  1.00  0.00     0.147 A 
HETATM    7  C5  UNK     1      16.760   6.870  33.479  1.00  0.00     0.045 A 
HETATM    8  C7  UNK     1      20.173   5.954  32.207  1.00  0.00     0.187 A 
HETATM    9  C8  UNK     1      19.382   7.834  33.643  1.00  0.00     0.019 A 
HETATM   10  C9  UNK     1      18.346   8.503  34.296  1.00  0.00     0.008 A 
HETATM   11  C10 UNK     1      19.765   4.748  31.459  1.00  0.00     0.098 A 
HETATM   12  C13 UNK     1      15.936   8.743  34.915  1.00  0.00     0.048 C 
ENDROOT
BRANCH   6  13
HETATM   13  C12 UNK     1      18.095   3.198  30.714  1.00  0.00     0.275 C 
HETATM   14  O3  UNK     1      16.964   2.722  30.808  1.00  0.00    -0.265 OA
HETATM   15  N1  UNK     1      19.125   2.702  29.933  1.00  0.00    -0.351 N 
HETATM   16  H7  UNK     1      20.028   3.169  29.943  1.00  0.00     0.163 HD
BRANCH  15  17
HETATM   17  C6  UNK     1      18.992   1.525  29.105  1.00  0.00     0.161 C 
BRANCH  17  18
HETATM   18  C11 UNK     1      19.515   0.295  29.789  1.00  0.00    -0.041 A 
HETATM   19  C14 UNK     1      19.337   0.141  31.159  1.00  0.00     0.009 A 
HETATM   20  C16 UNK     1      19.824  -1.002  31.793  1.00  0.00     0.001 A 
HETATM   21  C18 UNK     1      20.485  -1.983  31.054  1.00  0.00     0.000 A 
HETATM   22  C17 UNK     1      20.660  -1.820  29.680  1.00  0.00     0.001 A 
HETATM   23  C15 UNK     1      20.173  -0.678  29.045  1.00  0.00     0.009 A 
ENDBRANCH  17  18
ENDBRANCH  15  17
ENDBRANCH   6  13
TORSDOF 3
ENDMDL
MODEL 5
REMARK VINA RESULT:      -9.1      2.063      3.330
REMARK  3 active torsions:
REMARK  status: ('A' for Active; 'I' for Inactive)
REMARK       I    between atoms: C12_16  and  N1_4 
REMARK    1  A    between atoms: C6_10  and  N1_4 
REMARK    2  A    between atoms: C12_16  and  C4_8 
REMARK    3  A    between atoms: C11_15  and  C6_10 
ROOT
HETATM    1  O1  UNK     1      18.961  -0.271  33.065  1.00  0.00    -0.304 OA
HETATM    2  O2  UNK     1      21.371  -3.535  32.653  1.00  0.00    -0.287 OA
HETATM    3  C1  UNK     1      19.970  -2.247  34.057  1.00  0.00     0.048 A 
HETATM    4  C2  UNK     1      19.159  -1.113  34.131  1.00  0.00     0.091 A 
HETATM    5  C3  UNK     1      18.674  -1.616  36.442  1.00  0.00    -0.059 A 
HETATM    6  C4  UNK     1      19.597  -0.574  31.879  1.00  0.00     0.147 A 
HETATM    7  C5  UNK     1      18.509  -0.797  35.324  1.00  0.00     0.045 A 
HETATM    8  C7  UNK     1      20.645  -2.559  32.787  1.00  0.00     0.187 A 
HETATM    9  C8  UNK     1      20.136  -3.069  35.174  1.00  0.00     0.019 A 
HETATM   10  C9  UNK     1      19.485  -2.749  36.366  1.00  0.00     0.008 A 
HETATM   11  C10 UNK     1      20.401  -1.624  31.670  1.00  0.00     0.098 A 
HETATM   12  C13 UNK     1      17.980  -1.280  37.719  1.00  0.00     0.048 C 
ENDROOT
BRANCH   6  13
HETATM   13  C12 UNK     1      19.373   0.338  30.755  1.00  0.00     0.275 C 
HETATM   14  O3  UNK     1      19.804   0.078  29.632  1.00  0.00    -0.265 OA
HETATM   15  N1  UNK     1      18.654   1.467  31.109  1.00  0.00    -0.351 N 
HETATM   16  H7  UNK     1      18.359   1.588  32.074  1.00  0.00     0.163 HD
BRANCH  15  17
HETATM   17  C6  UNK     1      18.312   2.512  30.171  1.00  0.00     0.161 C 
BRANCH  17  18
HETATM   18  C11 UNK     1      18.580   3.879  30.731  1.00  0.00    -0.041 A 
HETATM   19  C14 UNK     1      18.193   4.179  32.031  1.00  0.00     0.009 A 
HETATM   20  C16 UNK     1      18.443   5.449  32.550  1.00  0.00     0.001 A 
HETATM   21  C18 UNK     1      19.078   6.411  31.765  1.00  0.00     0.000 A 
HETATM   22  C17 UNK     1      19.462   6.103  30.460  1.00  0.00     0.001 A 
HETATM   23  C15 UNK     1      19.213   4.833  29.941  1.00  0.00     0.009 A 
ENDBRANCH  17  18
ENDBRANCH  15  17
ENDBRANCH   6  13
TORSDOF 3
ENDMDL
MODEL 6
REMARK VINA RESULT:      -8.9      5.722     11.029
REMARK  3 active torsions:
REMARK  status: ('A' for Active; 'I' for Inactive)
REMARK       I    between atoms: C12_16  and  N1_4 
REMARK    1  A    between atoms: C6_10  and  N1_4 
REMARK    2  A    between atoms: C12_16  and  C4_8 
REMARK    3  A    between atoms: C11_15  and  C6_10 
ROOT
HETATM    1  O1  UNK     1      20.578  -3.554  35.273  1.00  0.00    -0.304 OA
HETATM    2  O2  UNK     1      17.909  -0.849  36.753  1.00  0.00    -0.287 OA
HETATM    3  C1  UNK     1      19.112  -1.656  34.883  1.00  0.00     0.048 A 
HETATM    4  C2  UNK     1      20.031  -2.609  34.442  1.00  0.00     0.091 A 
HETATM    5  C3  UNK     1      19.906  -1.690  32.213  1.00  0.00    -0.059 A 
HETATM    6  C4  UNK     1      20.192  -3.547  36.597  1.00  0.00     0.147 A 
HETATM    7  C5  UNK     1      20.428  -2.627  33.104  1.00  0.00     0.045 A 
HETATM    8  C7  UNK     1      18.708  -1.657  36.299  1.00  0.00     0.187 A 
HETATM    9  C8  UNK     1      18.587  -0.716  33.993  1.00  0.00     0.019 A 
HETATM   10  C9  UNK     1      18.988  -0.737  32.656  1.00  0.00     0.008 A 
HETATM   11  C10 UNK     1      19.325  -2.693  37.153  1.00  0.00     0.098 A 
HETATM   12  C13 UNK     1      20.329  -1.706  30.783  1.00  0.00     0.048 C 
ENDROOT
BRANCH   6  13
HETATM   13  C12 UNK     1      20.789  -4.564  37.466  1.00  0.00     0.275 C 
HETATM   14  O3  UNK     1      22.008  -4.728  37.505  1.00  0.00    -0.265 OA
HETATM   15  N1  UNK     1      19.849  -5.274  38.194  1.00  0.00    -0.351 N 
HETATM   16  H7  UNK     1      18.862  -5.063  38.073  1.00  0.00     0.163 HD
BRANCH  15  17
HETATM   17  C6  UNK     1      20.198  -6.329  39.118  1.00  0.00     0.161 C 
BRANCH  17  18
HETATM   18  C11 UNK     1      19.814  -7.683  38.595  1.00  0.00    -0.041 A 
HETATM   19  C14 UNK     1      19.172  -7.789  37.367  1.00  0.00     0.009 A 
HETATM   20  C16 UNK     1      18.816  -9.047  36.882  1.00  0.00     0.001 A 
HETATM   21  C18 UNK     1      19.103 -10.191  37.628  1.00  0.00     0.000 A 
HETATM   22  C17 UNK     1      19.746 -10.075  38.860  1.00  0.00     0.001 A 
HETATM   23  C15 UNK     1      20.104  -8.817  39.345  1.00  0.00     0.009 A 
ENDBRANCH  17  18
ENDBRANCH  15  17
ENDBRANCH   6  13
TORSDOF 3
ENDMDL
MODEL 7
REMARK VINA RESULT:      -8.8      3.882      8.665
REMARK  3 active torsions:
REMARK  status: ('A' for Active; 'I' for Inactive)
REMARK       I    between atoms: C12_16  and  N1_4 
REMARK    1  A    between atoms: C6_10  and  N1_4 
REMARK    2  A    between atoms: C12_16  and  C4_8 
REMARK    3  A    between atoms: C11_15  and  C6_10 
ROOT
HETATM    1  O1  UNK     1      19.368  -0.577  32.856  1.00  0.00    -0.304 OA
HETATM    2  O2  UNK     1      21.192  -3.389  30.532  1.00  0.00    -0.287 OA
HETATM    3  C1  UNK     1      20.087  -1.301  30.650  1.00  0.00     0.048 A 
HETATM    4  C2  UNK     1      19.474  -0.380  31.501  1.00  0.00     0.091 A 
HETATM    5  C3  UNK     1      19.017   1.054  29.614  1.00  0.00    -0.059 A 
HETATM    6  C4  UNK     1      19.894  -1.740  33.380  1.00  0.00     0.147 A 
HETATM    7  C5  UNK     1      18.939   0.800  30.984  1.00  0.00     0.045 A 
HETATM    8  C7  UNK     1      20.643  -2.539  31.220  1.00  0.00     0.187 A 
HETATM    9  C8  UNK     1      20.166  -1.049  29.278  1.00  0.00     0.019 A 
HETATM   10  C9  UNK     1      19.629   0.132  28.764  1.00  0.00     0.008 A 
HETATM   11  C10 UNK     1      20.504  -2.705  32.681  1.00  0.00     0.098 A 
HETATM   12  C13 UNK     1      18.445   2.314  29.057  1.00  0.00     0.048 C 
ENDROOT
BRANCH   6  13
HETATM   13  C12 UNK     1      19.769  -1.930  34.827  1.00  0.00     0.275 C 
HETATM   14  O3  UNK     1      19.643  -0.968  35.584  1.00  0.00    -0.265 OA
HETATM   15  N1  UNK     1      19.810  -3.261  35.203  1.00  0.00    -0.351 N 
HETATM   16  H7  UNK     1      19.932  -3.977  34.492  1.00  0.00     0.163 HD
BRANCH  15  17
HETATM   17  C6  UNK     1      19.708  -3.697  36.577  1.00  0.00     0.161 C 
BRANCH  17  18
HETATM   18  C11 UNK     1      20.334  -5.046  36.787  1.00  0.00    -0.041 A 
HETATM   19  C14 UNK     1      20.064  -6.076  35.894  1.00  0.00     0.009 A 
HETATM   20  C16 UNK     1      20.646  -7.328  36.089  1.00  0.00     0.001 A 
HETATM   21  C18 UNK     1      21.494  -7.543  37.175  1.00  0.00     0.000 A 
HETATM   22  C17 UNK     1      21.759  -6.504  38.068  1.00  0.00     0.001 A 
HETATM   23  C15 UNK     1      21.178  -5.251  37.873  1.00  0.00     0.009 A 
ENDBRANCH  17  18
ENDBRANCH  15  17
ENDBRANCH   6  13
TORSDOF 3
ENDMDL
MODEL 8
REMARK VINA RESULT:      -8.5      5.961     11.183
REMARK  3 active torsions:
REMARK  status: ('A' for Active; 'I' for Inactive)
REMARK       I    between atoms: C12_16  and  N1_4 
REMARK    1  A    between atoms: C6_10  and  N1_4 
REMARK    2  A    between atoms: C12_16  and  C4_8 
REMARK    3  A    between atoms: C11_15  and  C6_10 
ROOT
HETATM    1  O1  UNK     1      19.375  -2.656  37.489  1.00  0.00    -0.304 OA
HETATM    2  O2  UNK     1      20.234  -2.252  33.523  1.00  0.00    -0.287 OA
HETATM    3  C1  UNK     1      19.087  -1.420  35.417  1.00  0.00     0.048 A 
HETATM    4  C2  UNK     1      18.833  -1.617  36.775  1.00  0.00     0.091 A 
HETATM    5  C3  UNK     1      17.419   0.340  36.789  1.00  0.00    -0.059 A 
HETATM    6  C4  UNK     1      20.202  -3.534  36.820  1.00  0.00     0.147 A 
HETATM    7  C5  UNK     1      17.999  -0.735  37.464  1.00  0.00     0.045 A 
HETATM    8  C7  UNK     1      19.971  -2.364  34.713  1.00  0.00     0.187 A 
HETATM    9  C8  UNK     1      18.508  -0.345  34.740  1.00  0.00     0.019 A 
HETATM   10  C9  UNK     1      17.673   0.535  35.432  1.00  0.00     0.008 A 
HETATM   11  C10 UNK     1      20.528  -3.465  35.524  1.00  0.00     0.098 A 
HETATM   12  C13 UNK     1      16.526   1.284  37.522  1.00  0.00     0.048 C 
ENDROOT
BRANCH   6  13
HETATM   13  C12 UNK     1      20.768  -4.637  37.601  1.00  0.00     0.275 C 
HETATM   14  O3  UNK     1      21.969  -4.903  37.543  1.00  0.00    -0.265 OA
HETATM   15  N1  UNK     1      19.824  -5.300  38.365  1.00  0.00    -0.351 N 
HETATM   16  H7  UNK     1      18.852  -5.003  38.326  1.00  0.00     0.163 HD
BRANCH  15  17
HETATM   17  C6  UNK     1      20.144  -6.423  39.217  1.00  0.00     0.161 C 
BRANCH  17  18
HETATM   18  C11 UNK     1      19.770  -7.732  38.583  1.00  0.00    -0.041 A 
HETATM   19  C14 UNK     1      20.098  -8.923  39.220  1.00  0.00     0.009 A 
HETATM   20  C16 UNK     1      19.752 -10.138  38.632  1.00  0.00     0.001 A 
HETATM   21  C18 UNK     1      19.079 -10.156  37.410  1.00  0.00     0.000 A 
HETATM   22  C17 UNK     1      18.755  -8.956  36.776  1.00  0.00     0.001 A 
HETATM   23  C15 UNK     1      19.101  -7.740  37.365  1.00  0.00     0.009 A 
ENDBRANCH  17  18
ENDBRANCH  15  17
ENDBRANCH   6  13
TORSDOF 3
ENDMDL
MODEL 9
REMARK VINA RESULT:      -8.3     14.695     17.085
REMARK  3 active torsions:
REMARK  status: ('A' for Active; 'I' for Inactive)
REMARK       I    between atoms: C12_16  and  N1_4 
REMARK    1  A    between atoms: C6_10  and  N1_4 
REMARK    2  A    between atoms: C12_16  and  C4_8 
REMARK    3  A    between atoms: C11_15  and  C6_10 
ROOT
HETATM    1  O1  UNK     1      19.227  -1.836  14.428  1.00  0.00    -0.304 OA
HETATM    2  O2  UNK     1      17.886  -5.607  13.646  1.00  0.00    -0.287 OA
HETATM    3  C1  UNK     1      19.151  -3.743  12.924  1.00  0.00     0.048 A 
HETATM    4  C2  UNK     1      19.574  -2.455  13.253  1.00  0.00     0.091 A 
HETATM    5  C3  UNK     1      20.772  -2.320  11.161  1.00  0.00    -0.059 A 
HETATM    6  C4  UNK     1      18.425  -2.531  15.309  1.00  0.00     0.147 A 
HETATM    7  C5  UNK     1      20.387  -1.742  12.371  1.00  0.00     0.045 A 
HETATM    8  C7  UNK     1      18.294  -4.476  13.872  1.00  0.00     0.187 A 
HETATM    9  C8  UNK     1      19.535  -4.325  11.714  1.00  0.00     0.019 A 
HETATM   10  C9  UNK     1      20.347  -3.608  10.834  1.00  0.00     0.008 A 
HETATM   11  C10 UNK     1      17.947  -3.767  15.120  1.00  0.00     0.098 A 
HETATM   12  C13 UNK     1      21.640  -1.560  10.216  1.00  0.00     0.048 C 
ENDROOT
BRANCH   6  13
HETATM   13  C12 UNK     1      18.065  -1.851  16.555  1.00  0.00     0.275 C 
HETATM   14  O3  UNK     1      16.904  -1.849  16.963  1.00  0.00    -0.265 OA
HETATM   15  N1  UNK     1      19.146  -1.246  17.173  1.00  0.00    -0.351 N 
HETATM   16  H7  UNK     1      20.063  -1.299  16.738  1.00  0.00     0.163 HD
BRANCH  15  17
HETATM   17  C6  UNK     1      19.038  -0.514  18.415  1.00  0.00     0.161 C 
BRANCH  17  18
HETATM   18  C11 UNK     1      19.259   0.958  18.219  1.00  0.00    -0.041 A 
HETATM   19  C14 UNK     1      19.211   1.497  16.939  1.00  0.00     0.009 A 
HETATM   20  C16 UNK     1      19.417   2.864  16.759  1.00  0.00     0.001 A 
HETATM   21  C18 UNK     1      19.670   3.684  17.859  1.00  0.00     0.000 A 
HETATM   22  C17 UNK     1      19.718   3.135  19.140  1.00  0.00     0.001 A 
HETATM   23  C15 UNK     1      19.511   1.768  19.322  1.00  0.00     0.009 A 
ENDBRANCH  17  18
ENDBRANCH  15  17
ENDBRANCH   6  13
TORSDOF 3
ENDMDL
MODEL 10
REMARK VINA RESULT:      -8.3      3.172      4.662
REMARK  3 active torsions:
REMARK  status: ('A' for Active; 'I' for Inactive)
REMARK       I    between atoms: C12_16  and  N1_4 
REMARK    1  A    between atoms: C6_10  and  N1_4 
REMARK    2  A    between atoms: C12_16  and  C4_8 
REMARK    3  A    between atoms: C11_15  and  C6_10 
ROOT
HETATM    1  O1  UNK     1      18.792   0.099  34.471  1.00  0.00    -0.304 OA
HETATM    2  O2  UNK     1      17.180   1.346  38.004  1.00  0.00    -0.287 OA
HETATM    3  C1  UNK     1      18.287  -0.365  36.803  1.00  0.00     0.048 A 
HETATM    4  C2  UNK     1      18.819  -0.730  35.565  1.00  0.00     0.091 A 
HETATM    5  C3  UNK     1      19.466  -2.869  36.479  1.00  0.00    -0.059 A 
HETATM    6  C4  UNK     1      18.211   1.341  34.619  1.00  0.00     0.147 A 
HETATM    7  C5  UNK     1      19.410  -1.983  35.402  1.00  0.00     0.045 A 
HETATM    8  C7  UNK     1      17.667   0.963  36.949  1.00  0.00     0.187 A 
HETATM    9  C8  UNK     1      18.341  -1.249  37.882  1.00  0.00     0.019 A 
HETATM   10  C9  UNK     1      18.933  -2.502  37.715  1.00  0.00     0.008 A 
HETATM   11  C10 UNK     1      17.663   1.817  35.744  1.00  0.00     0.098 A 
HETATM   12  C13 UNK     1      20.097  -4.209  36.308  1.00  0.00     0.048 C 
ENDROOT
BRANCH   6  13
HETATM   13  C12 UNK     1      18.192   2.209  33.440  1.00  0.00     0.275 C 
HETATM   14  O3  UNK     1      18.249   1.736  32.305  1.00  0.00    -0.265 OA
HETATM   15  N1  UNK     1      18.108   3.554  33.758  1.00  0.00    -0.351 N 
HETATM   16  H7  UNK     1      18.081   3.834  34.734  1.00  0.00     0.163 HD
BRANCH  15  17
HETATM   17  C6  UNK     1      18.077   4.600  32.762  1.00  0.00     0.161 C 
BRANCH  17  18
HETATM   18  C11 UNK     1      18.476   5.931  33.333  1.00  0.00    -0.041 A 
HETATM   19  C14 UNK     1      17.573   6.644  34.111  1.00  0.00     0.009 A 
HETATM   20  C16 UNK     1      17.944   7.879  34.641  1.00  0.00     0.001 A 
HETATM   21  C18 UNK     1      19.217   8.394  34.389  1.00  0.00     0.000 A 
HETATM   22  C17 UNK     1      20.117   7.671  33.605  1.00  0.00     0.001 A 
HETATM   23  C15 UNK     1      19.746   6.436  33.076  1.00  0.00     0.009 A 
ENDBRANCH  17  18
ENDBRANCH  15  17
ENDBRANCH   6  13
TORSDOF 3
ENDMDL
