MODEL 1
REMARK VINA RESULT:      -8.0      0.000      0.000
REMARK  5 active torsions:
REMARK  status: ('A' for Active; 'I' for Inactive)
REMARK    1  A    between atoms: C8_14  and  O2_2 
REMARK    2  A    between atoms: C1_7  and  N1_5 
REMARK    3  A    between atoms: C2_8  and  N2_6 
REMARK       I    between atoms: C7_13  and  N2_6 
REMARK    4  A    between atoms: C1_7  and  C2_8 
REMARK    5  A    between atoms: C4_10  and  C7_13 
ROOT
HETATM    1  O1  UNK     1      18.851   0.452  32.281  1.00  0.00    -0.271 OA
HETATM    2  O4  UNK     1      17.955   2.552  32.383  1.00  0.00    -0.259 OA
HETATM    3  C3  UNK     1      19.880  -0.312  30.215  1.00  0.00     0.002 A 
HETATM    4  C4  UNK     1      18.930   1.913  30.321  1.00  0.00     0.108 A 
HETATM    5  C5  UNK     1      19.516  -0.542  31.538  1.00  0.00     0.123 A 
HETATM    6  C6  UNK     1      19.562   0.971  29.611  1.00  0.00     0.037 A 
HETATM    7  C8  UNK     1      19.791  -1.751  32.176  1.00  0.00     0.102 A 
HETATM    8  C11 UNK     1      20.540  -1.324  29.513  1.00  0.00     0.014 A 
HETATM    9  C12 UNK     1      18.533   1.691  31.729  1.00  0.00     0.304 A 
HETATM   10  C13 UNK     1      20.448  -2.754  31.468  1.00  0.00     0.040 A 
HETATM   11  C14 UNK     1      20.822  -2.542  30.139  1.00  0.00     0.004 A 
ENDROOT
BRANCH   4  12
HETATM   12  C7  UNK     1      18.655   3.175  29.623  1.00  0.00     0.257 C 
HETATM   13  O3  UNK     1      18.001   3.192  28.582  1.00  0.00    -0.267 OA
HETATM   14  N2  UNK     1      19.203   4.273  30.260  1.00  0.00    -0.355 N 
HETATM   15  H5  UNK     1      19.747   4.152  31.110  1.00  0.00     0.162 HD
BRANCH  14  16
HETATM   16  C2  UNK     1      19.069   5.623  29.762  1.00  0.00     0.153 C 
BRANCH  16  17
HETATM   17  C1  UNK     1      18.443   6.536  30.807  1.00  0.00     0.291 C 
BRANCH  17  18
HETATM   18  N1  UNK     1      18.611   5.970  32.139  1.00  0.00     0.081 N 
HETATM   19  C10 UNK     1      19.631   6.705  32.888  1.00  0.00     0.309 C 
HETATM   20  C9  UNK     1      17.341   5.981  32.868  1.00  0.00     0.309 C 
ENDBRANCH  17  18
ENDBRANCH  16  17
ENDBRANCH  14  16
ENDBRANCH   4  12
BRANCH   7  21
HETATM   21  O2  UNK     1      19.431  -1.960  33.471  1.00  0.00    -0.353 OA
HETATM   22  C15 UNK     1      20.392  -2.587  34.320  1.00  0.00     0.210 C 
ENDBRANCH   7  21
TORSDOF 5
ENDMDL
MODEL 2
REMARK VINA RESULT:      -7.7      3.763      7.199
REMARK  5 active torsions:
REMARK  status: ('A' for Active; 'I' for Inactive)
REMARK    1  A    between atoms: C8_14  and  O2_2 
REMARK    2  A    between atoms: C1_7  and  N1_5 
REMARK    3  A    between atoms: C2_8  and  N2_6 
REMARK       I    between atoms: C7_13  and  N2_6 
REMARK    4  A    between atoms: C1_7  and  C2_8 
REMARK    5  A    between atoms: C4_10  and  C7_13 
ROOT
HETATM    1  O1  UNK     1      18.561   1.035  31.977  1.00  0.00    -0.271 OA
HETATM    2  O4  UNK     1      17.628   1.443  34.023  1.00  0.00    -0.259 OA
HETATM    3  C3  UNK     1      19.587  -1.125  31.536  1.00  0.00     0.002 A 
HETATM    4  C4  UNK     1      18.599  -0.695  33.705  1.00  0.00     0.108 A 
HETATM    5  C5  UNK     1      19.238   0.154  31.112  1.00  0.00     0.123 A 
HETATM    6  C6  UNK     1      19.242  -1.536  32.887  1.00  0.00     0.037 A 
HETATM    7  C8  UNK     1      19.540   0.610  29.829  1.00  0.00     0.102 A 
HETATM    8  C11 UNK     1      20.257  -1.970  30.647  1.00  0.00     0.014 A 
HETATM    9  C12 UNK     1      18.218   0.670  33.276  1.00  0.00     0.304 A 
HETATM   10  C13 UNK     1      20.208  -0.239  28.951  1.00  0.00     0.040 A 
HETATM   11  C14 UNK     1      20.566  -1.526  29.358  1.00  0.00     0.004 A 
ENDROOT
BRANCH   4  12
HETATM   12  C7  UNK     1      18.294  -1.203  35.048  1.00  0.00     0.257 C 
HETATM   13  O3  UNK     1      17.267  -0.865  35.633  1.00  0.00    -0.267 OA
HETATM   14  N2  UNK     1      19.267  -2.058  35.534  1.00  0.00    -0.355 N 
HETATM   15  H5  UNK     1      20.094  -2.260  34.980  1.00  0.00     0.162 HD
BRANCH  14  16
HETATM   16  C2  UNK     1      19.190  -2.682  36.835  1.00  0.00     0.153 C 
BRANCH  16  17
HETATM   17  C1  UNK     1      20.514  -3.330  37.214  1.00  0.00     0.291 C 
BRANCH  17  18
HETATM   18  N1  UNK     1      20.314  -4.735  37.545  1.00  0.00     0.081 N 
HETATM   19  C10 UNK     1      19.801  -5.470  36.388  1.00  0.00     0.309 C 
HETATM   20  C9  UNK     1      21.563  -5.337  38.015  1.00  0.00     0.309 C 
ENDBRANCH  17  18
ENDBRANCH  16  17
ENDBRANCH  14  16
ENDBRANCH   4  12
BRANCH   7  21
HETATM   21  O2  UNK     1      19.191   1.862  29.428  1.00  0.00    -0.353 OA
HETATM   22  C15 UNK     1      17.981   1.992  28.683  1.00  0.00     0.210 C 
ENDBRANCH   7  21
TORSDOF 5
ENDMDL
MODEL 3
REMARK VINA RESULT:      -7.5      5.570      9.900
REMARK  5 active torsions:
REMARK  status: ('A' for Active; 'I' for Inactive)
REMARK    1  A    between atoms: C8_14  and  O2_2 
REMARK    2  A    between atoms: C1_7  and  N1_5 
REMARK    3  A    between atoms: C2_8  and  N2_6 
REMARK       I    between atoms: C7_13  and  N2_6 
REMARK    4  A    between atoms: C1_7  and  C2_8 
REMARK    5  A    between atoms: C4_10  and  C7_13 
ROOT
HETATM    1  O1  UNK     1      19.772  -1.119  34.852  1.00  0.00    -0.271 OA
HETATM    2  O4  UNK     1      20.842  -2.924  33.947  1.00  0.00    -0.259 OA
HETATM    3  C3  UNK     1      18.669  -1.336  37.007  1.00  0.00     0.002 A 
HETATM    4  C4  UNK     1      19.801  -3.251  36.050  1.00  0.00     0.108 A 
HETATM    5  C5  UNK     1      19.021  -0.563  35.905  1.00  0.00     0.123 A 
HETATM    6  C6  UNK     1      19.088  -2.728  37.053  1.00  0.00     0.037 A 
HETATM    7  C8  UNK     1      18.650   0.777  35.799  1.00  0.00     0.102 A 
HETATM    8  C11 UNK     1      17.924  -0.747  38.032  1.00  0.00     0.014 A 
HETATM    9  C12 UNK     1      20.188  -2.448  34.867  1.00  0.00     0.304 A 
HETATM   10  C13 UNK     1      17.907   1.355  36.826  1.00  0.00     0.040 A 
HETATM   11  C14 UNK     1      17.545   0.595  37.940  1.00  0.00     0.004 A 
ENDROOT
BRANCH   4  12
HETATM   12  C7  UNK     1      20.178  -4.662  36.189  1.00  0.00     0.257 C 
HETATM   13  O3  UNK     1      20.958  -5.025  37.068  1.00  0.00    -0.267 OA
HETATM   14  N2  UNK     1      19.573  -5.477  35.249  1.00  0.00    -0.355 N 
HETATM   15  H5  UNK     1      18.956  -5.077  34.548  1.00  0.00     0.162 HD
BRANCH  14  16
HETATM   16  C2  UNK     1      19.790  -6.904  35.184  1.00  0.00     0.153 C 
BRANCH  16  17
HETATM   17  C1  UNK     1      18.622  -7.668  35.791  1.00  0.00     0.291 C 
BRANCH  17  18
HETATM   18  N1  UNK     1      19.094  -8.568  36.835  1.00  0.00     0.081 N 
HETATM   19  C10 UNK     1      20.471  -8.988  36.572  1.00  0.00     0.309 C 
HETATM   20  C9  UNK     1      19.001  -7.929  38.149  1.00  0.00     0.309 C 
ENDBRANCH  17  18
ENDBRANCH  16  17
ENDBRANCH  14  16
ENDBRANCH   4  12
BRANCH   7  21
HETATM   21  O2  UNK     1      19.003   1.520  34.717  1.00  0.00    -0.353 OA
HETATM   22  C15 UNK     1      17.979   1.810  33.765  1.00  0.00     0.210 C 
ENDBRANCH   7  21
TORSDOF 5
ENDMDL
MODEL 4
REMARK VINA RESULT:      -7.3     15.316     17.370
REMARK  5 active torsions:
REMARK  status: ('A' for Active; 'I' for Inactive)
REMARK    1  A    between atoms: C8_14  and  O2_2 
REMARK    2  A    between atoms: C1_7  and  N1_5 
REMARK    3  A    between atoms: C2_8  and  N2_6 
REMARK       I    between atoms: C7_13  and  N2_6 
REMARK    4  A    between atoms: C1_7  and  C2_8 
REMARK    5  A    between atoms: C4_10  and  C7_13 
ROOT
HETATM    1  O1  UNK     1      19.445  -1.577  12.741  1.00  0.00    -0.271 OA
HETATM    2  O4  UNK     1      19.351   0.099  14.292  1.00  0.00    -0.259 OA
HETATM    3  C3  UNK     1      18.801  -3.834  13.374  1.00  0.00     0.002 A 
HETATM    4  C4  UNK     1      18.702  -2.060  15.020  1.00  0.00     0.108 A 
HETATM    5  C5  UNK     1      19.258  -2.934  12.416  1.00  0.00     0.123 A 
HETATM    6  C6  UNK     1      18.522  -3.351  14.717  1.00  0.00     0.037 A 
HETATM    7  C8  UNK     1      19.544  -3.333  11.111  1.00  0.00     0.102 A 
HETATM    8  C11 UNK     1      18.627  -5.172  13.012  1.00  0.00     0.014 A 
HETATM    9  C12 UNK     1      19.186  -1.085  14.018  1.00  0.00     0.304 A 
HETATM   10  C13 UNK     1      19.368  -4.669  10.759  1.00  0.00     0.040 A 
HETATM   11  C14 UNK     1      18.911  -5.587  11.707  1.00  0.00     0.004 A 
ENDROOT
BRANCH   4  12
HETATM   12  C7  UNK     1      18.391  -1.670  16.400  1.00  0.00     0.257 C 
HETATM   13  O3  UNK     1      17.276  -1.872  16.878  1.00  0.00    -0.267 OA
HETATM   14  N2  UNK     1      19.461  -1.076  17.046  1.00  0.00    -0.355 N 
HETATM   15  H5  UNK     1      20.339  -0.934  16.555  1.00  0.00     0.162 HD
BRANCH  14  16
HETATM   16  C2  UNK     1      19.396  -0.604  18.410  1.00  0.00     0.153 C 
BRANCH  16  17
HETATM   17  C1  UNK     1      18.908   0.836  18.472  1.00  0.00     0.291 C 
BRANCH  17  18
HETATM   18  N1  UNK     1      18.988   1.339  19.838  1.00  0.00     0.081 N 
HETATM   19  C10 UNK     1      19.462   0.295  20.746  1.00  0.00     0.309 C 
HETATM   20  C9  UNK     1      19.865   2.509  19.907  1.00  0.00     0.309 C 
ENDBRANCH  17  18
ENDBRANCH  16  17
ENDBRANCH  14  16
ENDBRANCH   4  12
BRANCH   7  21
HETATM   21  O2  UNK     1      19.988  -2.442  10.185  1.00  0.00    -0.353 OA
HETATM   22  C15 UNK     1      21.368  -2.513   9.823  1.00  0.00     0.210 C 
ENDBRANCH   7  21
TORSDOF 5
ENDMDL
MODEL 5
REMARK VINA RESULT:      -7.3      3.946      7.721
REMARK  5 active torsions:
REMARK  status: ('A' for Active; 'I' for Inactive)
REMARK    1  A    between atoms: C8_14  and  O2_2 
REMARK    2  A    between atoms: C1_7  and  N1_5 
REMARK    3  A    between atoms: C2_8  and  N2_6 
REMARK       I    between atoms: C7_13  and  N2_6 
REMARK    4  A    between atoms: C1_7  and  C2_8 
REMARK    5  A    between atoms: C4_10  and  C7_13 
ROOT
HETATM    1  O1  UNK     1      18.736   0.172  32.565  1.00  0.00    -0.271 OA
HETATM    2  O4  UNK     1      18.407  -0.105  34.810  1.00  0.00    -0.259 OA
HETATM    3  C3  UNK     1      20.236  -1.330  31.380  1.00  0.00     0.002 A 
HETATM    4  C4  UNK     1      19.889  -1.625  33.759  1.00  0.00     0.108 A 
HETATM    5  C5  UNK     1      19.364  -0.246  31.376  1.00  0.00     0.123 A 
HETATM    6  C6  UNK     1      20.489  -2.026  32.632  1.00  0.00     0.037 A 
HETATM    7  C8  UNK     1      19.080   0.463  30.210  1.00  0.00     0.102 A 
HETATM    8  C11 UNK     1      20.839  -1.714  30.179  1.00  0.00     0.014 A 
HETATM    9  C12 UNK     1      18.959  -0.474  33.779  1.00  0.00     0.304 A 
HETATM   10  C13 UNK     1      19.685   0.074  29.018  1.00  0.00     0.040 A 
HETATM   11  C14 UNK     1      20.563  -1.012  29.002  1.00  0.00     0.004 A 
ENDROOT
BRANCH   4  12
HETATM   12  C7  UNK     1      20.208  -2.391  34.970  1.00  0.00     0.257 C 
HETATM   13  O3  UNK     1      21.372  -2.542  35.334  1.00  0.00    -0.267 OA
HETATM   14  N2  UNK     1      19.083  -2.891  35.602  1.00  0.00    -0.355 N 
HETATM   15  H5  UNK     1      18.161  -2.728  35.208  1.00  0.00     0.162 HD
BRANCH  14  16
HETATM   16  C2  UNK     1      19.143  -3.680  36.811  1.00  0.00     0.153 C 
BRANCH  16  17
HETATM   17  C1  UNK     1      19.231  -5.166  36.495  1.00  0.00     0.291 C 
BRANCH  17  18
HETATM   18  N1  UNK     1      20.567  -5.668  36.790  1.00  0.00     0.081 N 
HETATM   19  C10 UNK     1      20.832  -5.619  38.228  1.00  0.00     0.309 C 
HETATM   20  C9  UNK     1      20.727  -7.035  36.291  1.00  0.00     0.309 C 
ENDBRANCH  17  18
ENDBRANCH  16  17
ENDBRANCH  14  16
ENDBRANCH   4  12
BRANCH   7  21
HETATM   21  O2  UNK     1      18.224   1.520  30.222  1.00  0.00    -0.353 OA
HETATM   22  C15 UNK     1      17.873   2.087  28.959  1.00  0.00     0.210 C 
ENDBRANCH   7  21
TORSDOF 5
ENDMDL
MODEL 6
REMARK VINA RESULT:      -7.2     13.404     16.000
REMARK  5 active torsions:
REMARK  status: ('A' for Active; 'I' for Inactive)
REMARK    1  A    between atoms: C8_14  and  O2_2 
REMARK    2  A    between atoms: C1_7  and  N1_5 
REMARK    3  A    between atoms: C2_8  and  N2_6 
REMARK       I    between atoms: C7_13  and  N2_6 
REMARK    4  A    between atoms: C1_7  and  C2_8 
REMARK    5  A    between atoms: C4_10  and  C7_13 
ROOT
HETATM    1  O1  UNK     1      19.288   1.690  17.155  1.00  0.00    -0.271 OA
HETATM    2  O4  UNK     1      19.139   0.879  15.024  1.00  0.00    -0.259 OA
HETATM    3  C3  UNK     1      19.190   0.150  19.034  1.00  0.00     0.002 A 
HETATM    4  C4  UNK     1      19.030  -0.712  16.776  1.00  0.00     0.108 A 
HETATM    5  C5  UNK     1      19.307   1.447  18.542  1.00  0.00     0.123 A 
HETATM    6  C6  UNK     1      19.047  -0.949  18.093  1.00  0.00     0.037 A 
HETATM    7  C8  UNK     1      19.446   2.544  19.391  1.00  0.00     0.102 A 
HETATM    8  C11 UNK     1      19.214  -0.050  20.416  1.00  0.00     0.014 A 
HETATM    9  C12 UNK     1      19.153   0.658  16.230  1.00  0.00     0.304 A 
HETATM   10  C13 UNK     1      19.468   2.335  20.767  1.00  0.00     0.040 A 
HETATM   11  C14 UNK     1      19.352   1.040  21.280  1.00  0.00     0.004 A 
ENDROOT
BRANCH   4  12
HETATM   12  C7  UNK     1      18.883  -1.886  15.908  1.00  0.00     0.257 C 
HETATM   13  O3  UNK     1      17.778  -2.384  15.699  1.00  0.00    -0.267 OA
HETATM   14  N2  UNK     1      20.088  -2.329  15.393  1.00  0.00    -0.355 N 
HETATM   15  H5  UNK     1      20.954  -1.861  15.643  1.00  0.00     0.162 HD
BRANCH  14  16
HETATM   16  C2  UNK     1      20.199  -3.471  14.515  1.00  0.00     0.153 C 
BRANCH  16  17
HETATM   17  C1  UNK     1      20.470  -3.039  13.081  1.00  0.00     0.291 C 
BRANCH  17  18
HETATM   18  N1  UNK     1      19.218  -2.737  12.398  1.00  0.00     0.081 N 
HETATM   19  C10 UNK     1      19.105  -1.302  12.139  1.00  0.00     0.309 C 
HETATM   20  C9  UNK     1      19.119  -3.488  11.145  1.00  0.00     0.309 C 
ENDBRANCH  17  18
ENDBRANCH  16  17
ENDBRANCH  14  16
ENDBRANCH   4  12
BRANCH   7  21
HETATM   21  O2  UNK     1      19.561   3.805  18.895  1.00  0.00    -0.353 OA
HETATM   22  C15 UNK     1      20.872   4.249  18.544  1.00  0.00     0.210 C 
ENDBRANCH   7  21
TORSDOF 5
ENDMDL
MODEL 7
REMARK VINA RESULT:      -7.2      6.724      9.699
REMARK  5 active torsions:
REMARK  status: ('A' for Active; 'I' for Inactive)
REMARK    1  A    between atoms: C8_14  and  O2_2 
REMARK    2  A    between atoms: C1_7  and  N1_5 
REMARK    3  A    between atoms: C2_8  and  N2_6 
REMARK       I    between atoms: C7_13  and  N2_6 
REMARK    4  A    between atoms: C1_7  and  C2_8 
REMARK    5  A    between atoms: C4_10  and  C7_13 
ROOT
HETATM    1  O1  UNK     1      18.989  -7.391  37.709  1.00  0.00    -0.271 OA
HETATM    2  O4  UNK     1      17.656  -6.047  36.428  1.00  0.00    -0.259 OA
HETATM    3  C3  UNK     1      21.140  -6.560  38.479  1.00  0.00     0.002 A 
HETATM    4  C4  UNK     1      19.730  -5.135  37.121  1.00  0.00     0.108 A 
HETATM    5  C5  UNK     1      20.190  -7.575  38.420  1.00  0.00     0.123 A 
HETATM    6  C6  UNK     1      20.873  -5.306  37.795  1.00  0.00     0.037 A 
HETATM    7  C8  UNK     1      20.386  -8.802  39.054  1.00  0.00     0.102 A 
HETATM    8  C11 UNK     1      22.319  -6.783  39.195  1.00  0.00     0.014 A 
HETATM    9  C12 UNK     1      18.705  -6.200  37.044  1.00  0.00     0.304 A 
HETATM   10  C13 UNK     1      21.564  -9.014  39.765  1.00  0.00     0.040 A 
HETATM   11  C14 UNK     1      22.529  -8.007  39.836  1.00  0.00     0.004 A 
ENDROOT
BRANCH   4  12
HETATM   12  C7  UNK     1      19.552  -3.834  36.465  1.00  0.00     0.257 C 
HETATM   13  O3  UNK     1      20.374  -3.420  35.649  1.00  0.00    -0.267 OA
HETATM   14  N2  UNK     1      18.404  -3.179  36.871  1.00  0.00    -0.355 N 
HETATM   15  H5  UNK     1      17.796  -3.597  37.570  1.00  0.00     0.162 HD
BRANCH  14  16
HETATM   16  C2  UNK     1      18.015  -1.881  36.368  1.00  0.00     0.153 C 
BRANCH  16  17
HETATM   17  C1  UNK     1      17.875  -0.871  37.498  1.00  0.00     0.291 C 
BRANCH  17  18
HETATM   18  N1  UNK     1      16.846   0.109  37.177  1.00  0.00     0.081 N 
HETATM   19  C10 UNK     1      17.324   1.466  37.441  1.00  0.00     0.309 C 
HETATM   20  C9  UNK     1      16.430  -0.019  35.778  1.00  0.00     0.309 C 
ENDBRANCH  17  18
ENDBRANCH  16  17
ENDBRANCH  14  16
ENDBRANCH   4  12
BRANCH   7  21
HETATM   21  O2  UNK     1      19.447  -9.784  38.988  1.00  0.00    -0.353 OA
HETATM   22  C15 UNK     1      19.674 -10.838  38.052  1.00  0.00     0.210 C 
ENDBRANCH   7  21
TORSDOF 5
ENDMDL
MODEL 8
REMARK VINA RESULT:      -7.2     13.479     16.295
REMARK  5 active torsions:
REMARK  status: ('A' for Active; 'I' for Inactive)
REMARK    1  A    between atoms: C8_14  and  O2_2 
REMARK    2  A    between atoms: C1_7  and  N1_5 
REMARK    3  A    between atoms: C2_8  and  N2_6 
REMARK       I    between atoms: C7_13  and  N2_6 
REMARK    4  A    between atoms: C1_7  and  C2_8 
REMARK    5  A    between atoms: C4_10  and  C7_13 
ROOT
HETATM    1  O1  UNK     1      19.379   1.312  16.332  1.00  0.00    -0.271 OA
HETATM    2  O4  UNK     1      19.529   0.256  14.311  1.00  0.00    -0.259 OA
HETATM    3  C3  UNK     1      18.785   0.033  18.312  1.00  0.00     0.002 A 
HETATM    4  C4  UNK     1      18.943  -1.089  16.171  1.00  0.00     0.108 A 
HETATM    5  C5  UNK     1      19.123   1.243  17.715  1.00  0.00     0.123 A 
HETATM    6  C6  UNK     1      18.699  -1.160  17.485  1.00  0.00     0.037 A 
HETATM    7  C8  UNK     1      19.222   2.423  18.451  1.00  0.00     0.102 A 
HETATM    8  C11 UNK     1      18.540   0.006  19.687  1.00  0.00     0.014 A 
HETATM    9  C12 UNK     1      19.304   0.187  15.514  1.00  0.00     0.304 A 
HETATM   10  C13 UNK     1      18.976   2.387  19.821  1.00  0.00     0.040 A 
HETATM   11  C14 UNK     1      18.636   1.181  20.439  1.00  0.00     0.004 A 
ENDROOT
BRANCH   4  12
HETATM   12  C7  UNK     1      18.832  -2.347  15.423  1.00  0.00     0.257 C 
HETATM   13  O3  UNK     1      17.734  -2.788  15.087  1.00  0.00    -0.267 OA
HETATM   14  N2  UNK     1      20.059  -2.931  15.167  1.00  0.00    -0.355 N 
HETATM   15  H5  UNK     1      20.913  -2.497  15.506  1.00  0.00     0.162 HD
BRANCH  14  16
HETATM   16  C2  UNK     1      20.206  -4.176  14.448  1.00  0.00     0.153 C 
BRANCH  16  17
HETATM   17  C1  UNK     1      20.124  -5.369  15.390  1.00  0.00     0.291 C 
BRANCH  17  18
HETATM   18  N1  UNK     1      19.055  -6.269  14.976  1.00  0.00     0.081 N 
HETATM   19  C10 UNK     1      17.938  -6.212  15.919  1.00  0.00     0.309 C 
HETATM   20  C9  UNK     1      18.596  -5.939  13.626  1.00  0.00     0.309 C 
ENDBRANCH  17  18
ENDBRANCH  16  17
ENDBRANCH  14  16
ENDBRANCH   4  12
BRANCH   7  21
HETATM   21  O2  UNK     1      19.555   3.598  17.853  1.00  0.00    -0.353 OA
HETATM   22  C15 UNK     1      20.636   4.335  18.425  1.00  0.00     0.210 C 
ENDBRANCH   7  21
TORSDOF 5
ENDMDL
MODEL 9
REMARK VINA RESULT:      -7.0      1.772      2.583
REMARK  5 active torsions:
REMARK  status: ('A' for Active; 'I' for Inactive)
REMARK    1  A    between atoms: C8_14  and  O2_2 
REMARK    2  A    between atoms: C1_7  and  N1_5 
REMARK    3  A    between atoms: C2_8  and  N2_6 
REMARK       I    between atoms: C7_13  and  N2_6 
REMARK    4  A    between atoms: C1_7  and  C2_8 
REMARK    5  A    between atoms: C4_10  and  C7_13 
ROOT
HETATM    1  O1  UNK     1      18.799   0.794  32.890  1.00  0.00    -0.271 OA
HETATM    2  O4  UNK     1      18.055   2.381  34.357  1.00  0.00    -0.259 OA
HETATM    3  C3  UNK     1      19.107   1.376  30.550  1.00  0.00     0.002 A 
HETATM    4  C4  UNK     1      18.317   3.059  32.102  1.00  0.00     0.108 A 
HETATM    5  C5  UNK     1      19.165   0.440  31.577  1.00  0.00     0.123 A 
HETATM    6  C6  UNK     1      18.663   2.727  30.853  1.00  0.00     0.037 A 
HETATM    7  C8  UNK     1      19.581  -0.872  31.353  1.00  0.00     0.102 A 
HETATM    8  C11 UNK     1      19.479   0.985  29.261  1.00  0.00     0.014 A 
HETATM    9  C12 UNK     1      18.370   2.080  33.211  1.00  0.00     0.304 A 
HETATM   10  C13 UNK     1      19.949  -1.253  30.065  1.00  0.00     0.040 A 
HETATM   11  C14 UNK     1      19.898  -0.326  29.021  1.00  0.00     0.004 A 
ENDROOT
BRANCH   4  12
HETATM   12  C7  UNK     1      17.884   4.446  32.308  1.00  0.00     0.257 C 
HETATM   13  O3  UNK     1      16.928   4.909  31.688  1.00  0.00    -0.267 OA
HETATM   14  N2  UNK     1      18.657   5.120  33.237  1.00  0.00    -0.355 N 
HETATM   15  H5  UNK     1      19.443   4.654  33.682  1.00  0.00     0.162 HD
BRANCH  14  16
HETATM   16  C2  UNK     1      18.426   6.498  33.605  1.00  0.00     0.153 C 
BRANCH  16  17
HETATM   17  C1  UNK     1      17.184   6.635  34.474  1.00  0.00     0.291 C 
BRANCH  17  18
HETATM   18  N1  UNK     1      16.393   7.783  34.048  1.00  0.00     0.081 N 
HETATM   19  C10 UNK     1      16.956   8.377  32.835  1.00  0.00     0.309 C 
HETATM   20  C9  UNK     1      14.999   7.394  33.822  1.00  0.00     0.309 C 
ENDBRANCH  17  18
ENDBRANCH  16  17
ENDBRANCH  14  16
ENDBRANCH   4  12
BRANCH   7  21
HETATM   21  O2  UNK     1      19.633  -1.776  32.368  1.00  0.00    -0.353 OA
HETATM   22  C15 UNK     1      20.860  -2.484  32.545  1.00  0.00     0.210 C 
ENDBRANCH   7  21
TORSDOF 5
ENDMDL
MODEL 10
REMARK VINA RESULT:      -7.0      3.749      7.682
REMARK  5 active torsions:
REMARK  status: ('A' for Active; 'I' for Inactive)
REMARK    1  A    between atoms: C8_14  and  O2_2 
REMARK    2  A    between atoms: C1_7  and  N1_5 
REMARK    3  A    between atoms: C2_8  and  N2_6 
REMARK       I    between atoms: C7_13  and  N2_6 
REMARK    4  A    between atoms: C1_7  and  C2_8 
REMARK    5  A    between atoms: C4_10  and  C7_13 
ROOT
HETATM    1  O1  UNK     1      18.756   0.446  31.726  1.00  0.00    -0.271 OA
HETATM    2  O4  UNK     1      18.774  -1.628  32.687  1.00  0.00    -0.259 OA
HETATM    3  C3  UNK     1      18.264   2.396  33.092  1.00  0.00     0.002 A 
HETATM    4  C4  UNK     1      18.282   0.200  34.113  1.00  0.00     0.108 A 
HETATM    5  C5  UNK     1      18.581   1.837  31.858  1.00  0.00     0.123 A 
HETATM    6  C6  UNK     1      18.115   1.521  34.243  1.00  0.00     0.037 A 
HETATM    7  C8  UNK     1      18.737   2.620  30.715  1.00  0.00     0.102 A 
HETATM    8  C11 UNK     1      18.100   3.781  33.181  1.00  0.00     0.014 A 
HETATM    9  C12 UNK     1      18.619  -0.418  32.810  1.00  0.00     0.304 A 
HETATM   10  C13 UNK     1      18.571   3.999  30.814  1.00  0.00     0.040 A 
HETATM   11  C14 UNK     1      18.253   4.579  32.044  1.00  0.00     0.004 A 
ENDROOT
BRANCH   4  12
HETATM   12  C7  UNK     1      18.112  -0.599  35.332  1.00  0.00     0.257 C 
HETATM   13  O3  UNK     1      17.089  -0.508  36.010  1.00  0.00    -0.267 OA
HETATM   14  N2  UNK     1      19.197  -1.414  35.598  1.00  0.00    -0.355 N 
HETATM   15  H5  UNK     1      20.007  -1.402  34.985  1.00  0.00     0.162 HD
BRANCH  14  16
HETATM   16  C2  UNK     1      19.264  -2.290  36.745  1.00  0.00     0.153 C 
BRANCH  16  17
HETATM   17  C1  UNK     1      20.518  -3.153  36.707  1.00  0.00     0.291 C 
BRANCH  17  18
HETATM   18  N1  UNK     1      20.234  -4.483  37.231  1.00  0.00     0.081 N 
HETATM   19  C10 UNK     1      19.771  -5.370  36.163  1.00  0.00     0.309 C 
HETATM   20  C9  UNK     1      21.419  -5.046  37.880  1.00  0.00     0.309 C 
ENDBRANCH  17  18
ENDBRANCH  16  17
ENDBRANCH  14  16
ENDBRANCH   4  12
BRANCH   7  21
HETATM   21  O2  UNK     1      19.049   2.059  29.516  1.00  0.00    -0.353 OA
HETATM   22  C15 UNK     1      17.980   1.873  28.588  1.00  0.00     0.210 C 
ENDBRANCH   7  21
TORSDOF 5
ENDMDL
