MODEL 1
REMARK VINA RESULT:      -8.0      0.000      0.000
REMARK  7 active torsions:
REMARK  status: ('A' for Active; 'I' for Inactive)
REMARK    1  A    between atoms: C1_7  and  O1_1 
REMARK    2  A    between atoms: C3_9  and  O1_1 
REMARK    3  A    between atoms: C5_11  and  O2_2 
REMARK    4  A    between atoms: C20_26  and  N1_5 
REMARK    5  A    between atoms: C1_7  and  C2_8 
REMARK    6  A    between atoms: C12_18  and  C6_12 
REMARK    7  A    between atoms: C15_21  and  C16_22 
ROOT
HETATM    1  N2  UNK     1      27.463 -10.118  40.097  1.00  0.00    -0.191 NA
HETATM    2  C12 UNK     1      27.837  -9.309  36.767  1.00  0.00     0.035 C 
HETATM    3  C15 UNK     1      28.456  -9.044  37.948  1.00  0.00     0.055 C 
HETATM    4  C24 UNK     1      27.899  -9.643  39.132  1.00  0.00     0.100 C 
ENDROOT
BRANCH   3   5
HETATM    5  C16 UNK     1      29.638  -8.205  38.072  1.00  0.00    -0.015 A 
HETATM    6  C18 UNK     1      29.501  -6.832  38.271  1.00  0.00     0.015 A 
HETATM    7  C21 UNK     1      30.635  -6.028  38.393  1.00  0.00     0.037 A 
HETATM    8  C20 UNK     1      31.905  -6.599  38.314  1.00  0.00     0.102 A 
HETATM    9  C22 UNK     1      32.042  -7.973  38.114  1.00  0.00     0.037 A 
HETATM   10  C19 UNK     1      30.908  -8.776  37.993  1.00  0.00     0.015 A 
BRANCH   8  11
HETATM   11  N1  UNK     1      33.060  -5.782  38.437  1.00  0.00    -0.116 N 
HETATM   12  O3  UNK     1      34.134  -6.165  37.913  1.00  0.00    -0.532 OA
HETATM   13  O4  UNK     1      32.975  -4.698  39.065  1.00  0.00    -0.532 OA
ENDBRANCH   8  11
ENDBRANCH   3   5
BRANCH   2  14
HETATM   14  C6  UNK     1      28.234  -8.780  35.454  1.00  0.00    -0.032 A 
HETATM   15  C10 UNK     1      29.009  -9.561  34.610  1.00  0.00     0.051 A 
HETATM   16  C5  UNK     1      29.386  -9.058  33.364  1.00  0.00     0.102 A 
HETATM   17  C3  UNK     1      28.983  -7.780  32.977  1.00  0.00     0.103 A 
HETATM   18  C7  UNK     1      28.204  -7.005  33.835  1.00  0.00     0.040 A 
HETATM   19  C11 UNK     1      27.828  -7.508  35.080  1.00  0.00     0.014 A 
BRANCH  16  20
HETATM   20  O2  UNK     1      30.147  -9.825  32.535  1.00  0.00    -0.353 OA
HETATM   21  C23 UNK     1      29.771 -11.194  32.392  1.00  0.00     0.210 C 
ENDBRANCH  16  20
BRANCH  17  22
HETATM   22  O1  UNK     1      29.344  -7.279  31.762  1.00  0.00    -0.339 OA
BRANCH  22  23
HETATM   23  C1  UNK     1      28.378  -7.354  30.717  1.00  0.00     0.158 C 
HETATM   24  C4  UNK     1      28.127  -5.961  30.151  1.00  0.00     0.045 C 
BRANCH  23  25
HETATM   25  C2  UNK     1      28.863  -8.316  29.659  1.00  0.00    -0.029 A 
HETATM   26  C8  UNK     1      30.140  -8.169  29.143  1.00  0.00     0.010 A 
HETATM   27  C13 UNK     1      30.589  -9.057  28.165  1.00  0.00     0.001 A 
HETATM   28  C17 UNK     1      29.754 -10.081  27.718  1.00  0.00     0.000 A 
HETATM   29  C14 UNK     1      28.471 -10.217  28.248  1.00  0.00     0.001 A 
HETATM   30  C9  UNK     1      28.023  -9.329  29.225  1.00  0.00     0.010 A 
ENDBRANCH  23  25
ENDBRANCH  22  23
ENDBRANCH  17  22
ENDBRANCH   2  14
TORSDOF 7
ENDMDL
MODEL 2
REMARK VINA RESULT:      -7.9      3.570      8.328
REMARK  7 active torsions:
REMARK  status: ('A' for Active; 'I' for Inactive)
REMARK    1  A    between atoms: C1_7  and  O1_1 
REMARK    2  A    between atoms: C3_9  and  O1_1 
REMARK    3  A    between atoms: C5_11  and  O2_2 
REMARK    4  A    between atoms: C20_26  and  N1_5 
REMARK    5  A    between atoms: C1_7  and  C2_8 
REMARK    6  A    between atoms: C12_18  and  C6_12 
REMARK    7  A    between atoms: C15_21  and  C16_22 
ROOT
HETATM    1  N2  UNK     1      25.379  -6.238  29.638  1.00  0.00    -0.191 NA
HETATM    2  C12 UNK     1      27.362  -6.595  32.436  1.00  0.00     0.035 C 
HETATM    3  C15 UNK     1      27.429  -6.873  31.107  1.00  0.00     0.055 C 
HETATM    4  C24 UNK     1      26.289  -6.518  30.302  1.00  0.00     0.100 C 
ENDROOT
BRANCH   3   5
HETATM    5  C16 UNK     1      28.577  -7.493  30.466  1.00  0.00    -0.015 A 
HETATM    6  C18 UNK     1      28.655  -8.882  30.367  1.00  0.00     0.015 A 
HETATM    7  C21 UNK     1      29.757  -9.477  29.750  1.00  0.00     0.037 A 
HETATM    8  C20 UNK     1      30.779  -8.682  29.234  1.00  0.00     0.102 A 
HETATM    9  C22 UNK     1      30.701  -7.292  29.333  1.00  0.00     0.037 A 
HETATM   10  C19 UNK     1      29.601  -6.698  29.949  1.00  0.00     0.015 A 
BRANCH   8  11
HETATM   11  N1  UNK     1      31.901  -9.286  28.606  1.00  0.00    -0.116 N 
HETATM   12  O3  UNK     1      32.222  -8.918  27.450  1.00  0.00    -0.532 OA
HETATM   13  O4  UNK     1      32.542 -10.170  29.225  1.00  0.00    -0.532 OA
ENDBRANCH   8  11
ENDBRANCH   3   5
BRANCH   2  14
HETATM   14  C6  UNK     1      28.405  -6.897  33.427  1.00  0.00    -0.032 A 
HETATM   15  C10 UNK     1      29.428  -5.985  33.640  1.00  0.00     0.051 A 
HETATM   16  C5  UNK     1      30.418  -6.272  34.580  1.00  0.00     0.102 A 
HETATM   17  C3  UNK     1      30.372  -7.467  35.298  1.00  0.00     0.103 A 
HETATM   18  C7  UNK     1      29.337  -8.375  35.076  1.00  0.00     0.040 A 
HETATM   19  C11 UNK     1      28.349  -8.088  34.135  1.00  0.00     0.014 A 
BRANCH  16  20
HETATM   20  O2  UNK     1      31.423  -5.377  34.789  1.00  0.00    -0.353 OA
HETATM   21  C23 UNK     1      32.662  -5.627  34.128  1.00  0.00     0.210 C 
ENDBRANCH  16  20
BRANCH  17  22
HETATM   22  O1  UNK     1      31.332  -7.757  36.220  1.00  0.00    -0.339 OA
BRANCH  22  23
HETATM   23  C1  UNK     1      30.900  -7.967  37.563  1.00  0.00     0.158 C 
HETATM   24  C4  UNK     1      32.077  -8.434  38.411  1.00  0.00     0.045 C 
BRANCH  23  25
HETATM   25  C2  UNK     1      30.290  -6.692  38.093  1.00  0.00    -0.029 A 
HETATM   26  C8  UNK     1      31.084  -5.565  38.231  1.00  0.00     0.010 A 
HETATM   27  C13 UNK     1      30.520  -4.387  38.723  1.00  0.00     0.001 A 
HETATM   28  C17 UNK     1      29.169  -4.353  39.068  1.00  0.00     0.000 A 
HETATM   29  C14 UNK     1      28.381  -5.495  38.922  1.00  0.00     0.001 A 
HETATM   30  C9  UNK     1      28.946  -6.672  38.431  1.00  0.00     0.010 A 
ENDBRANCH  23  25
ENDBRANCH  22  23
ENDBRANCH  17  22
ENDBRANCH   2  14
TORSDOF 7
ENDMDL
MODEL 3
REMARK VINA RESULT:      -7.9      2.555      3.283
REMARK  7 active torsions:
REMARK  status: ('A' for Active; 'I' for Inactive)
REMARK    1  A    between atoms: C1_7  and  O1_1 
REMARK    2  A    between atoms: C3_9  and  O1_1 
REMARK    3  A    between atoms: C5_11  and  O2_2 
REMARK    4  A    between atoms: C20_26  and  N1_5 
REMARK    5  A    between atoms: C1_7  and  C2_8 
REMARK    6  A    between atoms: C12_18  and  C6_12 
REMARK    7  A    between atoms: C15_21  and  C16_22 
ROOT
HETATM    1  N2  UNK     1      30.663 -10.985  39.736  1.00  0.00    -0.191 NA
HETATM    2  C12 UNK     1      30.421  -9.795  36.508  1.00  0.00     0.035 C 
HETATM    3  C15 UNK     1      29.934  -9.486  37.740  1.00  0.00     0.055 C 
HETATM    4  C24 UNK     1      30.343 -10.322  38.838  1.00  0.00     0.100 C 
ENDROOT
BRANCH   3   5
HETATM    5  C16 UNK     1      29.042  -8.368  37.999  1.00  0.00    -0.015 A 
HETATM    6  C18 UNK     1      29.558  -7.078  38.126  1.00  0.00     0.015 A 
HETATM    7  C21 UNK     1      28.701  -6.005  38.373  1.00  0.00     0.037 A 
HETATM    8  C20 UNK     1      27.329  -6.223  38.494  1.00  0.00     0.102 A 
HETATM    9  C22 UNK     1      26.813  -7.513  38.368  1.00  0.00     0.037 A 
HETATM   10  C19 UNK     1      27.670  -8.585  38.121  1.00  0.00     0.015 A 
BRANCH   8  11
HETATM   11  N1  UNK     1      26.456  -5.132  38.746  1.00  0.00    -0.116 N 
HETATM   12  O3  UNK     1      26.947  -4.008  39.009  1.00  0.00    -0.532 OA
HETATM   13  O4  UNK     1      25.215  -5.321  38.699  1.00  0.00    -0.532 OA
ENDBRANCH   8  11
ENDBRANCH   3   5
BRANCH   2  14
HETATM   14  C6  UNK     1      30.110  -9.084  35.261  1.00  0.00    -0.032 A 
HETATM   15  C10 UNK     1      30.991  -8.126  34.783  1.00  0.00     0.051 A 
HETATM   16  C5  UNK     1      30.695  -7.450  33.599  1.00  0.00     0.102 A 
HETATM   17  C3  UNK     1      29.520  -7.741  32.906  1.00  0.00     0.103 A 
HETATM   18  C7  UNK     1      28.642  -8.708  33.396  1.00  0.00     0.040 A 
HETATM   19  C11 UNK     1      28.938  -9.382  34.580  1.00  0.00     0.014 A 
BRANCH  16  20
HETATM   20  O2  UNK     1      31.561  -6.510  33.130  1.00  0.00    -0.353 OA
HETATM   21  C23 UNK     1      32.890  -6.537  33.646  1.00  0.00     0.210 C 
ENDBRANCH  16  20
BRANCH  17  22
HETATM   22  O1  UNK     1      29.220  -7.090  31.747  1.00  0.00    -0.339 OA
BRANCH  22  23
HETATM   23  C1  UNK     1      28.145  -7.610  30.969  1.00  0.00     0.158 C 
HETATM   24  C4  UNK     1      27.266  -6.464  30.480  1.00  0.00     0.045 C 
BRANCH  23  25
HETATM   25  C2  UNK     1      28.705  -8.422  29.827  1.00  0.00    -0.029 A 
HETATM   26  C8  UNK     1      29.972  -8.134  29.346  1.00  0.00     0.010 A 
HETATM   27  C13 UNK     1      30.490  -8.884  28.289  1.00  0.00     0.001 A 
HETATM   28  C17 UNK     1      29.733  -9.913  27.729  1.00  0.00     0.000 A 
HETATM   29  C14 UNK     1      28.459 -10.192  28.224  1.00  0.00     0.001 A 
HETATM   30  C9  UNK     1      27.942  -9.442  29.280  1.00  0.00     0.010 A 
ENDBRANCH  23  25
ENDBRANCH  22  23
ENDBRANCH  17  22
ENDBRANCH   2  14
TORSDOF 7
ENDMDL
MODEL 4
REMARK VINA RESULT:      -7.8      2.234      3.651
REMARK  7 active torsions:
REMARK  status: ('A' for Active; 'I' for Inactive)
REMARK    1  A    between atoms: C1_7  and  O1_1 
REMARK    2  A    between atoms: C3_9  and  O1_1 
REMARK    3  A    between atoms: C5_11  and  O2_2 
REMARK    4  A    between atoms: C20_26  and  N1_5 
REMARK    5  A    between atoms: C1_7  and  C2_8 
REMARK    6  A    between atoms: C12_18  and  C6_12 
REMARK    7  A    between atoms: C15_21  and  C16_22 
ROOT
HETATM    1  N2  UNK     1      29.475  -3.726  39.987  1.00  0.00    -0.191 NA
HETATM    2  C12 UNK     1      28.786  -6.128  37.611  1.00  0.00     0.035 C 
HETATM    3  C15 UNK     1      29.835  -5.349  37.987  1.00  0.00     0.055 C 
HETATM    4  C24 UNK     1      29.626  -4.454  39.095  1.00  0.00     0.100 C 
ENDROOT
BRANCH   3   5
HETATM    5  C16 UNK     1      31.137  -5.379  37.342  1.00  0.00    -0.015 A 
HETATM    6  C18 UNK     1      32.160  -6.167  37.870  1.00  0.00     0.015 A 
HETATM    7  C21 UNK     1      33.409  -6.197  37.248  1.00  0.00     0.037 A 
HETATM    8  C20 UNK     1      33.634  -5.438  36.100  1.00  0.00     0.102 A 
HETATM    9  C22 UNK     1      32.612  -4.650  35.572  1.00  0.00     0.037 A 
HETATM   10  C19 UNK     1      31.364  -4.620  36.194  1.00  0.00     0.015 A 
BRANCH   8  11
HETATM   11  N1  UNK     1      34.905  -5.467  35.468  1.00  0.00    -0.116 N 
HETATM   12  O3  UNK     1      35.871  -6.000  36.067  1.00  0.00    -0.532 OA
HETATM   13  O4  UNK     1      35.029  -4.960  34.326  1.00  0.00    -0.532 OA
ENDBRANCH   8  11
ENDBRANCH   3   5
BRANCH   2  14
HETATM   14  C6  UNK     1      28.787  -7.087  36.497  1.00  0.00    -0.032 A 
HETATM   15  C10 UNK     1      28.337  -6.682  35.249  1.00  0.00     0.051 A 
HETATM   16  C5  UNK     1      28.338  -7.593  34.192  1.00  0.00     0.102 A 
HETATM   17  C3  UNK     1      28.789  -8.897  34.395  1.00  0.00     0.103 A 
HETATM   18  C7  UNK     1      29.240  -9.291  35.655  1.00  0.00     0.040 A 
HETATM   19  C11 UNK     1      29.238  -8.381  36.711  1.00  0.00     0.014 A 
BRANCH  16  20
HETATM   20  O2  UNK     1      27.897  -7.196  32.966  1.00  0.00    -0.353 OA
HETATM   21  C23 UNK     1      28.324  -5.915  32.507  1.00  0.00     0.210 C 
ENDBRANCH  16  20
BRANCH  17  22
HETATM   22  O1  UNK     1      28.796  -9.794  33.370  1.00  0.00    -0.339 OA
BRANCH  22  23
HETATM   23  C1  UNK     1      30.044 -10.028  32.721  1.00  0.00     0.158 C 
HETATM   24  C4  UNK     1      30.175 -11.509  32.383  1.00  0.00     0.045 C 
BRANCH  23  25
HETATM   25  C2  UNK     1      30.136  -9.157  31.492  1.00  0.00    -0.029 A 
HETATM   26  C8  UNK     1      31.145  -8.211  31.404  1.00  0.00     0.010 A 
HETATM   27  C13 UNK     1      31.230  -7.405  30.269  1.00  0.00     0.001 A 
HETATM   28  C17 UNK     1      30.305  -7.556  29.236  1.00  0.00     0.000 A 
HETATM   29  C14 UNK     1      29.295  -8.513  29.338  1.00  0.00     0.001 A 
HETATM   30  C9  UNK     1      29.211  -9.318  30.473  1.00  0.00     0.010 A 
ENDBRANCH  23  25
ENDBRANCH  22  23
ENDBRANCH  17  22
ENDBRANCH   2  14
TORSDOF 7
ENDMDL
MODEL 5
REMARK VINA RESULT:      -7.8      2.518      3.674
REMARK  7 active torsions:
REMARK  status: ('A' for Active; 'I' for Inactive)
REMARK    1  A    between atoms: C1_7  and  O1_1 
REMARK    2  A    between atoms: C3_9  and  O1_1 
REMARK    3  A    between atoms: C5_11  and  O2_2 
REMARK    4  A    between atoms: C20_26  and  N1_5 
REMARK    5  A    between atoms: C1_7  and  C2_8 
REMARK    6  A    between atoms: C12_18  and  C6_12 
REMARK    7  A    between atoms: C15_21  and  C16_22 
ROOT
HETATM    1  N2  UNK     1      29.441  -3.567  40.113  1.00  0.00    -0.191 NA
HETATM    2  C12 UNK     1      28.837  -6.063  37.813  1.00  0.00     0.035 C 
HETATM    3  C15 UNK     1      29.855  -5.231  38.159  1.00  0.00     0.055 C 
HETATM    4  C24 UNK     1      29.616  -4.313  39.242  1.00  0.00     0.100 C 
ENDROOT
BRANCH   3   5
HETATM    5  C16 UNK     1      31.154  -5.226  37.505  1.00  0.00    -0.015 A 
HETATM    6  C18 UNK     1      31.300  -4.640  36.247  1.00  0.00     0.015 A 
HETATM    7  C21 UNK     1      32.548  -4.634  35.622  1.00  0.00     0.037 A 
HETATM    8  C20 UNK     1      33.646  -5.215  36.253  1.00  0.00     0.102 A 
HETATM    9  C22 UNK     1      33.500  -5.802  37.511  1.00  0.00     0.037 A 
HETATM   10  C19 UNK     1      32.253  -5.808  38.136  1.00  0.00     0.015 A 
BRANCH   8  11
HETATM   11  N1  UNK     1      34.916  -5.210  35.617  1.00  0.00    -0.116 N 
HETATM   12  O3  UNK     1      35.032  -4.661  34.495  1.00  0.00    -0.532 OA
HETATM   13  O4  UNK     1      35.888  -5.755  36.195  1.00  0.00    -0.532 OA
ENDBRANCH   8  11
ENDBRANCH   3   5
BRANCH   2  14
HETATM   14  C6  UNK     1      28.870  -7.053  36.727  1.00  0.00    -0.032 A 
HETATM   15  C10 UNK     1      29.733  -8.135  36.817  1.00  0.00     0.051 A 
HETATM   16  C5  UNK     1      29.765  -9.074  35.785  1.00  0.00     0.102 A 
HETATM   17  C3  UNK     1      28.933  -8.919  34.676  1.00  0.00     0.103 A 
HETATM   18  C7  UNK     1      28.070  -7.827  34.598  1.00  0.00     0.040 A 
HETATM   19  C11 UNK     1      28.039  -6.888  35.629  1.00  0.00     0.014 A 
BRANCH  16  20
HETATM   20  O2  UNK     1      30.611 -10.137  35.873  1.00  0.00    -0.353 OA
HETATM   21  C23 UNK     1      32.003  -9.872  35.711  1.00  0.00     0.210 C 
ENDBRANCH  16  20
BRANCH  17  22
HETATM   22  O1  UNK     1      28.954  -9.831  33.663  1.00  0.00    -0.339 OA
BRANCH  22  23
HETATM   23  C1  UNK     1      29.839  -9.571  32.576  1.00  0.00     0.158 C 
HETATM   24  C4  UNK     1      30.105 -10.865  31.813  1.00  0.00     0.045 C 
BRANCH  23  25
HETATM   25  C2  UNK     1      29.241  -8.505  31.691  1.00  0.00    -0.029 A 
HETATM   26  C8  UNK     1      28.024  -8.741  31.071  1.00  0.00     0.010 A 
HETATM   27  C13 UNK     1      27.471  -7.755  30.253  1.00  0.00     0.001 A 
HETATM   28  C17 UNK     1      28.142  -6.547  30.065  1.00  0.00     0.000 A 
HETATM   29  C14 UNK     1      29.367  -6.324  30.696  1.00  0.00     0.001 A 
HETATM   30  C9  UNK     1      29.919  -7.309  31.514  1.00  0.00     0.010 A 
ENDBRANCH  23  25
ENDBRANCH  22  23
ENDBRANCH  17  22
ENDBRANCH   2  14
TORSDOF 7
ENDMDL
MODEL 6
REMARK VINA RESULT:      -7.8      3.934      7.644
REMARK  7 active torsions:
REMARK  status: ('A' for Active; 'I' for Inactive)
REMARK    1  A    between atoms: C1_7  and  O1_1 
REMARK    2  A    between atoms: C3_9  and  O1_1 
REMARK    3  A    between atoms: C5_11  and  O2_2 
REMARK    4  A    between atoms: C20_26  and  N1_5 
REMARK    5  A    between atoms: C1_7  and  C2_8 
REMARK    6  A    between atoms: C12_18  and  C6_12 
REMARK    7  A    between atoms: C15_21  and  C16_22 
ROOT
HETATM    1  N2  UNK     1      28.348  -9.981  28.294  1.00  0.00    -0.191 NA
HETATM    2  C12 UNK     1      28.687  -8.738  31.492  1.00  0.00     0.035 C 
HETATM    3  C15 UNK     1      29.445  -8.865  30.370  1.00  0.00     0.055 C 
HETATM    4  C24 UNK     1      28.829  -9.484  29.226  1.00  0.00     0.100 C 
ENDROOT
BRANCH   3   5
HETATM    5  C16 UNK     1      30.821  -8.407  30.267  1.00  0.00    -0.015 A 
HETATM    6  C18 UNK     1      31.862  -9.216  30.725  1.00  0.00     0.015 A 
HETATM    7  C21 UNK     1      33.183  -8.776  30.624  1.00  0.00     0.037 A 
HETATM    8  C20 UNK     1      33.461  -7.529  30.066  1.00  0.00     0.102 A 
HETATM    9  C22 UNK     1      32.421  -6.721  29.608  1.00  0.00     0.037 A 
HETATM   10  C19 UNK     1      31.101  -7.159  29.709  1.00  0.00     0.015 A 
BRANCH   8  11
HETATM   11  N1  UNK     1      34.805  -7.082  29.963  1.00  0.00    -0.116 N 
HETATM   12  O3  UNK     1      35.069  -6.120  29.201  1.00  0.00    -0.532 OA
HETATM   13  O4  UNK     1      35.693  -7.659  30.637  1.00  0.00    -0.532 OA
ENDBRANCH   8  11
ENDBRANCH   3   5
BRANCH   2  14
HETATM   14  C6  UNK     1      29.134  -8.157  32.766  1.00  0.00    -0.032 A 
HETATM   15  C10 UNK     1      29.681  -8.982  33.738  1.00  0.00     0.051 A 
HETATM   16  C5  UNK     1      30.104  -8.430  34.947  1.00  0.00     0.102 A 
HETATM   17  C3  UNK     1      29.976  -7.059  35.171  1.00  0.00     0.103 A 
HETATM   18  C7  UNK     1      29.425  -6.240  34.185  1.00  0.00     0.040 A 
HETATM   19  C11 UNK     1      29.001  -6.792  32.977  1.00  0.00     0.014 A 
BRANCH  16  20
HETATM   20  O2  UNK     1      30.642  -9.240  35.901  1.00  0.00    -0.353 OA
HETATM   21  C23 UNK     1      32.017  -9.588  35.756  1.00  0.00     0.210 C 
ENDBRANCH  16  20
BRANCH  17  22
HETATM   22  O1  UNK     1      30.387  -6.509  36.347  1.00  0.00    -0.339 OA
BRANCH  22  23
HETATM   23  C1  UNK     1      30.983  -5.215  36.285  1.00  0.00     0.158 C 
HETATM   24  C4  UNK     1      30.475  -4.362  37.441  1.00  0.00     0.045 C 
BRANCH  23  25
HETATM   25  C2  UNK     1      32.486  -5.359  36.304  1.00  0.00    -0.029 A 
HETATM   26  C8  UNK     1      33.081  -6.135  37.285  1.00  0.00     0.010 A 
HETATM   27  C13 UNK     1      34.470  -6.266  37.304  1.00  0.00     0.001 A 
HETATM   28  C17 UNK     1      35.245  -5.621  36.340  1.00  0.00     0.000 A 
HETATM   29  C14 UNK     1      34.631  -4.843  35.357  1.00  0.00     0.001 A 
HETATM   30  C9  UNK     1      33.242  -4.712  35.340  1.00  0.00     0.010 A 
ENDBRANCH  23  25
ENDBRANCH  22  23
ENDBRANCH  17  22
ENDBRANCH   2  14
TORSDOF 7
ENDMDL
MODEL 7
REMARK VINA RESULT:      -7.7      2.573      3.869
REMARK  7 active torsions:
REMARK  status: ('A' for Active; 'I' for Inactive)
REMARK    1  A    between atoms: C1_7  and  O1_1 
REMARK    2  A    between atoms: C3_9  and  O1_1 
REMARK    3  A    between atoms: C5_11  and  O2_2 
REMARK    4  A    between atoms: C20_26  and  N1_5 
REMARK    5  A    between atoms: C1_7  and  C2_8 
REMARK    6  A    between atoms: C12_18  and  C6_12 
REMARK    7  A    between atoms: C15_21  and  C16_22 
ROOT
HETATM    1  N2  UNK     1      35.720  -5.789  36.311  1.00  0.00    -0.191 NA
HETATM    2  C12 UNK     1      33.020  -6.541  34.303  1.00  0.00     0.035 C 
HETATM    3  C15 UNK     1      33.248  -6.023  35.540  1.00  0.00     0.055 C 
HETATM    4  C24 UNK     1      34.620  -5.898  35.958  1.00  0.00     0.100 C 
ENDROOT
BRANCH   3   5
HETATM    5  C16 UNK     1      32.194  -5.591  36.444  1.00  0.00    -0.015 A 
HETATM    6  C18 UNK     1      31.605  -6.506  37.317  1.00  0.00     0.015 A 
HETATM    7  C21 UNK     1      30.595  -6.090  38.185  1.00  0.00     0.037 A 
HETATM    8  C20 UNK     1      30.175  -4.761  38.179  1.00  0.00     0.102 A 
HETATM    9  C22 UNK     1      30.764  -3.846  37.306  1.00  0.00     0.037 A 
HETATM   10  C19 UNK     1      31.773  -4.261  36.438  1.00  0.00     0.015 A 
BRANCH   8  11
HETATM   11  N1  UNK     1      29.147  -4.337  39.062  1.00  0.00    -0.116 N 
HETATM   12  O3  UNK     1      27.953  -4.599  38.777  1.00  0.00    -0.532 OA
HETATM   13  O4  UNK     1      29.459  -3.711  40.105  1.00  0.00    -0.532 OA
ENDBRANCH   8  11
ENDBRANCH   3   5
BRANCH   2  14
HETATM   14  C6  UNK     1      31.699  -6.770  33.702  1.00  0.00    -0.032 A 
HETATM   15  C10 UNK     1      31.198  -8.061  33.628  1.00  0.00     0.051 A 
HETATM   16  C5  UNK     1      29.943  -8.279  33.056  1.00  0.00     0.102 A 
HETATM   17  C3  UNK     1      29.205  -7.202  32.565  1.00  0.00     0.103 A 
HETATM   18  C7  UNK     1      29.720  -5.908  32.646  1.00  0.00     0.040 A 
HETATM   19  C11 UNK     1      30.974  -5.692  33.217  1.00  0.00     0.014 A 
BRANCH  16  20
HETATM   20  O2  UNK     1      29.451  -9.546  32.984  1.00  0.00    -0.353 OA
HETATM   21  C23 UNK     1      30.084 -10.436  32.065  1.00  0.00     0.210 C 
ENDBRANCH  16  20
BRANCH  17  22
HETATM   22  O1  UNK     1      27.979  -7.402  32.006  1.00  0.00    -0.339 OA
BRANCH  22  23
HETATM   23  C1  UNK     1      27.814  -7.008  30.645  1.00  0.00     0.158 C 
HETATM   24  C4  UNK     1      28.377  -5.605  30.448  1.00  0.00     0.045 C 
BRANCH  23  25
HETATM   25  C2  UNK     1      28.488  -8.020  29.750  1.00  0.00    -0.029 A 
HETATM   26  C8  UNK     1      29.783  -7.787  29.316  1.00  0.00     0.010 A 
HETATM   27  C13 UNK     1      30.406  -8.721  28.488  1.00  0.00     0.001 A 
HETATM   28  C17 UNK     1      29.724  -9.877  28.106  1.00  0.00     0.000 A 
HETATM   29  C14 UNK     1      28.421 -10.098  28.551  1.00  0.00     0.001 A 
HETATM   30  C9  UNK     1      27.799  -9.163  29.379  1.00  0.00     0.010 A 
ENDBRANCH  23  25
ENDBRANCH  22  23
ENDBRANCH  17  22
ENDBRANCH   2  14
TORSDOF 7
ENDMDL
MODEL 8
REMARK VINA RESULT:      -7.7      2.307      3.587
REMARK  7 active torsions:
REMARK  status: ('A' for Active; 'I' for Inactive)
REMARK    1  A    between atoms: C1_7  and  O1_1 
REMARK    2  A    between atoms: C3_9  and  O1_1 
REMARK    3  A    between atoms: C5_11  and  O2_2 
REMARK    4  A    between atoms: C20_26  and  N1_5 
REMARK    5  A    between atoms: C1_7  and  C2_8 
REMARK    6  A    between atoms: C12_18  and  C6_12 
REMARK    7  A    between atoms: C15_21  and  C16_22 
ROOT
HETATM    1  N2  UNK     1      29.508  -3.587  40.096  1.00  0.00    -0.191 NA
HETATM    2  C12 UNK     1      28.680  -5.842  37.622  1.00  0.00     0.035 C 
HETATM    3  C15 UNK     1      29.772  -5.141  38.028  1.00  0.00     0.055 C 
HETATM    4  C24 UNK     1      29.616  -4.283  39.174  1.00  0.00     0.100 C 
ENDROOT
BRANCH   3   5
HETATM    5  C16 UNK     1      31.071  -5.219  37.378  1.00  0.00    -0.015 A 
HETATM    6  C18 UNK     1      31.878  -6.341  37.565  1.00  0.00     0.015 A 
HETATM    7  C21 UNK     1      33.124  -6.416  36.939  1.00  0.00     0.037 A 
HETATM    8  C20 UNK     1      33.560  -5.368  36.128  1.00  0.00     0.102 A 
HETATM    9  C22 UNK     1      32.752  -4.246  35.942  1.00  0.00     0.037 A 
HETATM   10  C19 UNK     1      31.508  -4.171  36.568  1.00  0.00     0.015 A 
BRANCH   8  11
HETATM   11  N1  UNK     1      34.827  -5.443  35.492  1.00  0.00    -0.116 N 
HETATM   12  O3  UNK     1      34.951  -4.986  34.329  1.00  0.00    -0.532 OA
HETATM   13  O4  UNK     1      35.788  -5.964  36.108  1.00  0.00    -0.532 OA
ENDBRANCH   8  11
ENDBRANCH   3   5
BRANCH   2  14
HETATM   14  C6  UNK     1      28.625  -6.750  36.468  1.00  0.00    -0.032 A 
HETATM   15  C10 UNK     1      28.093  -8.021  36.625  1.00  0.00     0.051 A 
HETATM   16  C5  UNK     1      28.042  -8.884  35.530  1.00  0.00     0.102 A 
HETATM   17  C3  UNK     1      28.523  -8.464  34.289  1.00  0.00     0.103 A 
HETATM   18  C7  UNK     1      29.055  -7.183  34.145  1.00  0.00     0.040 A 
HETATM   19  C11 UNK     1      29.107  -6.322  35.240  1.00  0.00     0.014 A 
BRANCH  16  20
HETATM   20  O2  UNK     1      27.519 -10.132  35.684  1.00  0.00    -0.353 OA
HETATM   21  C23 UNK     1      26.386 -10.258  36.540  1.00  0.00     0.210 C 
ENDBRANCH  16  20
BRANCH  17  22
HETATM   22  O1  UNK     1      28.477  -9.297  33.212  1.00  0.00    -0.339 OA
BRANCH  22  23
HETATM   23  C1  UNK     1      29.696  -9.510  32.504  1.00  0.00     0.158 C 
HETATM   24  C4  UNK     1      30.440 -10.693  33.113  1.00  0.00     0.045 C 
BRANCH  23  25
HETATM   25  C2  UNK     1      29.391  -9.724  31.041  1.00  0.00    -0.029 A 
HETATM   26  C8  UNK     1      28.323  -9.054  30.465  1.00  0.00     0.010 A 
HETATM   27  C13 UNK     1      28.041  -9.253  29.113  1.00  0.00     0.001 A 
HETATM   28  C17 UNK     1      28.831 -10.118  28.356  1.00  0.00     0.000 A 
HETATM   29  C14 UNK     1      29.903 -10.785  28.949  1.00  0.00     0.001 A 
HETATM   30  C9  UNK     1      30.185 -10.586  30.301  1.00  0.00     0.010 A 
ENDBRANCH  23  25
ENDBRANCH  22  23
ENDBRANCH  17  22
ENDBRANCH   2  14
TORSDOF 7
ENDMDL
MODEL 9
REMARK VINA RESULT:      -7.7      2.869      4.620
REMARK  7 active torsions:
REMARK  status: ('A' for Active; 'I' for Inactive)
REMARK    1  A    between atoms: C1_7  and  O1_1 
REMARK    2  A    between atoms: C3_9  and  O1_1 
REMARK    3  A    between atoms: C5_11  and  O2_2 
REMARK    4  A    between atoms: C20_26  and  N1_5 
REMARK    5  A    between atoms: C1_7  and  C2_8 
REMARK    6  A    between atoms: C12_18  and  C6_12 
REMARK    7  A    between atoms: C15_21  and  C16_22 
ROOT
HETATM    1  N2  UNK     1      29.524  -3.572  40.091  1.00  0.00    -0.191 NA
HETATM    2  C12 UNK     1      30.495  -4.760  37.004  1.00  0.00     0.035 C 
HETATM    3  C15 UNK     1      29.738  -5.174  38.054  1.00  0.00     0.055 C 
HETATM    4  C24 UNK     1      29.626  -4.281  39.178  1.00  0.00     0.100 C 
ENDROOT
BRANCH   3   5
HETATM    5  C16 UNK     1      29.043  -6.451  38.098  1.00  0.00    -0.015 A 
HETATM    6  C18 UNK     1      27.663  -6.500  37.901  1.00  0.00     0.015 A 
HETATM    7  C21 UNK     1      26.996  -7.726  37.941  1.00  0.00     0.037 A 
HETATM    8  C20 UNK     1      27.711  -8.900  38.177  1.00  0.00     0.102 A 
HETATM    9  C22 UNK     1      29.091  -8.850  38.374  1.00  0.00     0.037 A 
HETATM   10  C19 UNK     1      29.757  -7.626  38.335  1.00  0.00     0.015 A 
BRANCH   8  11
HETATM   11  N1  UNK     1      27.033 -10.147  38.218  1.00  0.00    -0.116 N 
HETATM   12  O3  UNK     1      27.145 -10.867  39.240  1.00  0.00    -0.532 OA
HETATM   13  O4  UNK     1      26.341 -10.497  37.231  1.00  0.00    -0.532 OA
ENDBRANCH   8  11
ENDBRANCH   3   5
BRANCH   2  14
HETATM   14  C6  UNK     1      30.752  -5.529  35.778  1.00  0.00    -0.032 A 
HETATM   15  C10 UNK     1      32.051  -5.645  35.305  1.00  0.00     0.051 A 
HETATM   16  C5  UNK     1      32.295  -6.375  34.141  1.00  0.00     0.102 A 
HETATM   17  C3  UNK     1      31.237  -6.981  33.464  1.00  0.00     0.103 A 
HETATM   18  C7  UNK     1      29.936  -6.857  33.950  1.00  0.00     0.040 A 
HETATM   19  C11 UNK     1      29.692  -6.127  35.113  1.00  0.00     0.014 A 
BRANCH  16  20
HETATM   20  O2  UNK     1      33.570  -6.489  33.677  1.00  0.00    -0.353 OA
HETATM   21  C23 UNK     1      34.551  -5.633  34.261  1.00  0.00     0.210 C 
ENDBRANCH  16  20
BRANCH  17  22
HETATM   22  O1  UNK     1      31.463  -7.697  32.327  1.00  0.00    -0.339 OA
BRANCH  22  23
HETATM   23  C1  UNK     1      31.165  -7.058  31.088  1.00  0.00     0.158 C 
HETATM   24  C4  UNK     1      32.057  -7.630  29.991  1.00  0.00     0.045 C 
BRANCH  23  25
HETATM   25  C2  UNK     1      29.699  -7.237  30.776  1.00  0.00    -0.029 A 
HETATM   26  C8  UNK     1      28.923  -6.123  30.497  1.00  0.00     0.010 A 
HETATM   27  C13 UNK     1      27.568  -6.288  30.210  1.00  0.00     0.001 A 
HETATM   28  C17 UNK     1      27.007  -7.564  30.205  1.00  0.00     0.000 A 
HETATM   29  C14 UNK     1      27.800  -8.677  30.487  1.00  0.00     0.001 A 
HETATM   30  C9  UNK     1      29.155  -8.511  30.774  1.00  0.00     0.010 A 
ENDBRANCH  23  25
ENDBRANCH  22  23
ENDBRANCH  17  22
ENDBRANCH   2  14
TORSDOF 7
ENDMDL
MODEL 10
REMARK VINA RESULT:      -7.7      3.888      8.372
REMARK  7 active torsions:
REMARK  status: ('A' for Active; 'I' for Inactive)
REMARK    1  A    between atoms: C1_7  and  O1_1 
REMARK    2  A    between atoms: C3_9  and  O1_1 
REMARK    3  A    between atoms: C5_11  and  O2_2 
REMARK    4  A    between atoms: C20_26  and  N1_5 
REMARK    5  A    between atoms: C1_7  and  C2_8 
REMARK    6  A    between atoms: C12_18  and  C6_12 
REMARK    7  A    between atoms: C15_21  and  C16_22 
ROOT
HETATM    1  N2  UNK     1      28.504 -10.063  28.064  1.00  0.00    -0.191 NA
HETATM    2  C12 UNK     1      29.273  -9.282  31.333  1.00  0.00     0.035 C 
HETATM    3  C15 UNK     1      29.870  -9.229  30.113  1.00  0.00     0.055 C 
HETATM    4  C24 UNK     1      29.106  -9.693  28.985  1.00  0.00     0.100 C 
ENDROOT
BRANCH   3   5
HETATM    5  C16 UNK     1      31.218  -8.729  29.893  1.00  0.00    -0.015 A 
HETATM    6  C18 UNK     1      32.314  -9.572  30.074  1.00  0.00     0.015 A 
HETATM    7  C21 UNK     1      33.607  -9.092  29.860  1.00  0.00     0.037 A 
HETATM    8  C20 UNK     1      33.802  -7.768  29.467  1.00  0.00     0.102 A 
HETATM    9  C22 UNK     1      32.706  -6.924  29.287  1.00  0.00     0.037 A 
HETATM   10  C19 UNK     1      31.414  -7.405  29.500  1.00  0.00     0.015 A 
BRANCH   8  11
HETATM   11  N1  UNK     1      35.117  -7.278  29.250  1.00  0.00    -0.116 N 
HETATM   12  O3  UNK     1      35.950  -8.012  28.666  1.00  0.00    -0.532 OA
HETATM   13  O4  UNK     1      35.410  -6.124  29.648  1.00  0.00    -0.532 OA
ENDBRANCH   8  11
ENDBRANCH   3   5
BRANCH   2  14
HETATM   14  C6  UNK     1      29.887  -8.879  32.606  1.00  0.00    -0.032 A 
HETATM   15  C10 UNK     1      29.910  -7.537  32.957  1.00  0.00     0.051 A 
HETATM   16  C5  UNK     1      30.494  -7.155  34.165  1.00  0.00     0.102 A 
HETATM   17  C3  UNK     1      31.047  -8.118  35.009  1.00  0.00     0.103 A 
HETATM   18  C7  UNK     1      31.016  -9.464  34.644  1.00  0.00     0.040 A 
HETATM   19  C11 UNK     1      30.433  -9.846  33.436  1.00  0.00     0.014 A 
BRANCH  16  20
HETATM   20  O2  UNK     1      30.517  -5.837  34.510  1.00  0.00    -0.353 OA
HETATM   21  C23 UNK     1      31.689  -5.099  34.171  1.00  0.00     0.210 C 
ENDBRANCH  16  20
BRANCH  17  22
HETATM   22  O1  UNK     1      31.618  -7.757  36.192  1.00  0.00    -0.339 OA
BRANCH  22  23
HETATM   23  C1  UNK     1      30.900  -8.073  37.382  1.00  0.00     0.158 C 
HETATM   24  C4  UNK     1      31.811  -8.829  38.343  1.00  0.00     0.045 C 
BRANCH  23  25
HETATM   25  C2  UNK     1      30.364  -6.801  37.992  1.00  0.00    -0.029 A 
HETATM   26  C8  UNK     1      29.090  -6.793  38.537  1.00  0.00     0.010 A 
HETATM   27  C13 UNK     1      28.594  -5.617  39.100  1.00  0.00     0.001 A 
HETATM   28  C17 UNK     1      29.379  -4.464  39.111  1.00  0.00     0.000 A 
HETATM   29  C14 UNK     1      30.661  -4.487  38.559  1.00  0.00     0.001 A 
HETATM   30  C9  UNK     1      31.155  -5.664  37.996  1.00  0.00     0.010 A 
ENDBRANCH  23  25
ENDBRANCH  22  23
ENDBRANCH  17  22
ENDBRANCH   2  14
TORSDOF 7
ENDMDL
