MODEL 1
REMARK VINA RESULT:      -7.7      0.000      0.000
REMARK  0 active torsions:
REMARK  status: ('A' for Active; 'I' for Inactive)
ROOT
HETATM    1 Br1  UNK     1      17.902  -0.994  37.177  1.00  0.00    -0.044 Br
HETATM    2  O1  UNK     1      18.717   0.632  30.651  1.00  0.00    -0.344 OA
HETATM    3  O2  UNK     1      20.522  -1.161  29.304  1.00  0.00    -0.346 OA
HETATM    4  O3  UNK     1      18.149   0.268  33.251  1.00  0.00    -0.271 OA
HETATM    5  O4  UNK     1      16.996   0.958  35.077  1.00  0.00    -0.258 OA
HETATM    6  C1  UNK     1      19.653  -1.637  33.381  1.00  0.00     0.008 A 
HETATM    7  C2  UNK     1      19.338  -0.410  31.287  1.00  0.00     0.137 A 
HETATM    8  C3  UNK     1      19.058  -0.615  32.644  1.00  0.00     0.126 A 
HETATM    9  C4  UNK     1      20.218  -1.270  30.636  1.00  0.00     0.105 A 
HETATM   10  C5  UNK     1      19.310  -1.785  34.813  1.00  0.00    -0.025 A 
HETATM   11  C6  UNK     1      19.339   0.944  29.402  1.00  0.00     0.202 C 
HETATM   12  C7  UNK     1      19.592  -0.324  28.611  1.00  0.00     0.202 C 
HETATM   13  C8  UNK     1      20.558  -2.473  32.706  1.00  0.00     0.018 A 
HETATM   14  C9  UNK     1      20.841  -2.292  31.348  1.00  0.00     0.040 A 
HETATM   15  C10 UNK     1      18.432  -0.926  35.370  1.00  0.00     0.093 A 
HETATM   16  C11 UNK     1      19.986  -2.913  35.557  1.00  0.00     0.050 C 
HETATM   17  C12 UNK     1      17.796   0.169  34.586  1.00  0.00     0.306 A 
ENDROOT
TORSDOF 0
ENDMDL
MODEL 2
REMARK VINA RESULT:      -7.5      1.574      2.321
REMARK  0 active torsions:
REMARK  status: ('A' for Active; 'I' for Inactive)
ROOT
HETATM    1 Br1  UNK     1      20.150  -3.178  35.454  1.00  0.00    -0.044 Br
HETATM    2  O1  UNK     1      18.235   1.721  31.185  1.00  0.00    -0.344 OA
HETATM    3  O2  UNK     1      19.141   1.232  28.497  1.00  0.00    -0.346 OA
HETATM    4  O3  UNK     1      18.802  -0.035  33.137  1.00  0.00    -0.271 OA
HETATM    5  O4  UNK     1      18.598  -0.606  35.321  1.00  0.00    -0.258 OA
HETATM    6  C1  UNK     1      20.057  -1.439  31.600  1.00  0.00     0.008 A 
HETATM    7  C2  UNK     1      18.981   0.624  30.843  1.00  0.00     0.137 A 
HETATM    8  C3  UNK     1      19.290  -0.302  31.846  1.00  0.00     0.126 A 
HETATM    9  C4  UNK     1      19.426   0.395  29.543  1.00  0.00     0.105 A 
HETATM   10  C5  UNK     1      20.346  -2.368  32.716  1.00  0.00    -0.025 A 
HETATM   11  C6  UNK     1      18.289   2.740  30.182  1.00  0.00     0.202 C 
HETATM   12  C7  UNK     1      18.076   2.134  28.809  1.00  0.00     0.202 C 
HETATM   13  C8  UNK     1      20.517  -1.632  30.287  1.00  0.00     0.018 A 
HETATM   14  C9  UNK     1      20.207  -0.724  29.268  1.00  0.00     0.040 A 
HETATM   15  C10 UNK     1      19.863  -2.089  33.944  1.00  0.00     0.093 A 
HETATM   16  C11 UNK     1      21.180  -3.583  32.385  1.00  0.00     0.050 C 
HETATM   17  C12 UNK     1      19.045  -0.874  34.211  1.00  0.00     0.306 A 
ENDROOT
TORSDOF 0
ENDMDL
MODEL 3
REMARK VINA RESULT:      -7.5      2.691      4.838
REMARK  0 active torsions:
REMARK  status: ('A' for Active; 'I' for Inactive)
ROOT
HETATM    1 Br1  UNK     1      18.428   2.348  29.018  1.00  0.00    -0.044 Br
HETATM    2  O1  UNK     1      19.077  -0.837  34.962  1.00  0.00    -0.344 OA
HETATM    3  O2  UNK     1      20.603  -3.267  34.728  1.00  0.00    -0.346 OA
HETATM    4  O3  UNK     1      18.641   0.691  32.797  1.00  0.00    -0.271 OA
HETATM    5  O4  UNK     1      17.723   2.575  31.933  1.00  0.00    -0.258 OA
HETATM    6  C1  UNK     1      19.828  -0.877  31.368  1.00  0.00     0.008 A 
HETATM    7  C2  UNK     1      19.586  -1.281  33.770  1.00  0.00     0.137 A 
HETATM    8  C3  UNK     1      19.366  -0.501  32.628  1.00  0.00     0.126 A 
HETATM    9  C4  UNK     1      20.316  -2.462  33.658  1.00  0.00     0.105 A 
HETATM   10  C5  UNK     1      19.551  -0.001  30.208  1.00  0.00    -0.025 A 
HETATM   11  C6  UNK     1      19.061  -1.868  35.954  1.00  0.00     0.202 C 
HETATM   12  C7  UNK     1      20.390  -2.597  35.973  1.00  0.00     0.202 C 
HETATM   13  C8  UNK     1      20.538  -2.086  31.279  1.00  0.00     0.018 A 
HETATM   14  C9  UNK     1      20.779  -2.873  32.411  1.00  0.00     0.040 A 
HETATM   15  C10 UNK     1      18.855   1.139  30.399  1.00  0.00     0.093 A 
HETATM   16  C11 UNK     1      20.080  -0.461  28.871  1.00  0.00     0.050 C 
HETATM   17  C12 UNK     1      18.357   1.543  31.743  1.00  0.00     0.306 A 
ENDROOT
TORSDOF 0
ENDMDL
MODEL 4
REMARK VINA RESULT:      -7.3     14.912     17.467
REMARK  0 active torsions:
REMARK  status: ('A' for Active; 'I' for Inactive)
ROOT
HETATM    1 Br1  UNK     1      19.066   2.798  18.651  1.00  0.00    -0.044 Br
HETATM    2  O1  UNK     1      19.422  -0.706  12.864  1.00  0.00    -0.344 OA
HETATM    3  O2  UNK     1      19.238  -3.546  13.303  1.00  0.00    -0.346 OA
HETATM    4  O3  UNK     1      19.296   0.988  14.944  1.00  0.00    -0.271 OA
HETATM    5  O4  UNK     1      19.303   3.135  15.672  1.00  0.00    -0.258 OA
HETATM    6  C1  UNK     1      19.121  -0.855  16.520  1.00  0.00     0.008 A 
HETATM    7  C2  UNK     1      19.295  -1.256  14.112  1.00  0.00     0.137 A 
HETATM    8  C3  UNK     1      19.231  -0.391  15.211  1.00  0.00     0.126 A 
HETATM    9  C4  UNK     1      19.216  -2.630  14.322  1.00  0.00     0.105 A 
HETATM   10  C5  UNK     1      19.065   0.124  17.628  1.00  0.00    -0.025 A 
HETATM   11  C6  UNK     1      19.823  -1.674  11.890  1.00  0.00     0.202 C 
HETATM   12  C7  UNK     1      18.995  -2.935  12.033  1.00  0.00     0.202 C 
HETATM   13  C8  UNK     1      19.071  -2.246  16.706  1.00  0.00     0.018 A 
HETATM   14  C9  UNK     1      19.120  -3.127  15.619  1.00  0.00     0.040 A 
HETATM   15  C10 UNK     1      19.126   1.441  17.345  1.00  0.00     0.093 A 
HETATM   16  C11 UNK     1      18.942  -0.441  19.024  1.00  0.00     0.050 C 
HETATM   17  C12 UNK     1      19.247   1.941  15.947  1.00  0.00     0.306 A 
ENDROOT
TORSDOF 0
ENDMDL
MODEL 5
REMARK VINA RESULT:      -7.2      2.685      5.862
REMARK  0 active torsions:
REMARK  status: ('A' for Active; 'I' for Inactive)
ROOT
HETATM    1 Br1  UNK     1      20.214  -0.252  29.140  1.00  0.00    -0.044 Br
HETATM    2  O1  UNK     1      19.047  -2.088  35.556  1.00  0.00    -0.344 OA
HETATM    3  O2  UNK     1      17.669  -0.039  37.036  1.00  0.00    -0.346 OA
HETATM    4  O3  UNK     1      19.654  -1.701  32.968  1.00  0.00    -0.271 OA
HETATM    5  O4  UNK     1      20.576  -2.529  31.070  1.00  0.00    -0.258 OA
HETATM    6  C1  UNK     1      18.707   0.538  33.012  1.00  0.00     0.008 A 
HETATM    7  C2  UNK     1      18.696  -0.884  35.004  1.00  0.00     0.137 A 
HETATM    8  C3  UNK     1      19.007  -0.660  33.657  1.00  0.00     0.126 A 
HETATM    9  C4  UNK     1      18.038   0.109  35.725  1.00  0.00     0.105 A 
HETATM   10  C5  UNK     1      19.073   0.699  31.587  1.00  0.00    -0.025 A 
HETATM   11  C6  UNK     1      18.998  -2.057  36.985  1.00  0.00     0.202 C 
HETATM   12  C7  UNK     1      17.710  -1.407  37.451  1.00  0.00     0.202 C 
HETATM   13  C8  UNK     1      18.068   1.532  33.770  1.00  0.00     0.018 A 
HETATM   14  C9  UNK     1      17.738   1.323  35.114  1.00  0.00     0.040 A 
HETATM   15  C10 UNK     1      19.691  -0.316  30.949  1.00  0.00     0.093 A 
HETATM   16  C11 UNK     1      18.719   2.019  30.944  1.00  0.00     0.050 C 
HETATM   17  C12 UNK     1      20.015  -1.596  31.636  1.00  0.00     0.306 A 
ENDROOT
TORSDOF 0
ENDMDL
MODEL 6
REMARK VINA RESULT:      -7.2      2.387      5.162
REMARK  0 active torsions:
REMARK  status: ('A' for Active; 'I' for Inactive)
ROOT
HETATM    1 Br1  UNK     1      20.519  -1.067  29.452  1.00  0.00    -0.044 Br
HETATM    2  O1  UNK     1      17.415   0.751  35.193  1.00  0.00    -0.344 OA
HETATM    3  O2  UNK     1      18.081  -0.993  37.384  1.00  0.00    -0.346 OA
HETATM    4  O3  UNK     1      18.487   0.332  32.766  1.00  0.00    -0.271 OA
HETATM    5  O4  UNK     1      18.669   1.003  30.608  1.00  0.00    -0.258 OA
HETATM    6  C1  UNK     1      19.668  -1.641  33.555  1.00  0.00     0.008 A 
HETATM    7  C2  UNK     1      18.252  -0.325  35.056  1.00  0.00     0.137 A 
HETATM    8  C3  UNK     1      18.819  -0.563  33.797  1.00  0.00     0.126 A 
HETATM    9  C4  UNK     1      18.565  -1.172  36.115  1.00  0.00     0.105 A 
HETATM   10  C5  UNK     1      20.222  -1.829  32.195  1.00  0.00    -0.025 A 
HETATM   11  C6  UNK     1      16.644   0.680  36.395  1.00  0.00     0.202 C 
HETATM   12  C7  UNK     1      17.535   0.316  37.567  1.00  0.00     0.202 C 
HETATM   13  C8  UNK     1      19.945  -2.496  34.634  1.00  0.00     0.018 A 
HETATM   14  C9  UNK     1      19.398  -2.267  35.902  1.00  0.00     0.040 A 
HETATM   15  C10 UNK     1      19.890  -0.953  31.224  1.00  0.00     0.093 A 
HETATM   16  C11 UNK     1      21.138  -3.014  31.996  1.00  0.00     0.050 C 
HETATM   17  C12 UNK     1      18.981   0.198  31.479  1.00  0.00     0.306 A 
ENDROOT
TORSDOF 0
ENDMDL
MODEL 7
REMARK VINA RESULT:      -6.9      4.289      5.996
REMARK  0 active torsions:
REMARK  status: ('A' for Active; 'I' for Inactive)
ROOT
HETATM    1 Br1  UNK     1      18.963  -1.109  32.261  1.00  0.00    -0.044 Br
HETATM    2  O1  UNK     1      17.639   5.394  33.622  1.00  0.00    -0.344 OA
HETATM    3  O2  UNK     1      18.023   7.083  31.322  1.00  0.00    -0.346 OA
HETATM    4  O3  UNK     1      18.057   2.747  33.433  1.00  0.00    -0.271 OA
HETATM    5  O4  UNK     1      18.036   0.725  34.457  1.00  0.00    -0.258 OA
HETATM    6  C1  UNK     1      18.731   2.953  31.106  1.00  0.00     0.008 A 
HETATM    7  C2  UNK     1      18.058   4.911  32.410  1.00  0.00     0.137 A 
HETATM    8  C3  UNK     1      18.286   3.535  32.291  1.00  0.00     0.126 A 
HETATM    9  C4  UNK     1      18.253   5.732  31.302  1.00  0.00     0.105 A 
HETATM   10  C5  UNK     1      18.954   1.490  31.062  1.00  0.00    -0.025 A 
HETATM   11  C6  UNK     1      17.783   6.814  33.712  1.00  0.00     0.202 C 
HETATM   12  C7  UNK     1      17.247   7.475  32.457  1.00  0.00     0.202 C 
HETATM   13  C8  UNK     1      18.945   3.807  30.012  1.00  0.00     0.018 A 
HETATM   14  C9  UNK     1      18.711   5.183  30.108  1.00  0.00     0.040 A 
HETATM   15  C10 UNK     1      18.723   0.757  32.171  1.00  0.00     0.093 A 
HETATM   16  C11 UNK     1      19.433   0.918  29.749  1.00  0.00     0.050 C 
HETATM   17  C12 UNK     1      18.251   1.376  33.440  1.00  0.00     0.306 A 
ENDROOT
TORSDOF 0
ENDMDL
MODEL 8
REMARK VINA RESULT:      -6.9      3.032      5.270
REMARK  0 active torsions:
REMARK  status: ('A' for Active; 'I' for Inactive)
ROOT
HETATM    1 Br1  UNK     1      18.685   3.632  29.301  1.00  0.00    -0.044 Br
HETATM    2  O1  UNK     1      17.610   0.974  35.439  1.00  0.00    -0.344 OA
HETATM    3  O2  UNK     1      18.569  -1.733  35.631  1.00  0.00    -0.346 OA
HETATM    4  O3  UNK     1      17.892   2.342  33.145  1.00  0.00    -0.271 OA
HETATM    5  O4  UNK     1      17.576   4.285  32.019  1.00  0.00    -0.258 OA
HETATM    6  C1  UNK     1      18.917   0.428  32.052  1.00  0.00     0.008 A 
HETATM    7  C2  UNK     1      18.196   0.320  34.388  1.00  0.00     0.137 A 
HETATM    8  C3  UNK     1      18.349   1.014  33.181  1.00  0.00     0.126 A 
HETATM    9  C4  UNK     1      18.651  -0.993  34.481  1.00  0.00     0.105 A 
HETATM   10  C5  UNK     1      19.039   1.227  30.811  1.00  0.00    -0.025 A 
HETATM   11  C6  UNK     1      17.199   0.072  36.470  1.00  0.00     0.202 C 
HETATM   12  C7  UNK     1      18.309  -0.915  36.774  1.00  0.00     0.202 C 
HETATM   13  C8  UNK     1      19.342  -0.906  32.164  1.00  0.00     0.018 A 
HETATM   14  C9  UNK     1      19.209  -1.612  33.366  1.00  0.00     0.040 A 
HETATM   15  C10 UNK     1      18.595   2.500  30.804  1.00  0.00     0.093 A 
HETATM   16  C11 UNK     1      19.665   0.537  29.622  1.00  0.00     0.050 C 
HETATM   17  C12 UNK     1      17.985   3.128  32.009  1.00  0.00     0.306 A 
ENDROOT
TORSDOF 0
ENDMDL
MODEL 9
REMARK VINA RESULT:      -6.7     11.940     13.614
REMARK  0 active torsions:
REMARK  status: ('A' for Active; 'I' for Inactive)
ROOT
HETATM    1 Br1  UNK     1      24.720  -7.775  38.821  1.00  0.00    -0.044 Br
HETATM    2  O1  UNK     1      31.024  -5.347  38.313  1.00  0.00    -0.344 OA
HETATM    3  O2  UNK     1      32.964  -7.440  37.938  1.00  0.00    -0.346 OA
HETATM    4  O3  UNK     1      28.416  -5.954  38.534  1.00  0.00    -0.271 OA
HETATM    5  O4  UNK     1      26.290  -5.211  38.792  1.00  0.00    -0.258 OA
HETATM    6  C1  UNK     1      28.887  -8.332  38.362  1.00  0.00     0.008 A 
HETATM    7  C2  UNK     1      30.683  -6.673  38.265  1.00  0.00     0.137 A 
HETATM    8  C3  UNK     1      29.329  -7.011  38.382  1.00  0.00     0.126 A 
HETATM    9  C4  UNK     1      31.625  -7.684  38.093  1.00  0.00     0.105 A 
HETATM   10  C5  UNK     1      27.439  -8.608  38.497  1.00  0.00    -0.025 A 
HETATM   11  C6  UNK     1      32.424  -5.162  38.535  1.00  0.00     0.202 C 
HETATM   12  C7  UNK     1      33.224  -6.070  37.622  1.00  0.00     0.202 C 
HETATM   13  C8  UNK     1      29.860  -9.334  38.215  1.00  0.00     0.018 A 
HETATM   14  C9  UNK     1      31.217  -9.015  38.084  1.00  0.00     0.040 A 
HETATM   15  C10 UNK     1      26.584  -7.574  38.639  1.00  0.00     0.093 A 
HETATM   16  C11 UNK     1      27.021 -10.060  38.465  1.00  0.00     0.050 C 
HETATM   17  C12 UNK     1      27.054  -6.162  38.664  1.00  0.00     0.306 A 
ENDROOT
TORSDOF 0
ENDMDL
MODEL 10
REMARK VINA RESULT:      -6.7     24.570     26.182
REMARK  0 active torsions:
REMARK  status: ('A' for Active; 'I' for Inactive)
ROOT
HETATM    1 Br1  UNK     1      17.554  10.519   9.917  1.00  0.00    -0.044 Br
HETATM    2  O1  UNK     1      11.925   7.750   7.361  1.00  0.00    -0.344 OA
HETATM    3  O2  UNK     1      11.651   4.979   8.092  1.00  0.00    -0.346 OA
HETATM    4  O3  UNK     1      14.038   9.166   8.222  1.00  0.00    -0.271 OA
HETATM    5  O4  UNK     1      15.116  11.160   8.278  1.00  0.00    -0.258 OA
HETATM    6  C1  UNK     1      14.967   7.222   9.347  1.00  0.00     0.008 A 
HETATM    7  C2  UNK     1      12.852   7.090   8.124  1.00  0.00     0.137 A 
HETATM    8  C3  UNK     1      13.963   7.809   8.580  1.00  0.00     0.126 A 
HETATM    9  C4  UNK     1      12.721   5.747   8.468  1.00  0.00     0.105 A 
HETATM   10  C5  UNK     1      16.114   8.049   9.786  1.00  0.00    -0.025 A 
HETATM   11  C6  UNK     1      11.050   6.846   6.680  1.00  0.00     0.202 C 
HETATM   12  C7  UNK     1      10.556   5.777   7.635  1.00  0.00     0.202 C 
HETATM   13  C8  UNK     1      14.825   5.860   9.657  1.00  0.00     0.018 A 
HETATM   14  C9  UNK     1      13.715   5.127   9.221  1.00  0.00     0.040 A 
HETATM   15  C10 UNK     1      16.160   9.349   9.431  1.00  0.00     0.093 A 
HETATM   16  C11 UNK     1      17.168   7.356  10.617  1.00  0.00     0.050 C 
HETATM   17  C12 UNK     1      15.090   9.979   8.609  1.00  0.00     0.306 A 
ENDROOT
TORSDOF 0
ENDMDL
