MODEL 1
REMARK VINA RESULT:      -8.8      0.000      0.000
REMARK  2 active torsions:
REMARK  status: ('A' for Active; 'I' for Inactive)
REMARK    1  A    between atoms: C14_20  and  O5_5 
REMARK       I    between atoms: C7_13  and  N1_6 
REMARK    2  A    between atoms: C7_13  and  C8_14 
ROOT
HETATM    1  O3  UNK     1      19.392   1.199  16.388  1.00  0.00    -0.271 OA
HETATM    2  O4  UNK     1      19.425  -0.024  14.458  1.00  0.00    -0.259 OA
HETATM    3  C8  UNK     1      18.704  -1.148  16.416  1.00  0.00     0.108 A 
HETATM    4  C9  UNK     1      18.457  -1.088  17.730  1.00  0.00     0.037 A 
HETATM    5  C10 UNK     1      18.672   0.151  18.461  1.00  0.00     0.002 A 
HETATM    6  C11 UNK     1      19.197   0.027  15.662  1.00  0.00     0.304 A 
HETATM    7  C12 UNK     1      19.135   1.268  17.771  1.00  0.00     0.123 A 
HETATM    8  C13 UNK     1      18.429   0.259  19.832  1.00  0.00     0.014 A 
HETATM    9  C14 UNK     1      19.361   2.484  18.412  1.00  0.00     0.102 A 
HETATM   10  C15 UNK     1      18.651   1.473  20.489  1.00  0.00     0.004 A 
HETATM   11  C16 UNK     1      19.116   2.583  19.779  1.00  0.00     0.040 A 
ENDROOT
BRANCH   3  12
HETATM   12  C7  UNK     1      18.457  -2.449  15.764  1.00  0.00     0.260 C 
HETATM   13  O2  UNK     1      17.348  -2.634  15.260  1.00  0.00    -0.267 OA
HETATM   14  N1  UNK     1      19.491  -3.380  15.764  1.00  0.00    -0.343 N 
HETATM   15  C3  UNK     1      19.285  -4.683  15.132  1.00  0.00     0.157 C 
HETATM   16  C4  UNK     1      20.803  -3.234  16.405  1.00  0.00     0.157 C 
HETATM   17  C1  UNK     1      20.435  -5.030  14.187  1.00  0.00     0.136 C 
HETATM   18  O1  UNK     1      21.694  -4.895  14.858  1.00  0.00    -0.378 OA
HETATM   19  C5  UNK     1      20.396  -4.237  12.883  1.00  0.00     0.041 C 
HETATM   20  C2  UNK     1      21.918  -3.596  15.420  1.00  0.00     0.136 C 
HETATM   21  C6  UNK     1      23.271  -3.626  16.116  1.00  0.00     0.041 C 
ENDBRANCH   3  12
BRANCH   9  22
HETATM   22  O5  UNK     1      19.812   3.568  17.726  1.00  0.00    -0.353 OA
HETATM   23  C17 UNK     1      20.760   4.407  18.384  1.00  0.00     0.210 C 
ENDBRANCH   9  22
TORSDOF 2
ENDMDL
MODEL 2
REMARK VINA RESULT:      -8.4     17.746     19.905
REMARK  2 active torsions:
REMARK  status: ('A' for Active; 'I' for Inactive)
REMARK    1  A    between atoms: C14_20  and  O5_5 
REMARK       I    between atoms: C7_13  and  N1_6 
REMARK    2  A    between atoms: C7_13  and  C8_14 
ROOT
HETATM    1  O3  UNK     1      19.337  -1.596  34.567  1.00  0.00    -0.271 OA
HETATM    2  O4  UNK     1      20.808  -3.270  34.061  1.00  0.00    -0.259 OA
HETATM    3  C8  UNK     1      20.003  -3.201  36.288  1.00  0.00     0.108 A 
HETATM    4  C9  UNK     1      19.226  -2.593  37.193  1.00  0.00     0.037 A 
HETATM    5  C10 UNK     1      18.445  -1.424  36.822  1.00  0.00     0.002 A 
HETATM    6  C11 UNK     1      20.097  -2.717  34.893  1.00  0.00     0.304 A 
HETATM    7  C12 UNK     1      18.518  -0.953  35.515  1.00  0.00     0.123 A 
HETATM    8  C13 UNK     1      17.622  -0.758  37.733  1.00  0.00     0.014 A 
HETATM    9  C14 UNK     1      17.795   0.162  35.095  1.00  0.00     0.102 A 
HETATM   10  C15 UNK     1      16.890   0.362  37.327  1.00  0.00     0.004 A 
HETATM   11  C16 UNK     1      16.977   0.820  36.010  1.00  0.00     0.040 A 
ENDROOT
BRANCH   3  12
HETATM   12  C7  UNK     1      20.757  -4.378  36.761  1.00  0.00     0.260 C 
HETATM   13  O2  UNK     1      21.777  -4.176  37.421  1.00  0.00    -0.267 OA
HETATM   14  N1  UNK     1      20.268  -5.637  36.428  1.00  0.00    -0.343 N 
HETATM   15  C3  UNK     1      20.988  -6.830  36.874  1.00  0.00     0.157 C 
HETATM   16  C4  UNK     1      19.098  -5.932  35.592  1.00  0.00     0.157 C 
HETATM   17  C1  UNK     1      20.044  -7.837  37.530  1.00  0.00     0.136 C 
HETATM   18  O1  UNK     1      18.928  -8.111  36.672  1.00  0.00    -0.378 OA
HETATM   19  C5  UNK     1      19.597  -7.414  38.927  1.00  0.00     0.041 C 
HETATM   20  C2  UNK     1      18.188  -6.946  36.290  1.00  0.00     0.136 C 
HETATM   21  C6  UNK     1      17.067  -7.398  35.365  1.00  0.00     0.041 C 
ENDBRANCH   3  12
BRANCH   9  22
HETATM   22  O5  UNK     1      17.876   0.612  33.814  1.00  0.00    -0.353 OA
HETATM   23  C17 UNK     1      18.112   2.006  33.627  1.00  0.00     0.210 C 
ENDBRANCH   9  22
TORSDOF 2
ENDMDL
MODEL 3
REMARK VINA RESULT:      -7.7     13.378     16.430
REMARK  2 active torsions:
REMARK  status: ('A' for Active; 'I' for Inactive)
REMARK    1  A    between atoms: C14_20  and  O5_5 
REMARK       I    between atoms: C7_13  and  N1_6 
REMARK    2  A    between atoms: C7_13  and  C8_14 
ROOT
HETATM    1  O3  UNK     1      18.675   0.679  32.183  1.00  0.00    -0.271 OA
HETATM    2  O4  UNK     1      17.682   2.718  32.468  1.00  0.00    -0.259 OA
HETATM    3  C8  UNK     1      18.795   2.357  30.407  1.00  0.00     0.108 A 
HETATM    4  C9  UNK     1      19.506   1.527  29.634  1.00  0.00     0.037 A 
HETATM    5  C10 UNK     1      19.848   0.195  30.109  1.00  0.00     0.002 A 
HETATM    6  C11 UNK     1      18.333   1.960  31.756  1.00  0.00     0.304 A 
HETATM    7  C12 UNK     1      19.423  -0.198  31.374  1.00  0.00     0.123 A 
HETATM    8  C13 UNK     1      20.588  -0.704  29.337  1.00  0.00     0.014 A 
HETATM    9  C14 UNK     1      19.717  -1.460  31.888  1.00  0.00     0.102 A 
HETATM   10  C15 UNK     1      20.891  -1.973  29.838  1.00  0.00     0.004 A 
HETATM   11  C16 UNK     1      20.456  -2.349  31.112  1.00  0.00     0.040 A 
ENDROOT
BRANCH   3  12
HETATM   12  C7  UNK     1      18.499   3.686  29.837  1.00  0.00     0.260 C 
HETATM   13  O2  UNK     1      17.868   3.727  28.781  1.00  0.00    -0.267 OA
HETATM   14  N1  UNK     1      18.955   4.803  30.530  1.00  0.00    -0.343 N 
HETATM   15  C3  UNK     1      18.687   6.139  29.998  1.00  0.00     0.157 C 
HETATM   16  C4  UNK     1      19.765   4.807  31.754  1.00  0.00     0.157 C 
HETATM   17  C1  UNK     1      18.111   7.061  31.073  1.00  0.00     0.136 C 
HETATM   18  O1  UNK     1      18.942   7.050  32.241  1.00  0.00    -0.378 OA
HETATM   19  C5  UNK     1      16.655   6.750  31.408  1.00  0.00     0.041 C 
HETATM   20  C2  UNK     1      19.150   5.746  32.795  1.00  0.00     0.136 C 
HETATM   21  C6  UNK     1      20.068   5.901  33.999  1.00  0.00     0.041 C 
ENDBRANCH   3  12
BRANCH   9  22
HETATM   22  O5  UNK     1      19.295  -1.831  33.126  1.00  0.00    -0.353 OA
HETATM   23  C17 UNK     1      20.248  -2.467  33.976  1.00  0.00     0.210 C 
ENDBRANCH   9  22
TORSDOF 2
ENDMDL
MODEL 4
REMARK VINA RESULT:      -7.6     20.862     22.688
REMARK  2 active torsions:
REMARK  status: ('A' for Active; 'I' for Inactive)
REMARK    1  A    between atoms: C14_20  and  O5_5 
REMARK       I    between atoms: C7_13  and  N1_6 
REMARK    2  A    between atoms: C7_13  and  C8_14 
ROOT
HETATM    1  O3  UNK     1      23.942  -5.520  38.612  1.00  0.00    -0.271 OA
HETATM    2  O4  UNK     1      21.732  -4.993  38.367  1.00  0.00    -0.259 OA
HETATM    3  C8  UNK     1      22.252  -7.288  38.649  1.00  0.00     0.108 A 
HETATM    4  C9  UNK     1      23.194  -8.222  38.826  1.00  0.00     0.037 A 
HETATM    5  C10 UNK     1      24.597  -7.844  38.906  1.00  0.00     0.002 A 
HETATM    6  C11 UNK     1      22.592  -5.852  38.530  1.00  0.00     0.304 A 
HETATM    7  C12 UNK     1      24.938  -6.499  38.797  1.00  0.00     0.123 A 
HETATM    8  C13 UNK     1      25.613  -8.784  39.088  1.00  0.00     0.014 A 
HETATM    9  C14 UNK     1      26.262  -6.070  38.866  1.00  0.00     0.102 A 
HETATM   10  C15 UNK     1      26.946  -8.369  39.159  1.00  0.00     0.004 A 
HETATM   11  C16 UNK     1      27.269  -7.015  39.048  1.00  0.00     0.040 A 
ENDROOT
BRANCH   3  12
HETATM   12  C7  UNK     1      20.859  -7.771  38.579  1.00  0.00     0.260 C 
HETATM   13  O2  UNK     1      20.261  -7.945  39.641  1.00  0.00    -0.267 OA
HETATM   14  N1  UNK     1      20.316  -8.000  37.319  1.00  0.00    -0.343 N 
HETATM   15  C3  UNK     1      18.940  -8.483  37.206  1.00  0.00     0.157 C 
HETATM   16  C4  UNK     1      21.005  -7.872  36.029  1.00  0.00     0.157 C 
HETATM   17  C1  UNK     1      18.140  -7.654  36.200  1.00  0.00     0.136 C 
HETATM   18  O1  UNK     1      18.838  -7.572  34.951  1.00  0.00    -0.378 OA
HETATM   19  C5  UNK     1      17.760  -6.275  36.732  1.00  0.00     0.041 C 
HETATM   20  C2  UNK     1      20.163  -7.038  35.059  1.00  0.00     0.136 C 
HETATM   21  C6  UNK     1      20.774  -7.045  33.664  1.00  0.00     0.041 C 
ENDBRANCH   3  12
BRANCH   9  22
HETATM   22  O5  UNK     1      26.582  -4.753  38.759  1.00  0.00    -0.353 OA
HETATM   23  C17 UNK     1      27.969  -4.417  38.753  1.00  0.00     0.210 C 
ENDBRANCH   9  22
TORSDOF 2
ENDMDL
MODEL 5
REMARK VINA RESULT:      -7.5     12.143     14.516
REMARK  2 active torsions:
REMARK  status: ('A' for Active; 'I' for Inactive)
REMARK    1  A    between atoms: C14_20  and  O5_5 
REMARK       I    between atoms: C7_13  and  N1_6 
REMARK    2  A    between atoms: C7_13  and  C8_14 
ROOT
HETATM    1  O3  UNK     1      10.905   5.431   9.303  1.00  0.00    -0.271 OA
HETATM    2  O4  UNK     1      12.549   5.174  10.870  1.00  0.00    -0.259 OA
HETATM    3  C8  UNK     1      13.168   6.237   8.844  1.00  0.00     0.108 A 
HETATM    4  C9  UNK     1      12.795   6.673   7.634  1.00  0.00     0.037 A 
HETATM    5  C10 UNK     1      11.422   6.506   7.185  1.00  0.00     0.002 A 
HETATM    6  C11 UNK     1      12.212   5.576   9.761  1.00  0.00     0.304 A 
HETATM    7  C12 UNK     1      10.507   5.888   8.032  1.00  0.00     0.123 A 
HETATM    8  C13 UNK     1      10.990   6.944   5.931  1.00  0.00     0.014 A 
HETATM    9  C14 UNK     1       9.178   5.696   7.662  1.00  0.00     0.102 A 
HETATM   10  C15 UNK     1       9.659   6.760   5.546  1.00  0.00     0.004 A 
HETATM   11  C16 UNK     1       8.755   6.137   6.410  1.00  0.00     0.040 A 
ENDROOT
BRANCH   3  12
HETATM   12  C7  UNK     1      14.582   6.452   9.208  1.00  0.00     0.260 C 
HETATM   13  O2  UNK     1      15.425   5.729   8.677  1.00  0.00    -0.267 OA
HETATM   14  N1  UNK     1      14.867   7.455  10.129  1.00  0.00    -0.343 N 
HETATM   15  C3  UNK     1      16.256   7.699  10.520  1.00  0.00     0.157 C 
HETATM   16  C4  UNK     1      13.897   8.299  10.838  1.00  0.00     0.157 C 
HETATM   17  C1  UNK     1      16.605   9.184  10.434  1.00  0.00     0.136 C 
HETATM   18  O1  UNK     1      15.646   9.968  11.156  1.00  0.00    -0.378 OA
HETATM   19  C5  UNK     1      16.778   9.675   8.999  1.00  0.00     0.041 C 
HETATM   20  C2  UNK     1      14.294   9.773  10.725  1.00  0.00     0.136 C 
HETATM   21  C6  UNK     1      13.405  10.645  11.601  1.00  0.00     0.041 C 
ENDBRANCH   3  12
BRANCH   9  22
HETATM   22  O5  UNK     1       8.294   5.092   8.500  1.00  0.00    -0.353 OA
HETATM   23  C17 UNK     1       7.525   5.936   9.355  1.00  0.00     0.210 C 
ENDBRANCH   9  22
TORSDOF 2
ENDMDL
MODEL 6
REMARK VINA RESULT:      -7.5     22.717     24.346
REMARK  2 active torsions:
REMARK  status: ('A' for Active; 'I' for Inactive)
REMARK    1  A    between atoms: C14_20  and  O5_5 
REMARK       I    between atoms: C7_13  and  N1_6 
REMARK    2  A    between atoms: C7_13  and  C8_14 
ROOT
HETATM    1  O3  UNK     1      27.947  -5.829  38.316  1.00  0.00    -0.271 OA
HETATM    2  O4  UNK     1      29.204  -3.955  37.954  1.00  0.00    -0.259 OA
HETATM    3  C8  UNK     1      30.378  -6.007  38.118  1.00  0.00     0.108 A 
HETATM    4  C9  UNK     1      30.322  -7.332  38.299  1.00  0.00     0.037 A 
HETATM    5  C10 UNK     1      29.042  -7.991  38.504  1.00  0.00     0.002 A 
HETATM    6  C11 UNK     1      29.157  -5.169  38.118  1.00  0.00     0.304 A 
HETATM    7  C12 UNK     1      27.882  -7.222  38.507  1.00  0.00     0.123 A 
HETATM    8  C13 UNK     1      28.936  -9.370  38.698  1.00  0.00     0.014 A 
HETATM    9  C14 UNK     1      26.625  -7.792  38.698  1.00  0.00     0.102 A 
HETATM   10  C15 UNK     1      27.682  -9.956  38.891  1.00  0.00     0.004 A 
HETATM   11  C16 UNK     1      26.529  -9.168  38.891  1.00  0.00     0.040 A 
ENDROOT
BRANCH   3  12
HETATM   12  C7  UNK     1      31.723  -5.431  37.919  1.00  0.00     0.260 C 
HETATM   13  O2  UNK     1      32.365  -5.122  38.923  1.00  0.00    -0.267 OA
HETATM   14  N1  UNK     1      32.173  -5.275  36.612  1.00  0.00    -0.343 N 
HETATM   15  C3  UNK     1      33.498  -4.705  36.371  1.00  0.00     0.157 C 
HETATM   16  C4  UNK     1      31.423  -5.567  35.385  1.00  0.00     0.157 C 
HETATM   17  C1  UNK     1      34.301  -5.559  35.389  1.00  0.00     0.136 C 
HETATM   18  O1  UNK     1      33.541  -5.801  34.199  1.00  0.00    -0.378 OA
HETATM   19  C5  UNK     1      34.818  -6.854  36.009  1.00  0.00     0.041 C 
HETATM   20  C2  UNK     1      32.270  -6.419  34.435  1.00  0.00     0.136 C 
HETATM   21  C6  UNK     1      31.581  -6.580  33.087  1.00  0.00     0.041 C 
ENDBRANCH   3  12
BRANCH   9  22
HETATM   22  O5  UNK     1      25.499  -7.029  38.698  1.00  0.00    -0.353 OA
HETATM   23  C17 UNK     1      24.253  -7.705  38.861  1.00  0.00     0.210 C 
ENDBRANCH   9  22
TORSDOF 2
ENDMDL
MODEL 7
REMARK VINA RESULT:      -7.5     18.916     20.754
REMARK  2 active torsions:
REMARK  status: ('A' for Active; 'I' for Inactive)
REMARK    1  A    between atoms: C14_20  and  O5_5 
REMARK       I    between atoms: C7_13  and  N1_6 
REMARK    2  A    between atoms: C7_13  and  C8_14 
ROOT
HETATM    1  O3  UNK     1      20.471  -4.755  34.732  1.00  0.00    -0.271 OA
HETATM    2  O4  UNK     1      20.685  -7.020  34.516  1.00  0.00    -0.259 OA
HETATM    3  C8  UNK     1      19.133  -6.248  36.132  1.00  0.00     0.108 A 
HETATM    4  C9  UNK     1      18.551  -5.204  36.735  1.00  0.00     0.037 A 
HETATM    5  C10 UNK     1      18.910  -3.846  36.359  1.00  0.00     0.002 A 
HETATM    6  C11 UNK     1      20.150  -6.066  35.071  1.00  0.00     0.304 A 
HETATM    7  C12 UNK     1      19.863  -3.653  35.364  1.00  0.00     0.123 A 
HETATM    8  C13 UNK     1      18.330  -2.728  36.962  1.00  0.00     0.014 A 
HETATM    9  C14 UNK     1      20.251  -2.378  34.957  1.00  0.00     0.102 A 
HETATM   10  C15 UNK     1      18.709  -1.442  36.564  1.00  0.00     0.004 A 
HETATM   11  C16 UNK     1      19.668  -1.269  35.564  1.00  0.00     0.040 A 
ENDROOT
BRANCH   3  12
HETATM   12  C7  UNK     1      18.703  -7.586  36.584  1.00  0.00     0.260 C 
HETATM   13  O2  UNK     1      17.844  -8.165  35.918  1.00  0.00    -0.267 OA
HETATM   14  N1  UNK     1      19.294  -8.102  37.732  1.00  0.00    -0.343 N 
HETATM   15  C3  UNK     1      18.894  -9.423  38.216  1.00  0.00     0.157 C 
HETATM   16  C4  UNK     1      20.272  -7.428  38.595  1.00  0.00     0.157 C 
HETATM   17  C1  UNK     1      20.111 -10.300  38.511  1.00  0.00     0.136 C 
HETATM   18  O1  UNK     1      21.027  -9.612  39.372  1.00  0.00    -0.378 OA
HETATM   19  C5  UNK     1      20.794 -10.817  37.248  1.00  0.00     0.041 C 
HETATM   20  C2  UNK     1      21.466  -8.347  38.863  1.00  0.00     0.136 C 
HETATM   21  C6  UNK     1      22.401  -7.737  39.898  1.00  0.00     0.041 C 
ENDBRANCH   3  12
BRANCH   9  22
HETATM   22  O5  UNK     1      21.184  -2.204  33.982  1.00  0.00    -0.353 OA
HETATM   23  C17 UNK     1      20.730  -2.257  32.630  1.00  0.00     0.210 C 
ENDBRANCH   9  22
TORSDOF 2
ENDMDL
MODEL 8
REMARK VINA RESULT:      -7.4     12.680     14.692
REMARK  2 active torsions:
REMARK  status: ('A' for Active; 'I' for Inactive)
REMARK    1  A    between atoms: C14_20  and  O5_5 
REMARK       I    between atoms: C7_13  and  N1_6 
REMARK    2  A    between atoms: C7_13  and  C8_14 
ROOT
HETATM    1  O3  UNK     1       9.797   8.094   9.499  1.00  0.00    -0.271 OA
HETATM    2  O4  UNK     1      11.099   9.270  10.963  1.00  0.00    -0.259 OA
HETATM    3  C8  UNK     1      12.147   8.525   8.972  1.00  0.00     0.108 A 
HETATM    4  C9  UNK     1      12.034   7.870   7.810  1.00  0.00     0.037 A 
HETATM    5  C10 UNK     1      10.763   7.277   7.423  1.00  0.00     0.002 A 
HETATM    6  C11 UNK     1      11.000   8.671   9.897  1.00  0.00     0.304 A 
HETATM    7  C12 UNK     1       9.673   7.404   8.278  1.00  0.00     0.123 A 
HETATM    8  C13 UNK     1      10.600   6.584   6.221  1.00  0.00     0.014 A 
HETATM    9  C14 UNK     1       8.429   6.859   7.966  1.00  0.00     0.102 A 
HETATM   10  C15 UNK     1       9.358   6.032   5.894  1.00  0.00     0.004 A 
HETATM   11  C16 UNK     1       8.275   6.170   6.765  1.00  0.00     0.040 A 
ENDROOT
BRANCH   3  12
HETATM   12  C7  UNK     1      13.476   9.090   9.276  1.00  0.00     0.260 C 
HETATM   13  O2  UNK     1      13.553  10.306   9.450  1.00  0.00    -0.267 OA
HETATM   14  N1  UNK     1      14.552   8.212   9.344  1.00  0.00    -0.343 N 
HETATM   15  C3  UNK     1      15.887   8.732   9.639  1.00  0.00     0.157 C 
HETATM   16  C4  UNK     1      14.525   6.768   9.081  1.00  0.00     0.157 C 
HETATM   17  C1  UNK     1      16.565   7.927  10.748  1.00  0.00     0.136 C 
HETATM   18  O1  UNK     1      16.535   6.527  10.442  1.00  0.00    -0.378 OA
HETATM   19  C5  UNK     1      15.993   8.219  12.132  1.00  0.00     0.041 C 
HETATM   20  C2  UNK     1      15.218   6.009  10.217  1.00  0.00     0.136 C 
HETATM   21  C6  UNK     1      15.359   4.532   9.877  1.00  0.00     0.041 C 
ENDBRANCH   3  12
BRANCH   9  22
HETATM   22  O5  UNK     1       7.371   6.991   8.810  1.00  0.00    -0.353 OA
HETATM   23  C17 UNK     1       7.187   5.970   9.789  1.00  0.00     0.210 C 
ENDBRANCH   9  22
TORSDOF 2
ENDMDL
MODEL 9
REMARK VINA RESULT:      -7.4     19.922     21.957
REMARK  2 active torsions:
REMARK  status: ('A' for Active; 'I' for Inactive)
REMARK    1  A    between atoms: C14_20  and  O5_5 
REMARK       I    between atoms: C7_13  and  N1_6 
REMARK    2  A    between atoms: C7_13  and  C8_14 
ROOT
HETATM    1  O3  UNK     1      30.655  -8.268  31.993  1.00  0.00    -0.271 OA
HETATM    2  O4  UNK     1      32.526  -7.973  33.270  1.00  0.00    -0.259 OA
HETATM    3  C8  UNK     1      30.765  -6.421  33.592  1.00  0.00     0.108 A 
HETATM    4  C9  UNK     1      29.535  -6.016  33.250  1.00  0.00     0.037 A 
HETATM    5  C10 UNK     1      28.783  -6.735  32.234  1.00  0.00     0.002 A 
HETATM    6  C11 UNK     1      31.400  -7.600  32.961  1.00  0.00     0.304 A 
HETATM    7  C12 UNK     1      29.361  -7.847  31.628  1.00  0.00     0.123 A 
HETATM    8  C13 UNK     1      27.498  -6.348  31.845  1.00  0.00     0.014 A 
HETATM    9  C14 UNK     1      28.694  -8.579  30.649  1.00  0.00     0.102 A 
HETATM   10  C15 UNK     1      26.816  -7.073  30.864  1.00  0.00     0.004 A 
HETATM   11  C16 UNK     1      27.413  -8.186  30.267  1.00  0.00     0.040 A 
ENDROOT
BRANCH   3  12
HETATM   12  C7  UNK     1      31.448  -5.626  34.631  1.00  0.00     0.260 C 
HETATM   13  O2  UNK     1      32.053  -4.616  34.272  1.00  0.00    -0.267 OA
HETATM   14  N1  UNK     1      31.364  -6.072  35.946  1.00  0.00    -0.343 N 
HETATM   15  C3  UNK     1      32.030  -5.315  37.006  1.00  0.00     0.157 C 
HETATM   16  C4  UNK     1      30.713  -7.300  36.417  1.00  0.00     0.157 C 
HETATM   17  C1  UNK     1      31.089  -5.059  38.183  1.00  0.00     0.136 C 
HETATM   18  O1  UNK     1      30.491  -6.286  38.623  1.00  0.00    -0.378 OA
HETATM   19  C5  UNK     1      30.041  -3.990  37.887  1.00  0.00     0.041 C 
HETATM   20  C2  UNK     1      29.786  -6.991  37.595  1.00  0.00     0.136 C 
HETATM   21  C6  UNK     1      29.242  -8.273  38.211  1.00  0.00     0.041 C 
ENDBRANCH   3  12
BRANCH   9  22
HETATM   22  O5  UNK     1      29.271  -9.664  30.066  1.00  0.00    -0.353 OA
HETATM   23  C17 UNK     1      28.898  -9.955  28.719  1.00  0.00     0.210 C 
ENDBRANCH   9  22
TORSDOF 2
ENDMDL
MODEL 10
REMARK VINA RESULT:      -7.3     21.878     23.537
REMARK  2 active torsions:
REMARK  status: ('A' for Active; 'I' for Inactive)
REMARK    1  A    between atoms: C14_20  and  O5_5 
REMARK       I    between atoms: C7_13  and  N1_6 
REMARK    2  A    between atoms: C7_13  and  C8_14 
ROOT
HETATM    1  O3  UNK     1      24.100  -8.417  37.504  1.00  0.00    -0.271 OA
HETATM    2  O4  UNK     1      25.141  -6.761  38.686  1.00  0.00    -0.259 OA
HETATM    3  C8  UNK     1      26.458  -8.646  38.113  1.00  0.00     0.108 A 
HETATM    4  C9  UNK     1      26.524  -9.841  37.513  1.00  0.00     0.037 A 
HETATM    5  C10 UNK     1      25.350 -10.401  36.862  1.00  0.00     0.002 A 
HETATM    6  C11 UNK     1      25.206  -7.856  38.137  1.00  0.00     0.304 A 
HETATM    7  C12 UNK     1      24.163  -9.674  36.872  1.00  0.00     0.123 A 
HETATM    8  C13 UNK     1      25.372 -11.644  36.225  1.00  0.00     0.014 A 
HETATM    9  C14 UNK     1      23.004 -10.154  36.267  1.00  0.00     0.102 A 
HETATM   10  C15 UNK     1      24.217 -12.139  35.613  1.00  0.00     0.004 A 
HETATM   11  C16 UNK     1      23.035 -11.394  35.634  1.00  0.00     0.040 A 
ENDROOT
BRANCH   3  12
HETATM   12  C7  UNK     1      27.700  -8.165  38.746  1.00  0.00     0.260 C 
HETATM   13  O2  UNK     1      27.928  -8.522  39.902  1.00  0.00    -0.267 OA
HETATM   14  N1  UNK     1      28.530  -7.337  37.996  1.00  0.00    -0.343 N 
HETATM   15  C3  UNK     1      29.770  -6.835  38.588  1.00  0.00     0.157 C 
HETATM   16  C4  UNK     1      28.274  -6.830  36.643  1.00  0.00     0.157 C 
HETATM   17  C1  UNK     1      30.960  -7.049  37.653  1.00  0.00     0.136 C 
HETATM   18  O1  UNK     1      30.675  -6.522  36.351  1.00  0.00    -0.378 OA
HETATM   19  C5  UNK     1      31.416  -8.504  37.591  1.00  0.00     0.041 C 
HETATM   20  C2  UNK     1      29.494  -7.065  35.749  1.00  0.00     0.136 C 
HETATM   21  C6  UNK     1      29.317  -6.388  34.397  1.00  0.00     0.041 C 
ENDBRANCH   3  12
BRANCH   9  22
HETATM   22  O5  UNK     1      21.851  -9.432  36.284  1.00  0.00    -0.353 OA
HETATM   23  C17 UNK     1      21.357  -8.964  35.029  1.00  0.00     0.210 C 
ENDBRANCH   9  22
TORSDOF 2
ENDMDL
