MODEL 1
REMARK VINA RESULT:      -8.8      0.000      0.000
REMARK  6 active torsions:
REMARK  status: ('A' for Active; 'I' for Inactive)
REMARK    1  A    between atoms: C12_20  and  O2_2 
REMARK    2  A    between atoms: C13_21  and  O4_4 
REMARK    3  A    between atoms: C20_28  and  O4_4 
REMARK    4  A    between atoms: C12_20  and  C2_10 
REMARK    5  A    between atoms: C11_19  and  C6_14 
REMARK    6  A    between atoms: C13_21  and  C8_16 
ROOT
HETATM    1  O1  UNK     1      29.002  -9.517  36.468  1.00  0.00    -0.292 OA
HETATM    2  N1  UNK     1      30.503  -5.180  37.636  1.00  0.00    -0.362 N 
HETATM    3  C1  UNK     1      27.757  -7.336  39.084  1.00  0.00     0.008 C 
HETATM    4  C2  UNK     1      28.303  -8.692  38.614  1.00  0.00     0.164 C 
HETATM    5  C3  UNK     1      28.910  -6.320  39.117  1.00  0.00     0.063 C 
HETATM    6  C4  UNK     1      29.736  -7.315  36.955  1.00  0.00     0.025 C 
HETATM    7  C5  UNK     1      29.728  -6.304  37.850  1.00  0.00     0.020 C 
HETATM    8  C6  UNK     1      30.533  -7.215  35.657  1.00  0.00     0.104 C 
HETATM    9  C7  UNK     1      28.992  -8.579  37.265  1.00  0.00     0.172 C 
HETATM   10  C8  UNK     1      31.484  -6.015  35.651  1.00  0.00     0.052 C 
HETATM   11  C9  UNK     1      26.589  -6.818  38.230  1.00  0.00     0.011 C 
HETATM   12  C10 UNK     1      31.411  -5.051  36.598  1.00  0.00     0.018 C 
HETATM   13  C14 UNK     1      32.258  -3.808  36.644  1.00  0.00     0.069 C 
HETATM   14  H9  UNK     1      30.474  -4.445  38.334  1.00  0.00     0.165 HD
ENDROOT
BRANCH   8  15
HETATM   15  C11 UNK     1      29.604  -7.150  34.470  1.00  0.00     0.029 A 
HETATM   16  C15 UNK     1      29.794  -8.124  33.366  1.00  0.00     0.194 A 
HETATM   17  O7  UNK     1      30.676  -8.973  33.392  1.00  0.00    -0.287 OA
HETATM   18  C17 UNK     1      28.859  -8.015  32.230  1.00  0.00     0.049 A 
HETATM   19  C18 UNK     1      27.875  -7.027  32.254  1.00  0.00     0.089 A 
HETATM   20  C19 UNK     1      28.956  -8.887  31.142  1.00  0.00     0.025 A 
HETATM   21  O3  UNK     1      27.735  -6.145  33.296  1.00  0.00    -0.321 OA
HETATM   22  C22 UNK     1      26.980  -6.906  31.191  1.00  0.00     0.039 A 
HETATM   23  C16 UNK     1      28.612  -6.260  34.347  1.00  0.00     0.154 A 
HETATM   24  C24 UNK     1      27.074  -7.775  30.104  1.00  0.00     0.009 A 
HETATM   25  C23 UNK     1      28.059  -8.763  30.080  1.00  0.00    -0.061 A 
HETATM   26  C27 UNK     1      28.154  -9.690  28.914  1.00  0.00     0.048 C 
ENDBRANCH   8  15
BRANCH  10  27
HETATM   27  C13 UNK     1      32.514  -5.992  34.599  1.00  0.00     0.292 C 
HETATM   28  O6  UNK     1      32.361  -5.439  33.526  1.00  0.00    -0.259 OA
BRANCH  27  29
HETATM   29  O4  UNK     1      33.597  -6.672  35.047  1.00  0.00    -0.313 OA
BRANCH  29  30
HETATM   30  C20 UNK     1      34.827  -5.941  35.017  1.00  0.00     0.124 C 
HETATM   31  C26 UNK     1      35.836  -6.692  34.163  1.00  0.00     0.040 C 
HETATM   32  C25 UNK     1      35.325  -5.743  36.441  1.00  0.00     0.040 C 
ENDBRANCH  29  30
ENDBRANCH  27  29
ENDBRANCH  10  27
BRANCH   4  33
HETATM   33  C12 UNK     1      27.231  -9.739  38.660  1.00  0.00     0.270 C 
HETATM   34  O5  UNK     1      26.548 -10.062  37.698  1.00  0.00    -0.264 OA
BRANCH  33  35
HETATM   35  O2  UNK     1      27.151 -10.254  39.920  1.00  0.00    -0.326 OA
HETATM   36  C21 UNK     1      28.405 -10.501  40.564  1.00  0.00     0.213 C 
ENDBRANCH  33  35
ENDBRANCH   4  33
TORSDOF 6
ENDMDL
MODEL 2
REMARK VINA RESULT:      -8.6      2.134      2.993
REMARK  6 active torsions:
REMARK  status: ('A' for Active; 'I' for Inactive)
REMARK    1  A    between atoms: C12_20  and  O2_2 
REMARK    2  A    between atoms: C13_21  and  O4_4 
REMARK    3  A    between atoms: C20_28  and  O4_4 
REMARK    4  A    between atoms: C12_20  and  C2_10 
REMARK    5  A    between atoms: C11_19  and  C6_14 
REMARK    6  A    between atoms: C13_21  and  C8_16 
ROOT
HETATM    1  O1  UNK     1      29.500  -7.939  36.701  1.00  0.00    -0.292 OA
HETATM    2  N1  UNK     1      33.747  -5.844  36.714  1.00  0.00    -0.362 N 
HETATM    3  C1  UNK     1      30.596  -5.093  38.662  1.00  0.00     0.008 C 
HETATM    4  C2  UNK     1      29.964  -6.487  38.559  1.00  0.00     0.164 C 
HETATM    5  C3  UNK     1      32.112  -5.215  38.434  1.00  0.00     0.063 C 
HETATM    6  C4  UNK     1      31.617  -6.874  36.605  1.00  0.00     0.025 C 
HETATM    7  C5  UNK     1      32.468  -6.018  37.208  1.00  0.00     0.020 C 
HETATM    8  C6  UNK     1      32.011  -7.611  35.327  1.00  0.00     0.104 C 
HETATM    9  C7  UNK     1      30.281  -7.148  37.229  1.00  0.00     0.172 C 
HETATM   10  C8  UNK     1      33.503  -7.472  35.014  1.00  0.00     0.052 C 
HETATM   11  C9  UNK     1      29.975  -4.068  37.700  1.00  0.00     0.011 C 
HETATM   12  C10 UNK     1      34.286  -6.591  35.679  1.00  0.00     0.018 C 
HETATM   13  C14 UNK     1      35.744  -6.340  35.405  1.00  0.00     0.069 C 
HETATM   14  H9  UNK     1      34.358  -5.196  37.198  1.00  0.00     0.165 HD
ENDROOT
BRANCH   8  15
HETATM   15  C11 UNK     1      31.186  -7.124  34.161  1.00  0.00     0.029 A 
HETATM   16  C15 UNK     1      30.415  -8.119  33.373  1.00  0.00     0.194 A 
HETATM   17  O7  UNK     1      30.429  -9.313  33.641  1.00  0.00    -0.287 OA
HETATM   18  C17 UNK     1      29.627  -7.590  32.244  1.00  0.00     0.049 A 
HETATM   19  C18 UNK     1      29.650  -6.219  31.985  1.00  0.00     0.089 A 
HETATM   20  C19 UNK     1      28.868  -8.446  31.442  1.00  0.00     0.025 A 
HETATM   21  O3  UNK     1      30.378  -5.334  32.739  1.00  0.00    -0.321 OA
HETATM   22  C22 UNK     1      28.912  -5.696  30.922  1.00  0.00     0.039 A 
HETATM   23  C16 UNK     1      31.106  -5.842  33.787  1.00  0.00     0.154 A 
HETATM   24  C24 UNK     1      28.153  -6.549  30.120  1.00  0.00     0.009 A 
HETATM   25  C23 UNK     1      28.131  -7.920  30.380  1.00  0.00    -0.061 A 
HETATM   26  C27 UNK     1      27.316  -8.826  29.519  1.00  0.00     0.048 C 
ENDBRANCH   8  15
BRANCH  10  27
HETATM   27  C13 UNK     1      34.052  -8.381  33.994  1.00  0.00     0.292 C 
HETATM   28  O6  UNK     1      34.209  -9.574  34.178  1.00  0.00    -0.259 OA
BRANCH  27  29
HETATM   29  O4  UNK     1      34.329  -7.660  32.881  1.00  0.00    -0.313 OA
BRANCH  29  30
HETATM   30  C20 UNK     1      34.042  -8.319  31.644  1.00  0.00     0.124 C 
HETATM   31  C26 UNK     1      35.338  -8.526  30.875  1.00  0.00     0.040 C 
HETATM   32  C25 UNK     1      33.041  -7.489  30.855  1.00  0.00     0.040 C 
ENDBRANCH  29  30
ENDBRANCH  27  29
ENDBRANCH  10  27
BRANCH   4  33
HETATM   33  C12 UNK     1      28.499  -6.429  38.872  1.00  0.00     0.270 C 
HETATM   34  O5  UNK     1      27.713  -5.664  38.329  1.00  0.00    -0.264 OA
BRANCH  33  35
HETATM   35  O2  UNK     1      28.201  -7.348  39.833  1.00  0.00    -0.326 OA
HETATM   36  C21 UNK     1      27.345  -8.417  39.418  1.00  0.00     0.213 C 
ENDBRANCH  33  35
ENDBRANCH   4  33
TORSDOF 6
ENDMDL
MODEL 3
REMARK VINA RESULT:      -8.6      0.911      1.023
REMARK  6 active torsions:
REMARK  status: ('A' for Active; 'I' for Inactive)
REMARK    1  A    between atoms: C12_20  and  O2_2 
REMARK    2  A    between atoms: C13_21  and  O4_4 
REMARK    3  A    between atoms: C20_28  and  O4_4 
REMARK    4  A    between atoms: C12_20  and  C2_10 
REMARK    5  A    between atoms: C11_19  and  C6_14 
REMARK    6  A    between atoms: C13_21  and  C8_16 
ROOT
HETATM    1  O1  UNK     1      28.911  -9.222  36.637  1.00  0.00    -0.292 OA
HETATM    2  N1  UNK     1      31.536  -5.313  37.139  1.00  0.00    -0.362 N 
HETATM    3  C1  UNK     1      28.500  -6.532  39.033  1.00  0.00     0.008 C 
HETATM    4  C2  UNK     1      28.648  -8.023  38.703  1.00  0.00     0.164 C 
HETATM    5  C3  UNK     1      29.865  -5.846  38.858  1.00  0.00     0.063 C 
HETATM    6  C4  UNK     1      30.205  -7.241  36.789  1.00  0.00     0.025 C 
HETATM    7  C5  UNK     1      30.534  -6.173  37.546  1.00  0.00     0.020 C 
HETATM    8  C6  UNK     1      30.872  -7.485  35.437  1.00  0.00     0.104 C 
HETATM    9  C7  UNK     1      29.208  -8.234  37.306  1.00  0.00     0.172 C 
HETATM   10  C8  UNK     1      32.082  -6.575  35.214  1.00  0.00     0.052 C 
HETATM   11  C9  UNK     1      27.417  -5.827  38.202  1.00  0.00     0.011 C 
HETATM   12  C10 UNK     1      32.341  -5.530  36.033  1.00  0.00     0.018 C 
HETATM   13  C14 UNK     1      33.467  -4.546  35.864  1.00  0.00     0.069 C 
HETATM   14  H9  UNK     1      31.756  -4.525  37.738  1.00  0.00     0.165 HD
ENDROOT
BRANCH   8  15
HETATM   15  C11 UNK     1      29.875  -7.311  34.318  1.00  0.00     0.029 A 
HETATM   16  C15 UNK     1      29.864  -8.306  33.216  1.00  0.00     0.194 A 
HETATM   17  O7  UNK     1      30.635  -9.257  33.191  1.00  0.00    -0.287 OA
HETATM   18  C17 UNK     1      28.871  -8.088  32.147  1.00  0.00     0.049 A 
HETATM   19  C18 UNK     1      28.020  -6.986  32.228  1.00  0.00     0.089 A 
HETATM   20  C19 UNK     1      28.782  -8.969  31.067  1.00  0.00     0.025 A 
HETATM   21  O3  UNK     1      28.064  -6.089  33.266  1.00  0.00    -0.321 OA
HETATM   22  C22 UNK     1      27.073  -6.760  31.229  1.00  0.00     0.039 A 
HETATM   23  C16 UNK     1      28.994  -6.306  34.253  1.00  0.00     0.154 A 
HETATM   24  C24 UNK     1      26.982  -7.639  30.149  1.00  0.00     0.009 A 
HETATM   25  C23 UNK     1      27.834  -8.740  30.069  1.00  0.00    -0.061 A 
HETATM   26  C27 UNK     1      27.730  -9.677  28.912  1.00  0.00     0.048 C 
ENDBRANCH   8  15
BRANCH  10  27
HETATM   27  C13 UNK     1      32.978  -6.927  34.100  1.00  0.00     0.292 C 
HETATM   28  O6  UNK     1      32.840  -6.497  32.970  1.00  0.00    -0.259 OA
BRANCH  27  29
HETATM   29  O4  UNK     1      33.927  -7.775  34.565  1.00  0.00    -0.313 OA
BRANCH  29  30
HETATM   30  C20 UNK     1      35.211  -7.647  33.946  1.00  0.00     0.124 C 
HETATM   31  C26 UNK     1      35.672  -9.013  33.462  1.00  0.00     0.040 C 
HETATM   32  C25 UNK     1      36.187  -7.040  34.942  1.00  0.00     0.040 C 
ENDBRANCH  29  30
ENDBRANCH  27  29
ENDBRANCH  10  27
BRANCH   4  33
HETATM   33  C12 UNK     1      27.363  -8.752  38.955  1.00  0.00     0.270 C 
HETATM   34  O5  UNK     1      26.432  -8.793  38.161  1.00  0.00    -0.264 OA
BRANCH  33  35
HETATM   35  O2  UNK     1      27.407  -9.344  40.182  1.00  0.00    -0.326 OA
HETATM   36  C21 UNK     1      28.339 -10.421  40.312  1.00  0.00     0.213 C 
ENDBRANCH  33  35
ENDBRANCH   4  33
TORSDOF 6
ENDMDL
MODEL 4
REMARK VINA RESULT:      -8.5      1.285      1.739
REMARK  6 active torsions:
REMARK  status: ('A' for Active; 'I' for Inactive)
REMARK    1  A    between atoms: C12_20  and  O2_2 
REMARK    2  A    between atoms: C13_21  and  O4_4 
REMARK    3  A    between atoms: C20_28  and  O4_4 
REMARK    4  A    between atoms: C12_20  and  C2_10 
REMARK    5  A    between atoms: C11_19  and  C6_14 
REMARK    6  A    between atoms: C13_21  and  C8_16 
ROOT
HETATM    1  O1  UNK     1      28.275  -9.377  36.705  1.00  0.00    -0.292 OA
HETATM    2  N1  UNK     1      31.398  -5.899  37.467  1.00  0.00    -0.362 N 
HETATM    3  C1  UNK     1      28.077  -6.663  39.102  1.00  0.00     0.008 C 
HETATM    4  C2  UNK     1      28.030  -8.159  38.762  1.00  0.00     0.164 C 
HETATM    5  C3  UNK     1      29.537  -6.185  39.043  1.00  0.00     0.063 C 
HETATM    6  C4  UNK     1      29.831  -7.609  36.986  1.00  0.00     0.025 C 
HETATM    7  C5  UNK     1      30.252  -6.603  37.783  1.00  0.00     0.020 C 
HETATM    8  C6  UNK     1      30.559  -7.944  35.686  1.00  0.00     0.104 C 
HETATM    9  C7  UNK     1      28.661  -8.445  37.410  1.00  0.00     0.172 C 
HETATM   10  C8  UNK     1      31.903  -7.222  35.571  1.00  0.00     0.052 C 
HETATM   11  C9  UNK     1      27.178  -5.803  38.200  1.00  0.00     0.011 C 
HETATM   12  C10 UNK     1      32.247  -6.229  36.424  1.00  0.00     0.018 C 
HETATM   13  C14 UNK     1      33.516  -5.422  36.357  1.00  0.00     0.069 C 
HETATM   14  H9  UNK     1      31.684  -5.155  38.093  1.00  0.00     0.165 HD
ENDROOT
BRANCH   8  15
HETATM   15  C11 UNK     1      29.690  -7.621  34.496  1.00  0.00     0.029 A 
HETATM   16  C15 UNK     1      29.603  -8.610  33.392  1.00  0.00     0.194 A 
HETATM   17  O7  UNK     1      30.210  -9.672  33.420  1.00  0.00    -0.287 OA
HETATM   18  C17 UNK     1      28.740  -8.244  32.253  1.00  0.00     0.049 A 
HETATM   19  C18 UNK     1      28.073  -7.019  32.274  1.00  0.00     0.089 A 
HETATM   20  C19 UNK     1      28.593  -9.107  31.164  1.00  0.00     0.025 A 
HETATM   21  O3  UNK     1      28.182  -6.133  33.316  1.00  0.00    -0.321 OA
HETATM   22  C22 UNK     1      27.252  -6.652  31.207  1.00  0.00     0.039 A 
HETATM   23  C16 UNK     1      28.988  -6.489  34.370  1.00  0.00     0.154 A 
HETATM   24  C24 UNK     1      27.103  -7.513  30.120  1.00  0.00     0.009 A 
HETATM   25  C23 UNK     1      27.771  -8.737  30.099  1.00  0.00    -0.061 A 
HETATM   26  C27 UNK     1      27.606  -9.654  28.933  1.00  0.00     0.048 C 
ENDBRANCH   8  15
BRANCH  10  27
HETATM   27  C13 UNK     1      32.823  -7.699  34.525  1.00  0.00     0.292 C 
HETATM   28  O6  UNK     1      33.539  -8.673  34.659  1.00  0.00    -0.259 OA
BRANCH  27  29
HETATM   29  O4  UNK     1      32.712  -6.879  33.452  1.00  0.00    -0.313 OA
BRANCH  29  30
HETATM   30  C20 UNK     1      32.922  -7.509  32.184  1.00  0.00     0.124 C 
HETATM   31  C26 UNK     1      34.348  -7.245  31.725  1.00  0.00     0.040 C 
HETATM   32  C25 UNK     1      31.900  -6.982  31.188  1.00  0.00     0.040 C 
ENDBRANCH  29  30
ENDBRANCH  27  29
ENDBRANCH  10  27
BRANCH   4  33
HETATM   33  C12 UNK     1      26.635  -8.690  38.903  1.00  0.00     0.270 C 
HETATM   34  O5  UNK     1      25.718  -8.417  38.140  1.00  0.00    -0.264 OA
BRANCH  33  35
HETATM   35  O2  UNK     1      26.566  -9.507  39.992  1.00  0.00    -0.326 OA
HETATM   36  C21 UNK     1      27.761 -10.233  40.293  1.00  0.00     0.213 C 
ENDBRANCH  33  35
ENDBRANCH   4  33
TORSDOF 6
ENDMDL
MODEL 5
REMARK VINA RESULT:      -8.1      2.240      6.396
REMARK  6 active torsions:
REMARK  status: ('A' for Active; 'I' for Inactive)
REMARK    1  A    between atoms: C12_20  and  O2_2 
REMARK    2  A    between atoms: C13_21  and  O4_4 
REMARK    3  A    between atoms: C20_28  and  O4_4 
REMARK    4  A    between atoms: C12_20  and  C2_10 
REMARK    5  A    between atoms: C11_19  and  C6_14 
REMARK    6  A    between atoms: C13_21  and  C8_16 
ROOT
HETATM    1  O1  UNK     1      30.180  -9.188  31.909  1.00  0.00    -0.292 OA
HETATM    2  N1  UNK     1      28.287  -6.318  35.167  1.00  0.00    -0.362 N 
HETATM    3  C1  UNK     1      27.860  -6.445  31.414  1.00  0.00     0.008 C 
HETATM    4  C2  UNK     1      28.262  -7.913  31.219  1.00  0.00     0.164 C 
HETATM    5  C3  UNK     1      27.418  -6.239  32.872  1.00  0.00     0.063 C 
HETATM    6  C4  UNK     1      29.328  -7.725  33.570  1.00  0.00     0.025 C 
HETATM    7  C5  UNK     1      28.394  -6.799  33.876  1.00  0.00     0.020 C 
HETATM    8  C6  UNK     1      30.334  -8.206  34.614  1.00  0.00     0.104 C 
HETATM    9  C7  UNK     1      29.346  -8.330  32.199  1.00  0.00     0.172 C 
HETATM   10  C8  UNK     1      29.972  -7.740  36.026  1.00  0.00     0.052 C 
HETATM   11  C9  UNK     1      28.966  -5.452  31.026  1.00  0.00     0.011 C 
HETATM   12  C10 UNK     1      29.011  -6.812  36.240  1.00  0.00     0.018 C 
HETATM   13  C14 UNK     1      28.625  -6.247  37.581  1.00  0.00     0.069 C 
HETATM   14  H9  UNK     1      27.570  -5.627  35.357  1.00  0.00     0.165 HD
ENDROOT
BRANCH   8  15
HETATM   15  C11 UNK     1      31.727  -7.751  34.255  1.00  0.00     0.029 A 
HETATM   16  C15 UNK     1      32.787  -8.777  34.086  1.00  0.00     0.194 A 
HETATM   17  O7  UNK     1      32.564  -9.972  34.228  1.00  0.00    -0.287 OA
HETATM   18  C17 UNK     1      34.130  -8.277  33.737  1.00  0.00     0.049 A 
HETATM   19  C18 UNK     1      34.325  -6.903  33.589  1.00  0.00     0.089 A 
HETATM   20  C19 UNK     1      35.195  -9.163  33.557  1.00  0.00     0.025 A 
HETATM   21  O3  UNK     1      33.316  -5.989  33.755  1.00  0.00    -0.321 OA
HETATM   22  C22 UNK     1      35.587  -6.408  33.259  1.00  0.00     0.039 A 
HETATM   23  C16 UNK     1      32.071  -6.470  34.080  1.00  0.00     0.154 A 
HETATM   24  C24 UNK     1      36.652  -7.292  33.078  1.00  0.00     0.009 A 
HETATM   25  C23 UNK     1      36.456  -8.665  33.226  1.00  0.00    -0.061 A 
HETATM   26  C27 UNK     1      37.599  -9.604  33.030  1.00  0.00     0.048 C 
ENDBRANCH   8  15
BRANCH  10  27
HETATM   27  C13 UNK     1      30.682  -8.391  37.140  1.00  0.00     0.292 C 
HETATM   28  O6  UNK     1      30.815  -9.597  37.233  1.00  0.00    -0.259 OA
BRANCH  27  29
HETATM   29  O4  UNK     1      31.128  -7.430  37.984  1.00  0.00    -0.313 OA
BRANCH  29  30
HETATM   30  C20 UNK     1      32.256  -6.686  37.514  1.00  0.00     0.124 C 
HETATM   31  C26 UNK     1      33.501  -7.554  37.605  1.00  0.00     0.040 C 
HETATM   32  C25 UNK     1      32.393  -5.412  38.335  1.00  0.00     0.040 C 
ENDBRANCH  29  30
ENDBRANCH  27  29
ENDBRANCH  10  27
BRANCH   4  33
HETATM   33  C12 UNK     1      28.607  -8.183  29.786  1.00  0.00     0.270 C 
HETATM   34  O5  UNK     1      29.511  -7.621  29.182  1.00  0.00    -0.264 OA
BRANCH  33  35
HETATM   35  O2  UNK     1      27.768  -9.133  29.285  1.00  0.00    -0.326 OA
HETATM   36  C21 UNK     1      28.365 -10.065  28.379  1.00  0.00     0.213 C 
ENDBRANCH  33  35
ENDBRANCH   4  33
TORSDOF 6
ENDMDL
MODEL 6
REMARK VINA RESULT:      -8.0      2.525      3.398
REMARK  6 active torsions:
REMARK  status: ('A' for Active; 'I' for Inactive)
REMARK    1  A    between atoms: C12_20  and  O2_2 
REMARK    2  A    between atoms: C13_21  and  O4_4 
REMARK    3  A    between atoms: C20_28  and  O4_4 
REMARK    4  A    between atoms: C12_20  and  C2_10 
REMARK    5  A    between atoms: C11_19  and  C6_14 
REMARK    6  A    between atoms: C13_21  and  C8_16 
ROOT
HETATM    1  O1  UNK     1      30.514 -10.170  35.779  1.00  0.00    -0.292 OA
HETATM    2  N1  UNK     1      34.308  -7.384  36.301  1.00  0.00    -0.362 N 
HETATM    3  C1  UNK     1      31.197  -7.773  38.412  1.00  0.00     0.008 C 
HETATM    4  C2  UNK     1      30.821  -9.187  37.950  1.00  0.00     0.164 C 
HETATM    5  C3  UNK     1      32.693  -7.543  38.144  1.00  0.00     0.063 C 
HETATM    6  C4  UNK     1      32.395  -8.735  35.946  1.00  0.00     0.025 C 
HETATM    7  C5  UNK     1      33.114  -7.919  36.746  1.00  0.00     0.020 C 
HETATM    8  C6  UNK     1      32.838  -9.028  34.514  1.00  0.00     0.104 C 
HETATM    9  C7  UNK     1      31.171  -9.409  36.488  1.00  0.00     0.172 C 
HETATM   10  C8  UNK     1      34.259  -8.533  34.233  1.00  0.00     0.052 C 
HETATM   11  C9  UNK     1      30.344  -6.671  37.763  1.00  0.00     0.011 C 
HETATM   12  C10 UNK     1      34.909  -7.723  35.100  1.00  0.00     0.018 C 
HETATM   13  C14 UNK     1      36.280  -7.138  34.887  1.00  0.00     0.069 C 
HETATM   14  H9  UNK     1      34.821  -6.780  36.934  1.00  0.00     0.165 HD
ENDROOT
BRANCH   8  15
HETATM   15  C11 UNK     1      31.870  -8.422  33.528  1.00  0.00     0.029 A 
HETATM   16  C15 UNK     1      31.192  -9.318  32.557  1.00  0.00     0.194 A 
HETATM   17  O7  UNK     1      31.393 -10.525  32.535  1.00  0.00    -0.287 OA
HETATM   18  C17 UNK     1      30.257  -8.673  31.615  1.00  0.00     0.049 A 
HETATM   19  C18 UNK     1      30.068  -7.293  31.686  1.00  0.00     0.089 A 
HETATM   20  C19 UNK     1      29.570  -9.430  30.663  1.00  0.00     0.025 A 
HETATM   21  O3  UNK     1      30.717  -6.501  32.600  1.00  0.00    -0.321 OA
HETATM   22  C22 UNK     1      29.189  -6.662  30.805  1.00  0.00     0.039 A 
HETATM   23  C16 UNK     1      31.583  -7.116  33.470  1.00  0.00     0.154 A 
HETATM   24  C24 UNK     1      28.501  -7.416  29.854  1.00  0.00     0.009 A 
HETATM   25  C23 UNK     1      28.691  -8.796  29.784  1.00  0.00    -0.061 A 
HETATM   26  C27 UNK     1      27.952  -9.597  28.765  1.00  0.00     0.048 C 
ENDBRANCH   8  15
BRANCH  10  27
HETATM   27  C13 UNK     1      34.900  -9.027  33.003  1.00  0.00     0.292 C 
HETATM   28  O6  UNK     1      35.373 -10.143  32.898  1.00  0.00    -0.259 OA
BRANCH  27  29
HETATM   29  O4  UNK     1      34.858  -8.042  32.073  1.00  0.00    -0.313 OA
BRANCH  29  30
HETATM   30  C20 UNK     1      34.438  -8.457  30.770  1.00  0.00     0.124 C 
HETATM   31  C26 UNK     1      35.658  -8.607  29.875  1.00  0.00     0.040 C 
HETATM   32  C25 UNK     1      33.450  -7.442  30.216  1.00  0.00     0.040 C 
ENDBRANCH  29  30
ENDBRANCH  27  29
ENDBRANCH  10  27
BRANCH   4  33
HETATM   33  C12 UNK     1      29.391  -9.490  38.282  1.00  0.00     0.270 C 
HETATM   34  O5  UNK     1      28.436  -9.068  37.644  1.00  0.00    -0.264 OA
BRANCH  33  35
HETATM   35  O2  UNK     1      29.338 -10.294  39.382  1.00  0.00    -0.326 OA
HETATM   36  C21 UNK     1      28.109 -10.256  40.113  1.00  0.00     0.213 C 
ENDBRANCH  33  35
ENDBRANCH   4  33
TORSDOF 6
ENDMDL
MODEL 7
REMARK VINA RESULT:      -8.0      2.377      6.458
REMARK  6 active torsions:
REMARK  status: ('A' for Active; 'I' for Inactive)
REMARK    1  A    between atoms: C12_20  and  O2_2 
REMARK    2  A    between atoms: C13_21  and  O4_4 
REMARK    3  A    between atoms: C20_28  and  O4_4 
REMARK    4  A    between atoms: C12_20  and  C2_10 
REMARK    5  A    between atoms: C11_19  and  C6_14 
REMARK    6  A    between atoms: C13_21  and  C8_16 
ROOT
HETATM    1  O1  UNK     1      31.951  -6.340  34.065  1.00  0.00    -0.292 OA
HETATM    2  N1  UNK     1      30.471  -6.404  38.563  1.00  0.00    -0.362 N 
HETATM    3  C1  UNK     1      33.757  -5.322  37.040  1.00  0.00     0.008 C 
HETATM    4  C2  UNK     1      33.234  -5.038  35.625  1.00  0.00     0.164 C 
HETATM    5  C3  UNK     1      32.579  -5.264  38.026  1.00  0.00     0.063 C 
HETATM    6  C4  UNK     1      31.191  -6.474  36.307  1.00  0.00     0.025 C 
HETATM    7  C5  UNK     1      31.388  -6.077  37.583  1.00  0.00     0.020 C 
HETATM    8  C6  UNK     1      30.000  -7.351  35.929  1.00  0.00     0.104 C 
HETATM    9  C7  UNK     1      32.126  -6.002  35.235  1.00  0.00     0.172 C 
HETATM   10  C8  UNK     1      28.980  -7.466  37.064  1.00  0.00     0.052 C 
HETATM   11  C9  UNK     1      34.510  -6.656  37.157  1.00  0.00     0.011 C 
HETATM   12  C10 UNK     1      29.261  -7.030  38.314  1.00  0.00     0.018 C 
HETATM   13  C14 UNK     1      28.350  -7.151  39.506  1.00  0.00     0.069 C 
HETATM   14  H9  UNK     1      30.652  -6.082  39.507  1.00  0.00     0.165 HD
ENDROOT
BRANCH   8  15
HETATM   15  C11 UNK     1      30.468  -8.723  35.508  1.00  0.00     0.029 A 
HETATM   16  C15 UNK     1      30.028  -9.249  34.191  1.00  0.00     0.194 A 
HETATM   17  O7  UNK     1      29.304  -8.606  33.442  1.00  0.00    -0.287 OA
HETATM   18  C17 UNK     1      30.513 -10.594  33.830  1.00  0.00     0.049 A 
HETATM   19  C18 UNK     1      31.335 -11.281  34.723  1.00  0.00     0.089 A 
HETATM   20  C19 UNK     1      30.155 -11.177  32.611  1.00  0.00     0.025 A 
HETATM   21  O3  UNK     1      31.717 -10.757  35.932  1.00  0.00    -0.321 OA
HETATM   22  C22 UNK     1      31.806 -12.555  34.402  1.00  0.00     0.039 A 
HETATM   23  C16 UNK     1      31.258  -9.503  36.254  1.00  0.00     0.154 A 
HETATM   24  C24 UNK     1      31.450 -13.139  33.186  1.00  0.00     0.009 A 
HETATM   25  C23 UNK     1      30.627 -12.451  32.293  1.00  0.00    -0.061 A 
HETATM   26  C27 UNK     1      30.251 -13.081  30.994  1.00  0.00     0.048 C 
ENDBRANCH   8  15
BRANCH  10  27
HETATM   27  C13 UNK     1      27.661  -8.021  36.715  1.00  0.00     0.292 C 
HETATM   28  O6  UNK     1      26.733  -7.341  36.322  1.00  0.00    -0.259 OA
BRANCH  27  29
HETATM   29  O4  UNK     1      27.697  -9.362  36.910  1.00  0.00    -0.313 OA
BRANCH  29  30
HETATM   30  C20 UNK     1      26.539  -9.912  37.547  1.00  0.00     0.124 C 
HETATM   31  C26 UNK     1      26.946 -10.541  38.870  1.00  0.00     0.040 C 
HETATM   32  C25 UNK     1      25.890 -10.924  36.615  1.00  0.00     0.040 C 
ENDBRANCH  29  30
ENDBRANCH  27  29
ENDBRANCH  10  27
BRANCH   4  33
HETATM   33  C12 UNK     1      34.365  -4.987  34.643  1.00  0.00     0.270 C 
HETATM   34  O5  UNK     1      34.860  -3.950  34.222  1.00  0.00    -0.264 OA
BRANCH  33  35
HETATM   35  O2  UNK     1      34.737  -6.256  34.310  1.00  0.00    -0.326 OA
HETATM   36  C21 UNK     1      35.511  -6.375  33.112  1.00  0.00     0.213 C 
ENDBRANCH  33  35
ENDBRANCH   4  33
TORSDOF 6
ENDMDL
MODEL 8
REMARK VINA RESULT:      -7.9      2.852      3.824
REMARK  6 active torsions:
REMARK  status: ('A' for Active; 'I' for Inactive)
REMARK    1  A    between atoms: C12_20  and  O2_2 
REMARK    2  A    between atoms: C13_21  and  O4_4 
REMARK    3  A    between atoms: C20_28  and  O4_4 
REMARK    4  A    between atoms: C12_20  and  C2_10 
REMARK    5  A    between atoms: C11_19  and  C6_14 
REMARK    6  A    between atoms: C13_21  and  C8_16 
ROOT
HETATM    1  O1  UNK     1      30.860 -10.229  35.555  1.00  0.00    -0.292 OA
HETATM    2  N1  UNK     1      34.595  -7.368  36.100  1.00  0.00    -0.362 N 
HETATM    3  C1  UNK     1      31.430  -7.743  38.132  1.00  0.00     0.008 C 
HETATM    4  C2  UNK     1      31.089  -9.176  37.703  1.00  0.00     0.164 C 
HETATM    5  C3  UNK     1      32.930  -7.498  37.900  1.00  0.00     0.063 C 
HETATM    6  C4  UNK     1      32.714  -8.760  35.732  1.00  0.00     0.025 C 
HETATM    7  C5  UNK     1      33.397  -7.908  36.526  1.00  0.00     0.020 C 
HETATM    8  C6  UNK     1      33.203  -9.088  34.323  1.00  0.00     0.104 C 
HETATM    9  C7  UNK     1      31.484  -9.436  36.260  1.00  0.00     0.172 C 
HETATM   10  C8  UNK     1      34.623  -8.580  34.068  1.00  0.00     0.052 C 
HETATM   11  C9  UNK     1      30.580  -6.674  37.426  1.00  0.00     0.011 C 
HETATM   12  C10 UNK     1      35.236  -7.733  34.928  1.00  0.00     0.018 C 
HETATM   13  C14 UNK     1      36.603  -7.133  34.737  1.00  0.00     0.069 C 
HETATM   14  H9  UNK     1      35.080  -6.737  36.728  1.00  0.00     0.165 HD
ENDROOT
BRANCH   8  15
HETATM   15  C11 UNK     1      32.255  -8.528  33.291  1.00  0.00     0.029 A 
HETATM   16  C15 UNK     1      31.609  -9.465  32.337  1.00  0.00     0.194 A 
HETATM   17  O7  UNK     1      31.822 -10.670  32.364  1.00  0.00    -0.287 OA
HETATM   18  C17 UNK     1      30.693  -8.863  31.349  1.00  0.00     0.049 A 
HETATM   19  C18 UNK     1      30.491  -7.483  31.365  1.00  0.00     0.089 A 
HETATM   20  C19 UNK     1      30.037  -9.661  30.409  1.00  0.00     0.025 A 
HETATM   21  O3  UNK     1      31.109  -6.653  32.265  1.00  0.00    -0.321 OA
HETATM   22  C22 UNK     1      29.629  -6.893  30.440  1.00  0.00     0.039 A 
HETATM   23  C16 UNK     1      31.959  -7.228  33.179  1.00  0.00     0.154 A 
HETATM   24  C24 UNK     1      28.972  -7.688  29.500  1.00  0.00     0.009 A 
HETATM   25  C23 UNK     1      29.175  -9.068  29.485  1.00  0.00    -0.061 A 
HETATM   26  C27 UNK     1      28.469  -9.912  28.478  1.00  0.00     0.048 C 
ENDBRANCH   8  15
BRANCH  10  27
HETATM   27  C13 UNK     1      35.308  -9.100  32.872  1.00  0.00     0.292 C 
HETATM   28  O6  UNK     1      35.431  -8.463  31.843  1.00  0.00    -0.259 OA
BRANCH  27  29
HETATM   29  O4  UNK     1      35.743 -10.355  33.141  1.00  0.00    -0.313 OA
BRANCH  29  30
HETATM   30  C20 UNK     1      35.600 -11.289  32.066  1.00  0.00     0.124 C 
HETATM   31  C26 UNK     1      34.810 -12.495  32.553  1.00  0.00     0.040 C 
HETATM   32  C25 UNK     1      36.978 -11.683  31.558  1.00  0.00     0.040 C 
ENDBRANCH  29  30
ENDBRANCH  27  29
ENDBRANCH  10  27
BRANCH   4  33
HETATM   33  C12 UNK     1      29.655  -9.492  38.003  1.00  0.00     0.270 C 
HETATM   34  O5  UNK     1      28.717  -9.155  37.293  1.00  0.00    -0.264 OA
BRANCH  33  35
HETATM   35  O2  UNK     1      29.577 -10.197  39.167  1.00  0.00    -0.326 OA
HETATM   36  C21 UNK     1      28.295 -10.195  39.803  1.00  0.00     0.213 C 
ENDBRANCH  33  35
ENDBRANCH   4  33
TORSDOF 6
ENDMDL
MODEL 9
REMARK VINA RESULT:      -7.7      3.161      7.211
REMARK  6 active torsions:
REMARK  status: ('A' for Active; 'I' for Inactive)
REMARK    1  A    between atoms: C12_20  and  O2_2 
REMARK    2  A    between atoms: C13_21  and  O4_4 
REMARK    3  A    between atoms: C20_28  and  O4_4 
REMARK    4  A    between atoms: C12_20  and  C2_10 
REMARK    5  A    between atoms: C11_19  and  C6_14 
REMARK    6  A    between atoms: C13_21  and  C8_16 
ROOT
HETATM    1  O1  UNK     1      30.212 -10.362  34.299  1.00  0.00    -0.292 OA
HETATM    2  N1  UNK     1      31.880  -8.591  30.235  1.00  0.00    -0.362 N 
HETATM    3  C1  UNK     1      32.937 -11.606  32.255  1.00  0.00     0.008 C 
HETATM    4  C2  UNK     1      31.612 -11.820  32.998  1.00  0.00     0.164 C 
HETATM    5  C3  UNK     1      32.666 -10.796  30.977  1.00  0.00     0.063 C 
HETATM    6  C4  UNK     1      31.064  -9.385  32.313  1.00  0.00     0.025 C 
HETATM    7  C5  UNK     1      31.832  -9.563  31.217  1.00  0.00     0.020 C 
HETATM    8  C6  UNK     1      30.292  -8.086  32.533  1.00  0.00     0.104 C 
HETATM    9  C7  UNK     1      30.923 -10.501  33.304  1.00  0.00     0.172 C 
HETATM   10  C8  UNK     1      30.283  -7.197  31.287  1.00  0.00     0.052 C 
HETATM   11  C9  UNK     1      34.018 -10.933  33.116  1.00  0.00     0.011 C 
HETATM   12  C10 UNK     1      31.083  -7.458  30.227  1.00  0.00     0.018 C 
HETATM   13  C14 UNK     1      31.189  -6.614  28.986  1.00  0.00     0.069 C 
HETATM   14  H9  UNK     1      32.464  -8.765  29.425  1.00  0.00     0.165 HD
ENDROOT
BRANCH   8  15
HETATM   15  C11 UNK     1      30.857  -7.329  33.710  1.00  0.00     0.029 A 
HETATM   16  C15 UNK     1      29.925  -6.865  34.769  1.00  0.00     0.194 A 
HETATM   17  O7  UNK     1      28.721  -7.078  34.715  1.00  0.00    -0.287 OA
HETATM   18  C17 UNK     1      30.531  -6.130  35.895  1.00  0.00     0.049 A 
HETATM   19  C18 UNK     1      31.909  -5.915  35.903  1.00  0.00     0.089 A 
HETATM   20  C19 UNK     1      29.738  -5.652  36.942  1.00  0.00     0.025 A 
HETATM   21  O3  UNK     1      32.734  -6.361  34.901  1.00  0.00    -0.321 OA
HETATM   22  C22 UNK     1      32.503  -5.222  36.958  1.00  0.00     0.039 A 
HETATM   23  C16 UNK     1      32.156  -7.045  33.860  1.00  0.00     0.154 A 
HETATM   24  C24 UNK     1      31.713  -4.744  38.004  1.00  0.00     0.009 A 
HETATM   25  C23 UNK     1      30.335  -4.959  37.996  1.00  0.00    -0.061 A 
HETATM   26  C27 UNK     1      29.496  -4.446  39.119  1.00  0.00     0.048 C 
ENDBRANCH   8  15
BRANCH  10  27
HETATM   27  C13 UNK     1      29.324  -6.080  31.278  1.00  0.00     0.292 C 
HETATM   28  O6  UNK     1      29.654  -4.917  31.135  1.00  0.00    -0.259 OA
BRANCH  27  29
HETATM   29  O4  UNK     1      28.079  -6.584  31.452  1.00  0.00    -0.313 OA
BRANCH  29  30
HETATM   30  C20 UNK     1      27.443  -7.054  30.259  1.00  0.00     0.124 C 
HETATM   31  C26 UNK     1      26.032  -6.490  30.188  1.00  0.00     0.040 C 
HETATM   32  C25 UNK     1      27.446  -8.575  30.257  1.00  0.00     0.040 C 
ENDBRANCH  29  30
ENDBRANCH  27  29
ENDBRANCH  10  27
BRANCH   4  33
HETATM   33  C12 UNK     1      31.814 -12.690  34.202  1.00  0.00     0.270 C 
HETATM   34  O5  UNK     1      31.714 -12.295  35.356  1.00  0.00    -0.264 OA
BRANCH  33  35
HETATM   35  O2  UNK     1      32.117 -13.958  33.803  1.00  0.00    -0.326 OA
HETATM   36  C21 UNK     1      31.078 -14.646  33.099  1.00  0.00     0.213 C 
ENDBRANCH  33  35
ENDBRANCH   4  33
TORSDOF 6
ENDMDL
MODEL 10
REMARK VINA RESULT:      -7.6      1.174      2.141
REMARK  6 active torsions:
REMARK  status: ('A' for Active; 'I' for Inactive)
REMARK    1  A    between atoms: C12_20  and  O2_2 
REMARK    2  A    between atoms: C13_21  and  O4_4 
REMARK    3  A    between atoms: C20_28  and  O4_4 
REMARK    4  A    between atoms: C12_20  and  C2_10 
REMARK    5  A    between atoms: C11_19  and  C6_14 
REMARK    6  A    between atoms: C13_21  and  C8_16 
ROOT
HETATM    1  O1  UNK     1      29.858  -9.667  37.601  1.00  0.00    -0.292 OA
HETATM    2  N1  UNK     1      30.766  -5.025  37.355  1.00  0.00    -0.362 N 
HETATM    3  C1  UNK     1      27.901  -6.920  38.932  1.00  0.00     0.008 C 
HETATM    4  C2  UNK     1      28.626  -8.261  39.111  1.00  0.00     0.164 C 
HETATM    5  C3  UNK     1      28.947  -5.801  38.811  1.00  0.00     0.063 C 
HETATM    6  C4  UNK     1      30.316  -7.351  37.374  1.00  0.00     0.025 C 
HETATM    7  C5  UNK     1      30.036  -6.105  37.813  1.00  0.00     0.020 C 
HETATM    8  C6  UNK     1      31.387  -7.592  36.312  1.00  0.00     0.104 C 
HETATM    9  C7  UNK     1      29.602  -8.524  37.977  1.00  0.00     0.172 C 
HETATM   10  C8  UNK     1      32.234  -6.345  36.050  1.00  0.00     0.052 C 
HETATM   11  C9  UNK     1      26.934  -6.903  37.737  1.00  0.00     0.011 C 
HETATM   12  C10 UNK     1      31.881  -5.134  36.540  1.00  0.00     0.018 C 
HETATM   13  C14 UNK     1      32.613  -3.843  36.289  1.00  0.00     0.069 C 
HETATM   14  H9  UNK     1      30.529  -4.107  37.713  1.00  0.00     0.165 HD
ENDROOT
BRANCH   8  15
HETATM   15  C11 UNK     1      30.758  -8.075  35.029  1.00  0.00     0.029 A 
HETATM   16  C15 UNK     1      29.722  -7.229  34.384  1.00  0.00     0.194 A 
HETATM   17  O7  UNK     1      29.367  -6.159  34.860  1.00  0.00    -0.287 OA
HETATM   18  C17 UNK     1      29.140  -7.750  33.132  1.00  0.00     0.049 A 
HETATM   19  C18 UNK     1      29.582  -8.977  32.637  1.00  0.00     0.089 A 
HETATM   20  C19 UNK     1      28.157  -7.028  32.450  1.00  0.00     0.025 A 
HETATM   21  O3  UNK     1      30.543  -9.727  33.267  1.00  0.00    -0.321 OA
HETATM   22  C22 UNK     1      29.046  -9.488  31.455  1.00  0.00     0.039 A 
HETATM   23  C16 UNK     1      31.076  -9.229  34.430  1.00  0.00     0.154 A 
HETATM   24  C24 UNK     1      28.065  -8.768  30.771  1.00  0.00     0.009 A 
HETATM   25  C23 UNK     1      27.623  -7.542  31.267  1.00  0.00    -0.061 A 
HETATM   26  C27 UNK     1      26.574  -6.777  30.531  1.00  0.00     0.048 C 
ENDBRANCH   8  15
BRANCH  10  27
HETATM   27  C13 UNK     1      33.478  -6.539  35.286  1.00  0.00     0.292 C 
HETATM   28  O6  UNK     1      34.517  -6.926  35.788  1.00  0.00    -0.259 OA
BRANCH  27  29
HETATM   29  O4  UNK     1      33.240  -6.217  33.991  1.00  0.00    -0.313 OA
BRANCH  29  30
HETATM   30  C20 UNK     1      33.787  -7.126  33.031  1.00  0.00     0.124 C 
HETATM   31  C26 UNK     1      35.128  -6.597  32.548  1.00  0.00     0.040 C 
HETATM   32  C25 UNK     1      32.800  -7.297  31.885  1.00  0.00     0.040 C 
ENDBRANCH  29  30
ENDBRANCH  27  29
ENDBRANCH  10  27
BRANCH   4  33
HETATM   33  C12 UNK     1      27.642  -9.370  39.330  1.00  0.00     0.270 C 
HETATM   34  O5  UNK     1      26.909  -9.818  38.458  1.00  0.00    -0.264 OA
BRANCH  33  35
HETATM   35  O2  UNK     1      27.701  -9.782  40.628  1.00  0.00    -0.326 OA
HETATM   36  C21 UNK     1      28.736 -10.724  40.927  1.00  0.00     0.213 C 
ENDBRANCH  33  35
ENDBRANCH   4  33
TORSDOF 6
ENDMDL
