MODEL 1
REMARK VINA RESULT:      -8.8      0.000      0.000
REMARK  2 active torsions:
REMARK  status: ('A' for Active; 'I' for Inactive)
REMARK       I    between atoms: C6_11  and  N1_5 
REMARK    1  A    between atoms: C9_14  and  N1_5 
REMARK    2  A    between atoms: C2_7  and  C6_11 
ROOT
HETATM    1  O1  UNK     1      19.141   1.372  28.753  1.00  0.00    -0.274 OA
HETATM    2  O3  UNK     1      18.320   3.500  28.906  1.00  0.00    -0.259 OA
HETATM    3  C1  UNK     1      19.622   0.124  30.782  1.00  0.00    -0.001 A 
HETATM    4  C2  UNK     1      18.752   2.378  30.949  1.00  0.00     0.108 A 
HETATM    5  C3  UNK     1      19.592   0.201  29.394  1.00  0.00     0.089 A 
HETATM    6  C4  UNK     1      19.180   1.269  31.563  1.00  0.00     0.037 A 
HETATM    7  C5  UNK     1      20.076  -1.054  31.382  1.00  0.00     0.014 A 
HETATM    8  C7  UNK     1      18.711   2.485  29.473  1.00  0.00     0.304 A 
HETATM    9  C8  UNK     1      20.002  -0.860  28.590  1.00  0.00     0.038 A 
HETATM   10  C10 UNK     1      20.491  -2.128  30.587  1.00  0.00     0.001 A 
HETATM   11  C11 UNK     1      20.454  -2.030  29.195  1.00  0.00     0.003 A 
ENDROOT
BRANCH   4  12
HETATM   12  C6  UNK     1      18.328   3.480  31.820  1.00  0.00     0.262 C 
HETATM   13  O2  UNK     1      17.626   3.242  32.801  1.00  0.00    -0.267 OA
HETATM   14  N1  UNK     1      18.811   4.704  31.379  1.00  0.00    -0.323 N 
HETATM   15  H4  UNK     1      19.368   4.736  30.527  1.00  0.00     0.169 HD
BRANCH  14  16
HETATM   16  C9  UNK     1      18.589   5.945  31.983  1.00  0.00     0.035 A 
HETATM   17  C12 UNK     1      19.530   6.464  32.869  1.00  0.00     0.031 A 
HETATM   18  C14 UNK     1      19.309   7.702  33.473  1.00  0.00     0.020 A 
HETATM   19  C16 UNK     1      18.144   8.417  33.189  1.00  0.00     0.006 A 
HETATM   20  C15 UNK     1      17.203   7.895  32.303  1.00  0.00     0.020 A 
HETATM   21  I1  UNK     1      17.814  10.261  34.089  1.00  0.00    -0.045 I 
HETATM   22  C13 UNK     1      17.426   6.658  31.700  1.00  0.00     0.031 A 
ENDBRANCH  14  16
ENDBRANCH   4  12
TORSDOF 2
ENDMDL
MODEL 2
REMARK VINA RESULT:      -8.6      1.474      2.269
REMARK  2 active torsions:
REMARK  status: ('A' for Active; 'I' for Inactive)
REMARK       I    between atoms: C6_11  and  N1_5 
REMARK    1  A    between atoms: C9_14  and  N1_5 
REMARK    2  A    between atoms: C2_7  and  C6_11 
ROOT
HETATM    1  O1  UNK     1      18.678   0.370  32.699  1.00  0.00    -0.274 OA
HETATM    2  O3  UNK     1      17.807   2.181  33.787  1.00  0.00    -0.259 OA
HETATM    3  C1  UNK     1      19.555   0.630  30.447  1.00  0.00    -0.001 A 
HETATM    4  C2  UNK     1      18.634   2.553  31.597  1.00  0.00     0.108 A 
HETATM    5  C3  UNK     1      19.282  -0.174  31.548  1.00  0.00     0.089 A 
HETATM    6  C4  UNK     1      19.207   2.042  30.501  1.00  0.00     0.037 A 
HETATM    7  C5  UNK     1      20.156   0.055  29.324  1.00  0.00     0.014 A 
HETATM    8  C7  UNK     1      18.333   1.717  32.781  1.00  0.00     0.304 A 
HETATM    9  C8  UNK     1      19.591  -1.532  31.560  1.00  0.00     0.038 A 
HETATM   10  C10 UNK     1      20.471  -1.308  29.321  1.00  0.00     0.001 A 
HETATM   11  C11 UNK     1      20.188  -2.098  30.436  1.00  0.00     0.003 A 
ENDROOT
BRANCH   4  12
HETATM   12  C6  UNK     1      18.318   3.986  31.556  1.00  0.00     0.262 C 
HETATM   13  O2  UNK     1      18.462   4.609  30.505  1.00  0.00    -0.267 OA
HETATM   14  N1  UNK     1      17.879   4.454  32.786  1.00  0.00    -0.323 N 
HETATM   15  H4  UNK     1      17.835   3.810  33.572  1.00  0.00     0.169 HD
BRANCH  14  16
HETATM   16  C9  UNK     1      17.501   5.767  33.081  1.00  0.00     0.035 A 
HETATM   17  C12 UNK     1      18.237   6.514  33.997  1.00  0.00     0.031 A 
HETATM   18  C14 UNK     1      17.860   7.823  34.292  1.00  0.00     0.020 A 
HETATM   19  C16 UNK     1      16.744   8.384  33.668  1.00  0.00     0.006 A 
HETATM   20  C15 UNK     1      16.008   7.634  32.751  1.00  0.00     0.020 A 
HETATM   21  I1  UNK     1      16.180  10.335  34.106  1.00  0.00    -0.045 I 
HETATM   22  C13 UNK     1      16.386   6.325  32.457  1.00  0.00     0.031 A 
ENDBRANCH  14  16
ENDBRANCH   4  12
TORSDOF 2
ENDMDL
MODEL 3
REMARK VINA RESULT:      -8.5      8.273     11.520
REMARK  2 active torsions:
REMARK  status: ('A' for Active; 'I' for Inactive)
REMARK       I    between atoms: C6_11  and  N1_5 
REMARK    1  A    between atoms: C9_14  and  N1_5 
REMARK    2  A    between atoms: C2_7  and  C6_11 
ROOT
HETATM    1  O1  UNK     1      19.408  -0.829  34.626  1.00  0.00    -0.274 OA
HETATM    2  O3  UNK     1      20.520  -2.784  34.221  1.00  0.00    -0.259 OA
HETATM    3  C1  UNK     1      18.343  -0.479  36.782  1.00  0.00    -0.001 A 
HETATM    4  C2  UNK     1      19.521  -2.552  36.358  1.00  0.00     0.108 A 
HETATM    5  C3  UNK     1      18.655  -0.026  35.505  1.00  0.00     0.089 A 
HETATM    6  C4  UNK     1      18.806  -1.794  37.197  1.00  0.00     0.037 A 
HETATM    7  C5  UNK     1      17.594   0.346  37.626  1.00  0.00     0.014 A 
HETATM    8  C7  UNK     1      19.866  -2.092  34.993  1.00  0.00     0.304 A 
HETATM    9  C8  UNK     1      18.242   1.223  35.047  1.00  0.00     0.038 A 
HETATM   10  C10 UNK     1      17.172   1.602  37.180  1.00  0.00     0.001 A 
HETATM   11  C11 UNK     1      17.495   2.039  35.894  1.00  0.00     0.003 A 
ENDROOT
BRANCH   4  12
HETATM   12  C6  UNK     1      19.942  -3.864  36.866  1.00  0.00     0.262 C 
HETATM   13  O2  UNK     1      20.817  -3.928  37.727  1.00  0.00    -0.267 OA
HETATM   14  N1  UNK     1      19.248  -4.901  36.259  1.00  0.00    -0.323 N 
HETATM   15  H4  UNK     1      18.561  -4.681  35.541  1.00  0.00     0.169 HD
BRANCH  14  16
HETATM   16  C9  UNK     1      19.411  -6.264  36.518  1.00  0.00     0.035 A 
HETATM   17  C12 UNK     1      18.771  -6.846  37.610  1.00  0.00     0.031 A 
HETATM   18  C14 UNK     1      18.933  -8.206  37.869  1.00  0.00     0.020 A 
HETATM   19  C16 UNK     1      19.738  -8.983  37.035  1.00  0.00     0.006 A 
HETATM   20  C15 UNK     1      20.379  -8.399  35.943  1.00  0.00     0.020 A 
HETATM   21  I1  UNK     1      19.981 -11.010  37.421  1.00  0.00    -0.045 I 
HETATM   22  C13 UNK     1      20.215  -7.039  35.684  1.00  0.00     0.031 A 
ENDBRANCH  14  16
ENDBRANCH   4  12
TORSDOF 2
ENDMDL
MODEL 4
REMARK VINA RESULT:      -8.2     14.751     18.193
REMARK  2 active torsions:
REMARK  status: ('A' for Active; 'I' for Inactive)
REMARK       I    between atoms: C6_11  and  N1_5 
REMARK    1  A    between atoms: C9_14  and  N1_5 
REMARK    2  A    between atoms: C2_7  and  C6_11 
ROOT
HETATM    1  O1  UNK     1      19.328   1.131  15.614  1.00  0.00    -0.274 OA
HETATM    2  O3  UNK     1      19.444  -0.329  13.860  1.00  0.00    -0.259 OA
HETATM    3  C1  UNK     1      18.867   0.289  17.847  1.00  0.00    -0.001 A 
HETATM    4  C2  UNK     1      18.990  -1.262  15.991  1.00  0.00     0.108 A 
HETATM    5  C3  UNK     1      19.130   1.353  16.991  1.00  0.00     0.089 A 
HETATM    6  C4  UNK     1      18.801  -1.057  17.299  1.00  0.00     0.037 A 
HETATM    7  C5  UNK     1      18.677   0.549  19.207  1.00  0.00     0.014 A 
HETATM    8  C7  UNK     1      19.270  -0.145  15.060  1.00  0.00     0.304 A 
HETATM    9  C8  UNK     1      19.206   2.665  17.453  1.00  0.00     0.038 A 
HETATM   10  C10 UNK     1      18.750   1.861  19.685  1.00  0.00     0.001 A 
HETATM   11  C11 UNK     1      19.014   2.915  18.809  1.00  0.00     0.003 A 
ENDROOT
BRANCH   4  12
HETATM   12  C6  UNK     1      18.902  -2.654  15.532  1.00  0.00     0.262 C 
HETATM   13  O2  UNK     1      17.886  -3.306  15.767  1.00  0.00    -0.267 OA
HETATM   14  N1  UNK     1      20.050  -3.051  14.861  1.00  0.00    -0.323 N 
HETATM   15  H4  UNK     1      20.819  -2.392  14.767  1.00  0.00     0.169 HD
BRANCH  14  16
HETATM   16  C9  UNK     1      20.283  -4.311  14.301  1.00  0.00     0.035 A 
HETATM   17  C12 UNK     1      20.049  -4.523  12.945  1.00  0.00     0.031 A 
HETATM   18  C14 UNK     1      20.281  -5.779  12.386  1.00  0.00     0.020 A 
HETATM   19  C16 UNK     1      20.747  -6.823  13.187  1.00  0.00     0.006 A 
HETATM   20  C15 UNK     1      20.980  -6.608  14.545  1.00  0.00     0.020 A 
HETATM   21  I1  UNK     1      21.093  -8.695  12.356  1.00  0.00    -0.045 I 
HETATM   22  C13 UNK     1      20.748  -5.352  15.103  1.00  0.00     0.031 A 
ENDBRANCH  14  16
ENDBRANCH   4  12
TORSDOF 2
ENDMDL
MODEL 5
REMARK VINA RESULT:      -8.1     14.527     16.049
REMARK  2 active torsions:
REMARK  status: ('A' for Active; 'I' for Inactive)
REMARK       I    between atoms: C6_11  and  N1_5 
REMARK    1  A    between atoms: C9_14  and  N1_5 
REMARK    2  A    between atoms: C2_7  and  C6_11 
ROOT
HETATM    1  O1  UNK     1      28.187  -4.791  38.685  1.00  0.00    -0.274 OA
HETATM    2  O3  UNK     1      25.929  -5.059  38.916  1.00  0.00    -0.259 OA
HETATM    3  C1  UNK     1      29.621  -6.750  38.564  1.00  0.00    -0.001 A 
HETATM    4  C2  UNK     1      27.228  -7.038  38.808  1.00  0.00     0.108 A 
HETATM    5  C3  UNK     1      29.466  -5.367  38.563  1.00  0.00     0.089 A 
HETATM    6  C4  UNK     1      28.441  -7.591  38.692  1.00  0.00     0.037 A 
HETATM    7  C5  UNK     1      30.906  -7.284  38.440  1.00  0.00     0.014 A 
HETATM    8  C7  UNK     1      27.039  -5.570  38.810  1.00  0.00     0.304 A 
HETATM    9  C8  UNK     1      30.555  -4.507  38.443  1.00  0.00     0.038 A 
HETATM   10  C10 UNK     1      32.009  -6.433  38.320  1.00  0.00     0.001 A 
HETATM   11  C11 UNK     1      31.833  -5.048  38.321  1.00  0.00     0.003 A 
ENDROOT
BRANCH   4  12
HETATM   12  C6  UNK     1      26.100  -7.968  38.934  1.00  0.00     0.262 C 
HETATM   13  O2  UNK     1      26.278  -9.071  39.447  1.00  0.00    -0.267 OA
HETATM   14  N1  UNK     1      24.927  -7.431  38.423  1.00  0.00    -0.323 N 
HETATM   15  H4  UNK     1      24.950  -6.502  38.008  1.00  0.00     0.169 HD
BRANCH  14  16
HETATM   16  C9  UNK     1      23.678  -8.059  38.391  1.00  0.00     0.035 A 
HETATM   17  C12 UNK     1      22.858  -8.031  39.516  1.00  0.00     0.031 A 
HETATM   18  C14 UNK     1      21.612  -8.656  39.485  1.00  0.00     0.020 A 
HETATM   19  C16 UNK     1      21.190  -9.311  38.327  1.00  0.00     0.006 A 
HETATM   20  C15 UNK     1      22.013  -9.339  37.202  1.00  0.00     0.020 A 
HETATM   21  I1  UNK     1      19.334 -10.245  38.280  1.00  0.00    -0.045 I 
HETATM   22  C13 UNK     1      23.258  -8.712  37.234  1.00  0.00     0.031 A 
ENDBRANCH  14  16
ENDBRANCH   4  12
TORSDOF 2
ENDMDL
MODEL 6
REMARK VINA RESULT:      -8.0      8.715     10.668
REMARK  2 active torsions:
REMARK  status: ('A' for Active; 'I' for Inactive)
REMARK       I    between atoms: C6_11  and  N1_5 
REMARK    1  A    between atoms: C9_14  and  N1_5 
REMARK    2  A    between atoms: C2_7  and  C6_11 
ROOT
HETATM    1  O1  UNK     1      20.259  -8.377  35.619  1.00  0.00    -0.274 OA
HETATM    2  O3  UNK     1      20.580  -6.419  34.485  1.00  0.00    -0.259 OA
HETATM    3  C1  UNK     1      19.887  -8.326  38.020  1.00  0.00    -0.001 A 
HETATM    4  C2  UNK     1      20.226  -6.248  36.822  1.00  0.00     0.108 A 
HETATM    5  C3  UNK     1      20.019  -9.044  36.836  1.00  0.00     0.089 A 
HETATM    6  C4  UNK     1      19.999  -6.876  37.982  1.00  0.00     0.037 A 
HETATM    7  C5  UNK     1      19.649  -9.022  39.208  1.00  0.00     0.014 A 
HETATM    8  C7  UNK     1      20.371  -6.991  35.550  1.00  0.00     0.304 A 
HETATM    9  C8  UNK     1      19.922 -10.433  36.806  1.00  0.00     0.038 A 
HETATM   10  C10 UNK     1      19.550 -10.417  39.192  1.00  0.00     0.001 A 
HETATM   11  C11 UNK     1      19.686 -11.119  37.994  1.00  0.00     0.003 A 
ENDROOT
BRANCH   4  12
HETATM   12  C6  UNK     1      20.326  -4.785  36.884  1.00  0.00     0.262 C 
HETATM   13  O2  UNK     1      21.375  -4.264  37.258  1.00  0.00    -0.267 OA
HETATM   14  N1  UNK     1      19.147  -4.169  36.490  1.00  0.00    -0.323 N 
HETATM   15  H4  UNK     1      18.352  -4.747  36.226  1.00  0.00     0.169 HD
BRANCH  14  16
HETATM   16  C9  UNK     1      18.915  -2.791  36.436  1.00  0.00     0.035 A 
HETATM   17  C12 UNK     1      18.187  -2.169  37.447  1.00  0.00     0.031 A 
HETATM   18  C14 UNK     1      17.955  -0.795  37.395  1.00  0.00     0.020 A 
HETATM   19  C16 UNK     1      18.452  -0.045  36.327  1.00  0.00     0.006 A 
HETATM   20  C15 UNK     1      19.179  -0.670  35.315  1.00  0.00     0.020 A 
HETATM   21  I1  UNK     1      18.106   2.002  36.247  1.00  0.00    -0.045 I 
HETATM   22  C13 UNK     1      19.411  -2.044  35.370  1.00  0.00     0.031 A 
ENDBRANCH  14  16
ENDBRANCH   4  12
TORSDOF 2
ENDMDL
MODEL 7
REMARK VINA RESULT:      -7.8     14.304     17.696
REMARK  2 active torsions:
REMARK  status: ('A' for Active; 'I' for Inactive)
REMARK       I    between atoms: C6_11  and  N1_5 
REMARK    1  A    between atoms: C9_14  and  N1_5 
REMARK    2  A    between atoms: C2_7  and  C6_11 
ROOT
HETATM    1  O1  UNK     1      19.198   1.210  16.051  1.00  0.00    -0.274 OA
HETATM    2  O3  UNK     1      19.420  -0.188  14.258  1.00  0.00    -0.259 OA
HETATM    3  C1  UNK     1      19.037   0.276  18.290  1.00  0.00    -0.001 A 
HETATM    4  C2  UNK     1      19.274  -1.210  16.392  1.00  0.00     0.108 A 
HETATM    5  C3  UNK     1      19.066   1.380  17.444  1.00  0.00     0.089 A 
HETATM    6  C4  UNK     1      19.148  -1.056  17.715  1.00  0.00     0.037 A 
HETATM    7  C5  UNK     1      18.905   0.484  19.665  1.00  0.00     0.014 A 
HETATM    8  C7  UNK     1      19.305  -0.051  15.471  1.00  0.00     0.304 A 
HETATM    9  C8  UNK     1      18.965   2.681  17.931  1.00  0.00     0.038 A 
HETATM   10  C10 UNK     1      18.803   1.785  20.168  1.00  0.00     0.001 A 
HETATM   11  C11 UNK     1      18.833   2.879  19.303  1.00  0.00     0.003 A 
ENDROOT
BRANCH   4  12
HETATM   12  C6  UNK     1      19.376  -2.592  15.906  1.00  0.00     0.262 C 
HETATM   13  O2  UNK     1      20.465  -3.163  15.927  1.00  0.00    -0.267 OA
HETATM   14  N1  UNK     1      18.153  -3.078  15.466  1.00  0.00    -0.323 N 
HETATM   15  H4  UNK     1      17.340  -2.466  15.495  1.00  0.00     0.169 HD
BRANCH  14  16
HETATM   16  C9  UNK     1      17.911  -4.353  14.947  1.00  0.00     0.035 A 
HETATM   17  C12 UNK     1      18.411  -4.699  13.694  1.00  0.00     0.031 A 
HETATM   18  C14 UNK     1      18.171  -5.970  13.175  1.00  0.00     0.020 A 
HETATM   19  C16 UNK     1      17.427  -6.894  13.911  1.00  0.00     0.006 A 
HETATM   20  C15 UNK     1      16.927  -6.545  15.165  1.00  0.00     0.020 A 
HETATM   21  I1  UNK     1      17.068  -8.789  13.138  1.00  0.00    -0.045 I 
HETATM   22  C13 UNK     1      17.168  -5.274  15.683  1.00  0.00     0.031 A 
ENDBRANCH  14  16
ENDBRANCH   4  12
TORSDOF 2
ENDMDL
MODEL 8
REMARK VINA RESULT:      -7.8      6.757      9.816
REMARK  2 active torsions:
REMARK  status: ('A' for Active; 'I' for Inactive)
REMARK       I    between atoms: C6_11  and  N1_5 
REMARK    1  A    between atoms: C9_14  and  N1_5 
REMARK    2  A    between atoms: C2_7  and  C6_11 
ROOT
HETATM    1  O1  UNK     1      18.783  -0.204  32.942  1.00  0.00    -0.274 OA
HETATM    2  O3  UNK     1      18.539  -0.740  35.150  1.00  0.00    -0.259 OA
HETATM    3  C1  UNK     1      20.318  -1.484  31.559  1.00  0.00    -0.001 A 
HETATM    4  C2  UNK     1      20.061  -2.056  33.899  1.00  0.00     0.108 A 
HETATM    5  C3  UNK     1      19.393  -0.454  31.697  1.00  0.00     0.089 A 
HETATM    6  C4  UNK     1      20.644  -2.299  32.719  1.00  0.00     0.037 A 
HETATM    7  C5  UNK     1      20.902  -1.702  30.308  1.00  0.00     0.014 A 
HETATM    8  C7  UNK     1      19.075  -0.966  34.070  1.00  0.00     0.304 A 
HETATM    9  C8  UNK     1      19.037   0.361  30.626  1.00  0.00     0.038 A 
HETATM   10  C10 UNK     1      20.554  -0.891  29.224  1.00  0.00     0.001 A 
HETATM   11  C11 UNK     1      19.624   0.137  29.383  1.00  0.00     0.003 A 
ENDROOT
BRANCH   4  12
HETATM   12  C6  UNK     1      20.457  -2.929  35.010  1.00  0.00     0.262 C 
HETATM   13  O2  UNK     1      21.271  -2.525  35.839  1.00  0.00    -0.267 OA
HETATM   14  N1  UNK     1      19.814  -4.158  34.957  1.00  0.00    -0.323 N 
HETATM   15  H4  UNK     1      19.177  -4.348  34.186  1.00  0.00     0.169 HD
BRANCH  14  16
HETATM   16  C9  UNK     1      19.970  -5.210  35.864  1.00  0.00     0.035 A 
HETATM   17  C12 UNK     1      20.081  -6.518  35.399  1.00  0.00     0.031 A 
HETATM   18  C14 UNK     1      20.237  -7.568  36.304  1.00  0.00     0.020 A 
HETATM   19  C16 UNK     1      20.281  -7.306  37.674  1.00  0.00     0.006 A 
HETATM   20  C15 UNK     1      20.169  -5.996  38.137  1.00  0.00     0.020 A 
HETATM   21  I1  UNK     1      20.512  -8.870  39.023  1.00  0.00    -0.045 I 
HETATM   22  C13 UNK     1      20.013  -4.947  37.232  1.00  0.00     0.031 A 
ENDBRANCH  14  16
ENDBRANCH   4  12
TORSDOF 2
ENDMDL
MODEL 9
REMARK VINA RESULT:      -7.6      8.020     11.310
REMARK  2 active torsions:
REMARK  status: ('A' for Active; 'I' for Inactive)
REMARK       I    between atoms: C6_11  and  N1_5 
REMARK    1  A    between atoms: C9_14  and  N1_5 
REMARK    2  A    between atoms: C2_7  and  C6_11 
ROOT
HETATM    1  O1  UNK     1      18.310  -0.227  36.995  1.00  0.00    -0.274 OA
HETATM    2  O3  UNK     1      18.792  -1.879  38.498  1.00  0.00    -0.259 OA
HETATM    3  C1  UNK     1      18.815  -0.562  34.640  1.00  0.00    -0.001 A 
HETATM    4  C2  UNK     1      19.326  -2.316  36.231  1.00  0.00     0.108 A 
HETATM    5  C3  UNK     1      18.314   0.236  35.664  1.00  0.00     0.089 A 
HETATM    6  C4  UNK     1      19.333  -1.882  34.965  1.00  0.00     0.037 A 
HETATM    7  C5  UNK     1      18.802  -0.069  33.333  1.00  0.00     0.014 A 
HETATM    8  C7  UNK     1      18.800  -1.485  37.337  1.00  0.00     0.304 A 
HETATM    9  C8  UNK     1      17.804   1.509  35.419  1.00  0.00     0.038 A 
HETATM   10  C10 UNK     1      18.292   1.207  33.073  1.00  0.00     0.001 A 
HETATM   11  C11 UNK     1      17.795   1.993  34.114  1.00  0.00     0.003 A 
ENDROOT
BRANCH   4  12
HETATM   12  C6  UNK     1      19.872  -3.659  36.459  1.00  0.00     0.262 C 
HETATM   13  O2  UNK     1      21.089  -3.832  36.432  1.00  0.00    -0.267 OA
HETATM   14  N1  UNK     1      18.870  -4.593  36.684  1.00  0.00    -0.323 N 
HETATM   15  H4  UNK     1      17.899  -4.292  36.653  1.00  0.00     0.169 HD
BRANCH  14  16
HETATM   16  C9  UNK     1      19.055  -5.956  36.934  1.00  0.00     0.035 A 
HETATM   17  C12 UNK     1      18.685  -6.895  35.975  1.00  0.00     0.031 A 
HETATM   18  C14 UNK     1      18.869  -8.254  36.223  1.00  0.00     0.020 A 
HETATM   19  C16 UNK     1      19.424  -8.673  37.434  1.00  0.00     0.006 A 
HETATM   20  C15 UNK     1      19.793  -7.731  38.394  1.00  0.00     0.020 A 
HETATM   21  I1  UNK     1      19.698 -10.699  37.805  1.00  0.00    -0.045 I 
HETATM   22  C13 UNK     1      19.608  -6.372  38.144  1.00  0.00     0.031 A 
ENDBRANCH  14  16
ENDBRANCH   4  12
TORSDOF 2
ENDMDL
MODEL 10
REMARK VINA RESULT:      -7.6      3.624      8.280
REMARK  2 active torsions:
REMARK  status: ('A' for Active; 'I' for Inactive)
REMARK       I    between atoms: C6_11  and  N1_5 
REMARK    1  A    between atoms: C9_14  and  N1_5 
REMARK    2  A    between atoms: C2_7  and  C6_11 
ROOT
HETATM    1  O1  UNK     1      16.218   8.434  31.317  1.00  0.00    -0.274 OA
HETATM    2  O3  UNK     1      17.466   6.933  30.129  1.00  0.00    -0.259 OA
HETATM    3  C1  UNK     1      16.038   8.202  33.730  1.00  0.00    -0.001 A 
HETATM    4  C2  UNK     1      17.364   6.610  32.475  1.00  0.00     0.108 A 
HETATM    5  C3  UNK     1      15.720   8.879  32.558  1.00  0.00     0.089 A 
HETATM    6  C4  UNK     1      16.894   7.027  33.656  1.00  0.00     0.037 A 
HETATM    7  C5  UNK     1      15.526   8.674  34.942  1.00  0.00     0.014 A 
HETATM    8  C7  UNK     1      17.038   7.313  31.214  1.00  0.00     0.304 A 
HETATM    9  C8  UNK     1      14.907  10.010  32.561  1.00  0.00     0.038 A 
HETATM   10  C10 UNK     1      14.708   9.808  34.960  1.00  0.00     0.001 A 
HETATM   11  C11 UNK     1      14.400  10.473  33.772  1.00  0.00     0.003 A 
ENDROOT
BRANCH   4  12
HETATM   12  C6  UNK     1      18.216   5.415  32.501  1.00  0.00     0.262 C 
HETATM   13  O2  UNK     1      19.329   5.476  33.022  1.00  0.00    -0.267 OA
HETATM   14  N1  UNK     1      17.603   4.328  31.895  1.00  0.00    -0.323 N 
HETATM   15  H4  UNK     1      16.678   4.447  31.489  1.00  0.00     0.169 HD
BRANCH  14  16
HETATM   16  C9  UNK     1      18.146   3.048  31.755  1.00  0.00     0.035 A 
HETATM   17  C12 UNK     1      18.625   2.627  30.517  1.00  0.00     0.031 A 
HETATM   18  C14 UNK     1      19.167   1.350  30.377  1.00  0.00     0.020 A 
HETATM   19  C16 UNK     1      19.228   0.494  31.478  1.00  0.00     0.006 A 
HETATM   20  C15 UNK     1      18.747   0.917  32.717  1.00  0.00     0.020 A 
HETATM   21  I1  UNK     1      20.034  -1.409  31.270  1.00  0.00    -0.045 I 
HETATM   22  C13 UNK     1      18.206   2.194  32.856  1.00  0.00     0.031 A 
ENDBRANCH  14  16
ENDBRANCH   4  12
TORSDOF 2
ENDMDL
