MODEL 1
REMARK VINA RESULT:      -8.0      0.000      0.000
REMARK  3 active torsions:
REMARK  status: ('A' for Active; 'I' for Inactive)
REMARK    1  A    between atoms: C1_7  and  N1_6 
REMARK       I    between atoms: C5_11  and  N1_6 
REMARK    2  A    between atoms: C1_7  and  C2_8 
REMARK    3  A    between atoms: C5_11  and  C6_12 
ROOT
HETATM    1  C1  UNK     1      16.439   7.141  32.400  1.00  0.00     0.092 C 
HETATM    2  C3  UNK     1      16.999   7.616  31.051  1.00  0.00     0.053 C 
HETATM    3  C7  UNK     1      14.965   7.252  32.373  1.00  0.00    -0.086 C 
HETATM    4  C16 UNK     1      13.768   7.343  32.347  1.00  0.00     0.015 C 
ENDROOT
BRANCH   1   5
HETATM    5  N1  UNK     1      16.808   5.755  32.586  1.00  0.00    -0.337 N 
HETATM    6  C5  UNK     1      18.118   5.311  32.550  1.00  0.00     0.259 C 
HETATM    7  O2  UNK     1      19.115   6.007  32.363  1.00  0.00    -0.267 OA
HETATM    8  H3  UNK     1      16.058   5.082  32.713  1.00  0.00     0.164 HD
BRANCH   6   9
HETATM    9  C6  UNK     1      18.238   3.865  32.768  1.00  0.00     0.108 A 
HETATM   10  C11 UNK     1      18.515   2.915  31.661  1.00  0.00     0.304 A 
HETATM   11  O3  UNK     1      18.659   3.297  30.504  1.00  0.00    -0.259 OA
HETATM   12  O1  UNK     1      18.605   1.565  31.994  1.00  0.00    -0.273 OA
HETATM   13  C10 UNK     1      18.442   1.111  33.316  1.00  0.00     0.107 A 
HETATM   14  C8  UNK     1      18.183   2.012  34.343  1.00  0.00     0.002 A 
HETATM   15  C13 UNK     1      18.550  -0.257  33.551  1.00  0.00     0.047 A 
HETATM   16  C12 UNK     1      18.027   1.527  35.643  1.00  0.00     0.033 A 
HETATM   17  C9  UNK     1      18.084   3.426  34.024  1.00  0.00     0.037 A 
HETATM   18  C14 UNK     1      18.131   0.156  35.895  1.00  0.00     0.013 A 
HETATM   19 Br2  UNK     1      17.919  -0.495  37.657  1.00  0.00    -0.051 Br
HETATM   20  C15 UNK     1      18.393  -0.735  34.850  1.00  0.00     0.041 A 
HETATM   21 Br1  UNK     1      18.903  -1.490  32.158  1.00  0.00    -0.048 Br
ENDBRANCH   6   9
ENDBRANCH   1   5
BRANCH   1  22
HETATM   22  C2  UNK     1      17.033   8.014  33.530  1.00  0.00     0.040 C 
HETATM   23  C4  UNK     1      16.714   7.535  34.945  1.00  0.00     0.009 C 
ENDBRANCH   1  22
TORSDOF 3
ENDMDL
MODEL 2
REMARK VINA RESULT:      -7.6     12.637     15.175
REMARK  3 active torsions:
REMARK  status: ('A' for Active; 'I' for Inactive)
REMARK    1  A    between atoms: C1_7  and  N1_6 
REMARK       I    between atoms: C5_11  and  N1_6 
REMARK    2  A    between atoms: C1_7  and  C2_8 
REMARK    3  A    between atoms: C5_11  and  C6_12 
ROOT
HETATM    1  C1  UNK     1      21.063  -8.204  37.702  1.00  0.00     0.092 C 
HETATM    2  C3  UNK     1      20.235  -7.497  38.785  1.00  0.00     0.053 C 
HETATM    3  C7  UNK     1      20.571  -7.784  36.373  1.00  0.00    -0.086 C 
HETATM    4  C16 UNK     1      20.169  -7.440  35.294  1.00  0.00     0.015 C 
ENDROOT
BRANCH   1   5
HETATM    5  N1  UNK     1      22.445  -7.802  37.847  1.00  0.00    -0.337 N 
HETATM    6  C5  UNK     1      23.175  -8.012  39.003  1.00  0.00     0.259 C 
HETATM    7  O2  UNK     1      22.767  -8.550  40.031  1.00  0.00    -0.267 OA
HETATM    8  H3  UNK     1      22.876  -7.313  37.067  1.00  0.00     0.164 HD
BRANCH   6   9
HETATM    9  C6  UNK     1      24.553  -7.520  38.905  1.00  0.00     0.108 A 
HETATM   10  C11 UNK     1      24.885  -6.072  38.938  1.00  0.00     0.304 A 
HETATM   11  O3  UNK     1      24.016  -5.214  39.051  1.00  0.00    -0.259 OA
HETATM   12  O1  UNK     1      26.232  -5.730  38.836  1.00  0.00    -0.273 OA
HETATM   13  C10 UNK     1      27.241  -6.703  38.706  1.00  0.00     0.107 A 
HETATM   14  C8  UNK     1      26.916  -8.054  38.677  1.00  0.00     0.002 A 
HETATM   15  C13 UNK     1      28.559  -6.262  38.611  1.00  0.00     0.047 A 
HETATM   16  C12 UNK     1      27.943  -8.991  38.548  1.00  0.00     0.033 A 
HETATM   17  C9  UNK     1      25.519  -8.440  38.782  1.00  0.00     0.037 A 
HETATM   18  C14 UNK     1      29.270  -8.566  38.450  1.00  0.00     0.013 A 
HETATM   19 Br2  UNK     1      30.656  -9.840  38.274  1.00  0.00    -0.051 Br
HETATM   20  C15 UNK     1      29.578  -7.203  38.482  1.00  0.00     0.041 A 
HETATM   21 Br1  UNK     1      29.009  -4.424  38.651  1.00  0.00    -0.048 Br
ENDBRANCH   6   9
ENDBRANCH   1   5
BRANCH   1  22
HETATM   22  C2  UNK     1      20.925  -9.734  37.879  1.00  0.00     0.040 C 
HETATM   23  C4  UNK     1      21.555 -10.568  36.766  1.00  0.00     0.009 C 
ENDBRANCH   1  22
TORSDOF 3
ENDMDL
MODEL 3
REMARK VINA RESULT:      -7.5      3.402      6.756
REMARK  3 active torsions:
REMARK  status: ('A' for Active; 'I' for Inactive)
REMARK    1  A    between atoms: C1_7  and  N1_6 
REMARK       I    between atoms: C5_11  and  N1_6 
REMARK    2  A    between atoms: C1_7  and  C2_8 
REMARK    3  A    between atoms: C5_11  and  C6_12 
ROOT
HETATM    1  C1  UNK     1      18.039  -0.548  36.095  1.00  0.00     0.092 C 
HETATM    2  C3  UNK     1      16.789  -1.335  35.676  1.00  0.00     0.053 C 
HETATM    3  C7  UNK     1      19.227  -1.413  35.931  1.00  0.00    -0.086 C 
HETATM    4  C16 UNK     1      20.190  -2.119  35.796  1.00  0.00     0.015 C 
ENDROOT
BRANCH   1   5
HETATM    5  N1  UNK     1      18.167   0.605  35.231  1.00  0.00    -0.337 N 
HETATM    6  C5  UNK     1      18.149   0.518  33.850  1.00  0.00     0.259 C 
HETATM    7  O2  UNK     1      18.027  -0.512  33.189  1.00  0.00    -0.267 OA
HETATM    8  H3  UNK     1      18.310   1.508  35.672  1.00  0.00     0.164 HD
BRANCH   6   9
HETATM    9  C6  UNK     1      18.293   1.822  33.195  1.00  0.00     0.108 A 
HETATM   10  C11 UNK     1      18.600   1.955  31.748  1.00  0.00     0.304 A 
HETATM   11  O3  UNK     1      18.747   0.974  31.027  1.00  0.00    -0.259 OA
HETATM   12  O1  UNK     1      18.713   3.248  31.242  1.00  0.00    -0.273 OA
HETATM   13  C10 UNK     1      18.547   4.385  32.055  1.00  0.00     0.107 A 
HETATM   14  C8  UNK     1      18.260   4.246  33.408  1.00  0.00     0.002 A 
HETATM   15  C13 UNK     1      18.678   5.636  31.458  1.00  0.00     0.047 A 
HETATM   16  C12 UNK     1      18.101   5.395  34.186  1.00  0.00     0.033 A 
HETATM   17  C9  UNK     1      18.136   2.908  33.963  1.00  0.00     0.037 A 
HETATM   18  C14 UNK     1      18.231   6.658  33.602  1.00  0.00     0.013 A 
HETATM   19 Br2  UNK     1      18.016   8.210  34.660  1.00  0.00    -0.051 Br
HETATM   20  C15 UNK     1      18.519   6.778  32.240  1.00  0.00     0.041 A 
HETATM   21 Br1  UNK     1      19.068   5.834  29.616  1.00  0.00    -0.048 Br
ENDBRANCH   6   9
ENDBRANCH   1   5
BRANCH   1  22
HETATM   22  C2  UNK     1      17.885  -0.103  37.568  1.00  0.00     0.040 C 
HETATM   23  C4  UNK     1      17.494   1.361  37.759  1.00  0.00     0.009 C 
ENDBRANCH   1  22
TORSDOF 3
ENDMDL
MODEL 4
REMARK VINA RESULT:      -7.5      5.885     10.335
REMARK  3 active torsions:
REMARK  status: ('A' for Active; 'I' for Inactive)
REMARK    1  A    between atoms: C1_7  and  N1_6 
REMARK       I    between atoms: C5_11  and  N1_6 
REMARK    2  A    between atoms: C1_7  and  C2_8 
REMARK    3  A    between atoms: C5_11  and  C6_12 
ROOT
HETATM    1  C1  UNK     1      19.578  -6.539  37.083  1.00  0.00     0.092 C 
HETATM    2  C3  UNK     1      18.215  -7.237  37.200  1.00  0.00     0.053 C 
HETATM    3  C7  UNK     1      20.498  -7.412  36.323  1.00  0.00    -0.086 C 
HETATM    4  C16 UNK     1      21.243  -8.123  35.705  1.00  0.00     0.015 C 
ENDROOT
BRANCH   1   5
HETATM    5  N1  UNK     1      19.397  -5.298  36.363  1.00  0.00    -0.337 N 
HETATM    6  C5  UNK     1      20.305  -4.255  36.416  1.00  0.00     0.259 C 
HETATM    7  O2  UNK     1      21.354  -4.239  37.058  1.00  0.00    -0.267 OA
HETATM    8  H3  UNK     1      18.542  -5.187  35.825  1.00  0.00     0.164 HD
BRANCH   6   9
HETATM    9  C6  UNK     1      19.902  -3.105  35.600  1.00  0.00     0.108 A 
HETATM   10  C11 UNK     1      19.129  -1.966  36.158  1.00  0.00     0.304 A 
HETATM   11  O3  UNK     1      18.790  -1.933  37.336  1.00  0.00    -0.259 OA
HETATM   12  O1  UNK     1      18.805  -0.933  35.282  1.00  0.00    -0.273 OA
HETATM   13  C10 UNK     1      19.187  -0.956  33.927  1.00  0.00     0.107 A 
HETATM   14  C8  UNK     1      19.911  -2.028  33.419  1.00  0.00     0.002 A 
HETATM   15  C13 UNK     1      18.817   0.124  33.129  1.00  0.00     0.047 A 
HETATM   16  C12 UNK     1      20.273  -2.018  32.070  1.00  0.00     0.033 A 
HETATM   17  C9  UNK     1      20.262  -3.121  34.310  1.00  0.00     0.037 A 
HETATM   18  C14 UNK     1      19.908  -0.942  31.256  1.00  0.00     0.013 A 
HETATM   19 Br2  UNK     1      20.402  -0.934  29.431  1.00  0.00    -0.051 Br
HETATM   20  C15 UNK     1      19.182   0.127  31.785  1.00  0.00     0.041 A 
HETATM   21 Br1  UNK     1      17.832   1.589  33.815  1.00  0.00    -0.048 Br
ENDBRANCH   6   9
ENDBRANCH   1   5
BRANCH   1  22
HETATM   22  C2  UNK     1      20.129  -6.265  38.501  1.00  0.00     0.040 C 
HETATM   23  C4  UNK     1      20.034  -7.446  39.466  1.00  0.00     0.009 C 
ENDBRANCH   1  22
TORSDOF 3
ENDMDL
MODEL 5
REMARK VINA RESULT:      -7.4      0.961      2.054
REMARK  3 active torsions:
REMARK  status: ('A' for Active; 'I' for Inactive)
REMARK    1  A    between atoms: C1_7  and  N1_6 
REMARK       I    between atoms: C5_11  and  N1_6 
REMARK    2  A    between atoms: C1_7  and  C2_8 
REMARK    3  A    between atoms: C5_11  and  C6_12 
ROOT
HETATM    1  C1  UNK     1      17.388   7.610  33.840  1.00  0.00     0.092 C 
HETATM    2  C3  UNK     1      16.372   7.958  34.937  1.00  0.00     0.053 C 
HETATM    3  C7  UNK     1      18.684   8.241  34.171  1.00  0.00    -0.086 C 
HETATM    4  C16 UNK     1      19.736   8.754  34.443  1.00  0.00     0.015 C 
ENDROOT
BRANCH   1   5
HETATM    5  N1  UNK     1      17.553   6.174  33.807  1.00  0.00    -0.337 N 
HETATM    6  C5  UNK     1      18.376   5.529  32.901  1.00  0.00     0.259 C 
HETATM    7  O2  UNK     1      19.058   6.067  32.030  1.00  0.00    -0.267 OA
HETATM    8  H3  UNK     1      17.006   5.623  34.462  1.00  0.00     0.164 HD
BRANCH   6   9
HETATM    9  C6  UNK     1      18.378   4.072  33.068  1.00  0.00     0.108 A 
HETATM   10  C11 UNK     1      18.510   3.140  31.918  1.00  0.00     0.304 A 
HETATM   11  O3  UNK     1      18.627   3.549  30.768  1.00  0.00    -0.259 OA
HETATM   12  O1  UNK     1      18.497   1.777  32.205  1.00  0.00    -0.273 OA
HETATM   13  C10 UNK     1      18.364   1.293  33.520  1.00  0.00     0.107 A 
HETATM   14  C8  UNK     1      18.241   2.176  34.586  1.00  0.00     0.002 A 
HETATM   15  C13 UNK     1      18.362  -0.088  33.706  1.00  0.00     0.047 A 
HETATM   16  C12 UNK     1      18.111   1.660  35.877  1.00  0.00     0.033 A 
HETATM   17  C9  UNK     1      18.252   3.604  34.316  1.00  0.00     0.037 A 
HETATM   18  C14 UNK     1      18.106   0.278  36.081  1.00  0.00     0.013 A 
HETATM   19 Br2  UNK     1      17.930  -0.414  37.832  1.00  0.00    -0.051 Br
HETATM   20  C15 UNK     1      18.232  -0.595  34.997  1.00  0.00     0.041 A 
HETATM   21 Br1  UNK     1      18.530  -1.297  32.259  1.00  0.00    -0.048 Br
ENDBRANCH   6   9
ENDBRANCH   1   5
BRANCH   1  22
HETATM   22  C2  UNK     1      16.860   8.125  32.481  1.00  0.00     0.040 C 
HETATM   23  C4  UNK     1      15.494   8.804  32.539  1.00  0.00     0.009 C 
ENDBRANCH   1  22
TORSDOF 3
ENDMDL
MODEL 6
REMARK VINA RESULT:      -7.4      5.384      8.631
REMARK  3 active torsions:
REMARK  status: ('A' for Active; 'I' for Inactive)
REMARK    1  A    between atoms: C1_7  and  N1_6 
REMARK       I    between atoms: C5_11  and  N1_6 
REMARK    2  A    between atoms: C1_7  and  C2_8 
REMARK    3  A    between atoms: C5_11  and  C6_12 
ROOT
HETATM    1  C1  UNK     1      18.915   5.889  31.446  1.00  0.00     0.092 C 
HETATM    2  C3  UNK     1      19.129   5.900  29.925  1.00  0.00     0.053 C 
HETATM    3  C7  UNK     1      20.207   6.157  32.113  1.00  0.00    -0.086 C 
HETATM    4  C16 UNK     1      21.258   6.375  32.652  1.00  0.00     0.015 C 
ENDROOT
BRANCH   1   5
HETATM    5  N1  UNK     1      17.979   6.938  31.785  1.00  0.00    -0.337 N 
HETATM    6  C5  UNK     1      17.635   7.251  33.087  1.00  0.00     0.259 C 
HETATM    7  O2  UNK     1      18.061   6.702  34.102  1.00  0.00    -0.267 OA
HETATM    8  H3  UNK     1      17.535   7.437  31.019  1.00  0.00     0.164 HD
BRANCH   6   9
HETATM    9  C6  UNK     1      16.669   8.352  33.174  1.00  0.00     0.108 A 
HETATM   10  C11 UNK     1      15.309   8.265  32.586  1.00  0.00     0.304 A 
HETATM   11  O3  UNK     1      14.924   7.261  31.997  1.00  0.00    -0.259 OA
HETATM   12  O1  UNK     1      14.484   9.378  32.734  1.00  0.00    -0.273 OA
HETATM   13  C10 UNK     1      14.910  10.538  33.407  1.00  0.00     0.107 A 
HETATM   14  C8  UNK     1      16.187  10.606  33.954  1.00  0.00     0.002 A 
HETATM   15  C13 UNK     1      14.013  11.600  33.505  1.00  0.00     0.047 A 
HETATM   16  C12 UNK     1      16.576  11.773  34.615  1.00  0.00     0.033 A 
HETATM   17  C9  UNK     1      17.069   9.460  33.814  1.00  0.00     0.037 A 
HETATM   18  C14 UNK     1      15.688  12.847  34.720  1.00  0.00     0.013 A 
HETATM   19 Br2  UNK     1      16.222  14.424  35.616  1.00  0.00    -0.051 Br
HETATM   20  C15 UNK     1      14.409  12.760  34.166  1.00  0.00     0.041 A 
HETATM   21 Br1  UNK     1      12.273  11.514  32.764  1.00  0.00    -0.048 Br
ENDBRANCH   6   9
ENDBRANCH   1   5
BRANCH   1  22
HETATM   22  C2  UNK     1      18.356   4.510  31.867  1.00  0.00     0.040 C 
HETATM   23  C4  UNK     1      18.589   3.388  30.858  1.00  0.00     0.009 C 
ENDBRANCH   1  22
TORSDOF 3
ENDMDL
MODEL 7
REMARK VINA RESULT:      -7.3      5.407      9.995
REMARK  3 active torsions:
REMARK  status: ('A' for Active; 'I' for Inactive)
REMARK    1  A    between atoms: C1_7  and  N1_6 
REMARK       I    between atoms: C5_11  and  N1_6 
REMARK    2  A    between atoms: C1_7  and  C2_8 
REMARK    3  A    between atoms: C5_11  and  C6_12 
ROOT
HETATM    1  C1  UNK     1      19.675  -6.866  36.793  1.00  0.00     0.092 C 
HETATM    2  C3  UNK     1      20.956  -7.372  36.113  1.00  0.00     0.053 C 
HETATM    3  C7  UNK     1      19.894  -6.824  38.255  1.00  0.00    -0.086 C 
HETATM    4  C16 UNK     1      20.075  -6.790  39.442  1.00  0.00     0.015 C 
ENDROOT
BRANCH   1   5
HETATM    5  N1  UNK     1      19.398  -5.530  36.314  1.00  0.00    -0.337 N 
HETATM    6  C5  UNK     1      20.246  -4.459  36.533  1.00  0.00     0.259 C 
HETATM    7  O2  UNK     1      21.315  -4.493  37.143  1.00  0.00    -0.267 OA
HETATM    8  H3  UNK     1      18.521  -5.379  35.826  1.00  0.00     0.164 HD
BRANCH   6   9
HETATM    9  C6  UNK     1      19.750  -3.209  35.948  1.00  0.00     0.108 A 
HETATM   10  C11 UNK     1      20.028  -2.824  34.541  1.00  0.00     0.304 A 
HETATM   11  O3  UNK     1      20.688  -3.540  33.796  1.00  0.00    -0.259 OA
HETATM   12  O1  UNK     1      19.502  -1.611  34.102  1.00  0.00    -0.273 OA
HETATM   13  C10 UNK     1      18.742  -0.779  34.945  1.00  0.00     0.107 A 
HETATM   14  C8  UNK     1      18.490  -1.151  36.260  1.00  0.00     0.002 A 
HETATM   15  C13 UNK     1      18.259   0.415  34.415  1.00  0.00     0.047 A 
HETATM   16  C12 UNK     1      17.732  -0.301  37.068  1.00  0.00     0.033 A 
HETATM   17  C9  UNK     1      19.026  -2.412  36.745  1.00  0.00     0.037 A 
HETATM   18  C14 UNK     1      17.241   0.901  36.552  1.00  0.00     0.013 A 
HETATM   19 Br2  UNK     1      16.216   2.047  37.651  1.00  0.00    -0.051 Br
HETATM   20  C15 UNK     1      17.504   1.258  35.227  1.00  0.00     0.041 A 
HETATM   21 Br1  UNK     1      18.598   0.929  32.624  1.00  0.00    -0.048 Br
ENDBRANCH   6   9
ENDBRANCH   1   5
BRANCH   1  22
HETATM   22  C2  UNK     1      18.508  -7.818  36.442  1.00  0.00     0.040 C 
HETATM   23  C4  UNK     1      17.585  -7.319  35.332  1.00  0.00     0.009 C 
ENDBRANCH   1  22
TORSDOF 3
ENDMDL
MODEL 8
REMARK VINA RESULT:      -7.2      5.404      8.894
REMARK  3 active torsions:
REMARK  status: ('A' for Active; 'I' for Inactive)
REMARK    1  A    between atoms: C1_7  and  N1_6 
REMARK       I    between atoms: C5_11  and  N1_6 
REMARK    2  A    between atoms: C1_7  and  C2_8 
REMARK    3  A    between atoms: C5_11  and  C6_12 
ROOT
HETATM    1  C1  UNK     1      18.704   6.444  32.416  1.00  0.00     0.092 C 
HETATM    2  C3  UNK     1      20.150   6.773  32.817  1.00  0.00     0.053 C 
HETATM    3  C7  UNK     1      18.377   5.079  32.881  1.00  0.00    -0.086 C 
HETATM    4  C16 UNK     1      18.115   3.970  33.260  1.00  0.00     0.015 C 
ENDROOT
BRANCH   1   5
HETATM    5  N1  UNK     1      17.823   7.391  33.063  1.00  0.00    -0.337 N 
HETATM    6  C5  UNK     1      16.456   7.414  32.854  1.00  0.00     0.259 C 
HETATM    7  O2  UNK     1      15.822   6.660  32.117  1.00  0.00    -0.267 OA
HETATM    8  H3  UNK     1      18.246   8.087  33.669  1.00  0.00     0.164 HD
BRANCH   6   9
HETATM    9  C6  UNK     1      15.778   8.463  33.624  1.00  0.00     0.108 A 
HETATM   10  C11 UNK     1      16.117   8.755  35.040  1.00  0.00     0.304 A 
HETATM   11  O3  UNK     1      16.987   8.129  35.637  1.00  0.00    -0.259 OA
HETATM   12  O1  UNK     1      15.401   9.775  35.663  1.00  0.00    -0.273 OA
HETATM   13  C10 UNK     1      14.400  10.502  34.992  1.00  0.00     0.107 A 
HETATM   14  C8  UNK     1      14.094  10.218  33.666  1.00  0.00     0.002 A 
HETATM   15  C13 UNK     1      13.741  11.504  35.700  1.00  0.00     0.047 A 
HETATM   16  C12 UNK     1      13.095  10.959  33.032  1.00  0.00     0.033 A 
HETATM   17  C9  UNK     1      14.824   9.159  32.991  1.00  0.00     0.037 A 
HETATM   18  C14 UNK     1      12.423  11.967  33.728  1.00  0.00     0.013 A 
HETATM   19 Br2  UNK     1      11.072  12.967  32.864  1.00  0.00    -0.051 Br
HETATM   20  C15 UNK     1      12.746  12.239  35.060  1.00  0.00     0.041 A 
HETATM   21 Br1  UNK     1      14.153  11.896  37.506  1.00  0.00    -0.048 Br
ENDBRANCH   6   9
ENDBRANCH   1   5
BRANCH   1  22
HETATM   22  C2  UNK     1      18.571   6.546  30.879  1.00  0.00     0.040 C 
HETATM   23  C4  UNK     1      19.668   5.833  30.091  1.00  0.00     0.009 C 
ENDBRANCH   1  22
TORSDOF 3
ENDMDL
MODEL 9
REMARK VINA RESULT:      -7.2     14.023     15.713
REMARK  3 active torsions:
REMARK  status: ('A' for Active; 'I' for Inactive)
REMARK    1  A    between atoms: C1_7  and  N1_6 
REMARK       I    between atoms: C5_11  and  N1_6 
REMARK    2  A    between atoms: C1_7  and  C2_8 
REMARK    3  A    between atoms: C5_11  and  C6_12 
ROOT
HETATM    1  C1  UNK     1      29.652  -6.474  37.705  1.00  0.00     0.092 C 
HETATM    2  C3  UNK     1      30.197  -6.049  36.334  1.00  0.00     0.053 C 
HETATM    3  C7  UNK     1      29.560  -5.281  38.574  1.00  0.00    -0.086 C 
HETATM    4  C16 UNK     1      29.486  -4.309  39.277  1.00  0.00     0.015 C 
ENDROOT
BRANCH   1   5
HETATM    5  N1  UNK     1      28.330  -7.030  37.520  1.00  0.00    -0.337 N 
HETATM    6  C5  UNK     1      27.617  -7.636  38.539  1.00  0.00     0.259 C 
HETATM    7  O2  UNK     1      27.993  -7.781  39.702  1.00  0.00    -0.267 OA
HETATM    8  H3  UNK     1      27.934  -6.999  36.586  1.00  0.00     0.164 HD
BRANCH   6   9
HETATM    9  C6  UNK     1      26.301  -8.120  38.107  1.00  0.00     0.108 A 
HETATM   10  C11 UNK     1      26.142  -9.161  37.060  1.00  0.00     0.304 A 
HETATM   11  O3  UNK     1      27.109  -9.671  36.504  1.00  0.00    -0.259 OA
HETATM   12  O1  UNK     1      24.840  -9.536  36.735  1.00  0.00    -0.273 OA
HETATM   13  C10 UNK     1      23.719  -8.961  37.363  1.00  0.00     0.107 A 
HETATM   14  C8  UNK     1      23.883  -7.988  38.341  1.00  0.00     0.002 A 
HETATM   15  C13 UNK     1      22.458  -9.402  36.970  1.00  0.00     0.047 A 
HETATM   16  C12 UNK     1      22.749  -7.439  38.943  1.00  0.00     0.033 A 
HETATM   17  C9  UNK     1      25.230  -7.577  38.700  1.00  0.00     0.037 A 
HETATM   18  C14 UNK     1      21.476  -7.870  38.560  1.00  0.00     0.013 A 
HETATM   19 Br2  UNK     1      19.945  -7.123  39.379  1.00  0.00    -0.051 Br
HETATM   20  C15 UNK     1      21.331  -8.850  37.575  1.00  0.00     0.041 A 
HETATM   21 Br1  UNK     1      22.226 -10.728  35.639  1.00  0.00    -0.048 Br
ENDBRANCH   6   9
ENDBRANCH   1   5
BRANCH   1  22
HETATM   22  C2  UNK     1      30.600  -7.528  38.322  1.00  0.00     0.040 C 
HETATM   23  C4  UNK     1      32.076  -7.135  38.333  1.00  0.00     0.009 C 
ENDBRANCH   1  22
TORSDOF 3
ENDMDL
MODEL 10
REMARK VINA RESULT:      -7.2      5.903      9.343
REMARK  3 active torsions:
REMARK  status: ('A' for Active; 'I' for Inactive)
REMARK    1  A    between atoms: C1_7  and  N1_6 
REMARK       I    between atoms: C5_11  and  N1_6 
REMARK    2  A    between atoms: C1_7  and  C2_8 
REMARK    3  A    between atoms: C5_11  and  C6_12 
ROOT
HETATM    1  C1  UNK     1      19.138   6.328  32.349  1.00  0.00     0.092 C 
HETATM    2  C3  UNK     1      20.640   6.512  32.613  1.00  0.00     0.053 C 
HETATM    3  C7  UNK     1      18.643   5.202  33.169  1.00  0.00    -0.086 C 
HETATM    4  C16 UNK     1      18.243   4.286  33.836  1.00  0.00     0.015 C 
ENDROOT
BRANCH   1   5
HETATM    5  N1  UNK     1      18.452   7.539  32.741  1.00  0.00    -0.337 N 
HETATM    6  C5  UNK     1      18.627   8.139  33.975  1.00  0.00     0.259 C 
HETATM    7  O2  UNK     1      19.362   7.742  34.878  1.00  0.00    -0.267 OA
HETATM    8  H3  UNK     1      17.789   7.937  32.083  1.00  0.00     0.164 HD
BRANCH   6   9
HETATM    9  C6  UNK     1      17.825   9.358  34.136  1.00  0.00     0.108 A 
HETATM   10  C11 UNK     1      16.374   9.319  34.450  1.00  0.00     0.304 A 
HETATM   11  O3  UNK     1      15.773   8.259  34.593  1.00  0.00    -0.259 OA
HETATM   12  O1  UNK     1      15.722  10.544  34.578  1.00  0.00    -0.273 OA
HETATM   13  C10 UNK     1      16.397  11.768  34.418  1.00  0.00     0.107 A 
HETATM   14  C8  UNK     1      17.756  11.789  34.124  1.00  0.00     0.002 A 
HETATM   15  C13 UNK     1      15.660  12.941  34.565  1.00  0.00     0.047 A 
HETATM   16  C12 UNK     1      18.394  13.022  33.972  1.00  0.00     0.033 A 
HETATM   17  C9  UNK     1      18.461  10.526  33.985  1.00  0.00     0.037 A 
HETATM   18  C14 UNK     1      17.668  14.208  34.116  1.00  0.00     0.013 A 
HETATM   19 Br2  UNK     1      18.537  15.874  33.909  1.00  0.00    -0.051 Br
HETATM   20  C15 UNK     1      16.303  14.167  34.412  1.00  0.00     0.041 A 
HETATM   21 Br1  UNK     1      13.809  12.919  34.966  1.00  0.00    -0.048 Br
ENDBRANCH   6   9
ENDBRANCH   1   5
BRANCH   1  22
HETATM   22  C2  UNK     1      18.920   6.047  30.844  1.00  0.00     0.040 C 
HETATM   23  C4  UNK     1      20.202   5.859  30.035  1.00  0.00     0.009 C 
ENDBRANCH   1  22
TORSDOF 3
ENDMDL
