MODEL 1
REMARK VINA RESULT:      -9.0      0.000      0.000
REMARK  1 active torsions:
REMARK  status: ('A' for Active; 'I' for Inactive)
REMARK    1  A    between atoms: C9_16  and  N2_6 
ROOT
HETATM    1  O1  UNK     1      30.863  -5.014  37.106  1.00  0.00    -0.291 OA
HETATM    2  O2  UNK     1      30.816  -9.189  37.086  1.00  0.00    -0.274 OA
HETATM    3  O3  UNK     1      34.689  -6.611  37.086  1.00  0.00    -0.271 OA
HETATM    4  O4  UNK     1      32.597  -9.239  35.682  1.00  0.00    -0.259 OA
HETATM    5  N1  UNK     1      34.918  -7.262  34.828  1.00  0.00    -0.320 N 
HETATM    6  N3  UNK     1      34.426  -3.284  34.384  1.00  0.00    -0.191 NA
HETATM    7  C1  UNK     1      32.829  -6.321  35.477  1.00  0.00     0.147 A 
HETATM    8  C2  UNK     1      32.844  -6.734  34.020  1.00  0.00    -0.003 A 
HETATM    9  C3  UNK     1      31.804  -7.072  36.310  1.00  0.00     0.080 A 
HETATM   10  C4  UNK     1      34.254  -6.736  35.949  1.00  0.00     0.247 A 
HETATM   11  C5  UNK     1      34.094  -7.266  33.692  1.00  0.00     0.045 A 
HETATM   12  C6  UNK     1      32.736  -4.803  35.637  1.00  0.00     0.100 A 
HETATM   13  C7  UNK     1      30.909  -6.393  37.049  1.00  0.00     0.105 A 
HETATM   14  C8  UNK     1      31.842  -6.638  33.067  1.00  0.00     0.011 A 
HETATM   15  C9  UNK     1      31.787  -4.237  36.418  1.00  0.00     0.160 A 
HETATM   16  C10 UNK     1      31.793  -8.566  36.316  1.00  0.00     0.299 A 
HETATM   17  C11 UNK     1      34.381  -7.715  32.415  1.00  0.00     0.030 A 
HETATM   18  C12 UNK     1      29.900  -7.078  37.855  1.00  0.00     0.033 A 
HETATM   19  C13 UNK     1      36.272  -7.763  34.824  1.00  0.00     0.159 C 
HETATM   20  C14 UNK     1      32.116  -7.088  31.774  1.00  0.00     0.001 A 
HETATM   21  C15 UNK     1      29.883  -8.467  37.849  1.00  0.00     0.092 A 
HETATM   22  C16 UNK     1      33.375  -7.621  31.451  1.00  0.00     0.002 A 
HETATM   23  C17 UNK     1      33.670  -3.963  34.944  1.00  0.00     0.101 C 
HETATM   24  C18 UNK     1      28.947  -6.412  38.636  1.00  0.00     0.017 A 
HETATM   25  C19 UNK     1      28.955  -9.203  38.586  1.00  0.00     0.038 A 
HETATM   26  C20 UNK     1      28.009  -7.133  39.383  1.00  0.00     0.001 A 
HETATM   27  C21 UNK     1      28.013  -8.528  39.357  1.00  0.00     0.003 A 
ENDROOT
BRANCH  15  28
HETATM   28  N2  UNK     1      31.626  -2.893  36.614  1.00  0.00    -0.379 N 
HETATM   29  H10 UNK     1      32.411  -2.303  36.857  1.00  0.00     0.158 HD
HETATM   30  H9  UNK     1      30.701  -2.493  36.511  1.00  0.00     0.158 HD
ENDBRANCH  15  28
TORSDOF 1
ENDMDL
MODEL 2
REMARK VINA RESULT:      -8.9      3.949      4.964
REMARK  1 active torsions:
REMARK  status: ('A' for Active; 'I' for Inactive)
REMARK    1  A    between atoms: C9_16  and  N2_6 
ROOT
HETATM    1  O1  UNK     1      29.237  -6.305  33.512  1.00  0.00    -0.291 OA
HETATM    2  O2  UNK     1      28.531 -10.275  34.597  1.00  0.00    -0.274 OA
HETATM    3  O3  UNK     1      32.347  -8.802  32.381  1.00  0.00    -0.271 OA
HETATM    4  O4  UNK     1      29.465 -11.008  32.664  1.00  0.00    -0.259 OA
HETATM    5  N1  UNK     1      31.439  -9.855  30.473  1.00  0.00    -0.320 N 
HETATM    6  N3  UNK     1      31.432  -6.013  29.247  1.00  0.00    -0.191 NA
HETATM    7  C1  UNK     1      30.036  -8.320  31.634  1.00  0.00     0.147 A 
HETATM    8  C2  UNK     1      29.333  -8.959  30.454  1.00  0.00    -0.003 A 
HETATM    9  C3  UNK     1      29.387  -8.638  32.971  1.00  0.00     0.080 A 
HETATM   10  C4  UNK     1      31.437  -8.999  31.588  1.00  0.00     0.247 A 
HETATM   11  C5  UNK     1      30.205  -9.838  29.805  1.00  0.00     0.045 A 
HETATM   12  C6  UNK     1      30.264  -6.823  31.418  1.00  0.00     0.100 A 
HETATM   13  C7  UNK     1      29.035  -7.641  33.802  1.00  0.00     0.105 A 
HETATM   14  C8  UNK     1      28.040  -8.771  29.991  1.00  0.00     0.011 A 
HETATM   15  C9  UNK     1      29.865  -5.914  32.337  1.00  0.00     0.160 A 
HETATM   16  C10 UNK     1      29.145 -10.057  33.368  1.00  0.00     0.299 A 
HETATM   17  C11 UNK     1      29.818 -10.550  28.683  1.00  0.00     0.030 A 
HETATM   18  C12 UNK     1      28.399  -7.903  35.091  1.00  0.00     0.033 A 
HETATM   19  C13 UNK     1      32.551 -10.677  30.059  1.00  0.00     0.159 C 
HETATM   20  C14 UNK     1      27.634  -9.484  28.861  1.00  0.00     0.001 A 
HETATM   21  C15 UNK     1      28.163  -9.224  35.453  1.00  0.00     0.092 A 
HETATM   22  C16 UNK     1      28.516 -10.366  28.213  1.00  0.00     0.002 A 
HETATM   23  C17 UNK     1      30.909  -6.375  30.218  1.00  0.00     0.101 C 
HETATM   24  C18 UNK     1      28.013  -6.897  35.986  1.00  0.00     0.017 A 
HETATM   25  C19 UNK     1      27.558  -9.567  36.663  1.00  0.00     0.038 A 
HETATM   26  C20 UNK     1      27.406  -7.223  37.204  1.00  0.00     0.001 A 
HETATM   27  C21 UNK     1      27.180  -8.557  37.542  1.00  0.00     0.003 A 
ENDROOT
BRANCH  15  28
HETATM   28  N2  UNK     1      30.022  -4.559  32.225  1.00  0.00    -0.379 N 
HETATM   29  H10 UNK     1      29.226  -3.950  32.097  1.00  0.00     0.158 HD
HETATM   30  H9  UNK     1      30.957  -4.172  32.275  1.00  0.00     0.158 HD
ENDBRANCH  15  28
TORSDOF 1
ENDMDL
MODEL 3
REMARK VINA RESULT:      -8.6      2.788      6.298
REMARK  1 active torsions:
REMARK  status: ('A' for Active; 'I' for Inactive)
REMARK    1  A    between atoms: C9_16  and  N2_6 
ROOT
HETATM    1  O1  UNK     1      31.744  -8.991  33.412  1.00  0.00    -0.291 OA
HETATM    2  O2  UNK     1      27.896  -7.485  32.810  1.00  0.00    -0.274 OA
HETATM    3  O3  UNK     1      31.285  -5.204  35.035  1.00  0.00    -0.271 OA
HETATM    4  O4  UNK     1      27.904  -6.541  34.872  1.00  0.00    -0.259 OA
HETATM    5  N1  UNK     1      30.076  -5.677  37.007  1.00  0.00    -0.320 N 
HETATM    6  N3  UNK     1      33.462  -7.748  37.724  1.00  0.00    -0.191 NA
HETATM    7  C1  UNK     1      30.580  -7.514  35.579  1.00  0.00     0.147 A 
HETATM    8  C2  UNK     1      29.771  -7.934  36.788  1.00  0.00    -0.003 A 
HETATM    9  C3  UNK     1      29.868  -7.757  34.258  1.00  0.00     0.080 A 
HETATM   10  C4  UNK     1      30.717  -5.978  35.793  1.00  0.00     0.247 A 
HETATM   11  C5  UNK     1      29.516  -6.822  37.595  1.00  0.00     0.045 A 
HETATM   12  C6  UNK     1      31.995  -8.093  35.612  1.00  0.00     0.100 A 
HETATM   13  C7  UNK     1      30.474  -8.462  33.286  1.00  0.00     0.105 A 
HETATM   14  C8  UNK     1      29.310  -9.192  37.146  1.00  0.00     0.011 A 
HETATM   15  C9  UNK     1      32.496  -8.784  34.562  1.00  0.00     0.160 A 
HETATM   16  C10 UNK     1      28.497  -7.209  34.034  1.00  0.00     0.299 A 
HETATM   17  C11 UNK     1      28.800  -6.928  38.774  1.00  0.00     0.030 A 
HETATM   18  C12 UNK     1      29.819  -8.727  32.006  1.00  0.00     0.033 A 
HETATM   19  C13 UNK     1      29.974  -4.360  37.588  1.00  0.00     0.159 C 
HETATM   20  C14 UNK     1      28.584  -9.314  38.333  1.00  0.00     0.001 A 
HETATM   21  C15 UNK     1      28.539  -8.228  31.805  1.00  0.00     0.092 A 
HETATM   22  C16 UNK     1      28.332  -8.191  39.140  1.00  0.00     0.002 A 
HETATM   23  C17 UNK     1      32.806  -7.902  36.780  1.00  0.00     0.101 C 
HETATM   24  C18 UNK     1      30.411  -9.459  30.969  1.00  0.00     0.017 A 
HETATM   25  C19 UNK     1      27.838  -8.434  30.616  1.00  0.00     0.038 A 
HETATM   26  C20 UNK     1      29.723  -9.676  29.769  1.00  0.00     0.001 A 
HETATM   27  C21 UNK     1      28.438  -9.163  29.594  1.00  0.00     0.003 A 
ENDROOT
BRANCH  15  28
HETATM   28  N2  UNK     1      33.744  -9.340  34.507  1.00  0.00    -0.379 N 
HETATM   29  H10 UNK     1      34.048  -9.861  33.696  1.00  0.00     0.158 HD
HETATM   30  H9  UNK     1      34.366  -9.218  35.296  1.00  0.00     0.158 HD
ENDBRANCH  15  28
TORSDOF 1
ENDMDL
MODEL 4
REMARK VINA RESULT:      -8.5      3.364      6.100
REMARK  1 active torsions:
REMARK  status: ('A' for Active; 'I' for Inactive)
REMARK    1  A    between atoms: C9_16  and  N2_6 
ROOT
HETATM    1  O1  UNK     1      28.173  -8.435  34.225  1.00  0.00    -0.291 OA
HETATM    2  O2  UNK     1      30.452  -5.373  32.532  1.00  0.00    -0.274 OA
HETATM    3  O3  UNK     1      32.209  -8.844  35.085  1.00  0.00    -0.271 OA
HETATM    4  O4  UNK     1      31.784  -5.300  34.368  1.00  0.00    -0.259 OA
HETATM    5  N1  UNK     1      32.498  -7.224  36.778  1.00  0.00    -0.320 N 
HETATM    6  N3  UNK     1      29.830  -9.666  38.565  1.00  0.00    -0.191 NA
HETATM    7  C1  UNK     1      30.330  -7.402  35.809  1.00  0.00     0.147 A 
HETATM    8  C2  UNK     1      30.402  -6.307  36.853  1.00  0.00    -0.003 A 
HETATM    9  C3  UNK     1      30.000  -6.892  34.416  1.00  0.00     0.080 A 
HETATM   10  C4  UNK     1      31.788  -7.949  35.805  1.00  0.00     0.247 A 
HETATM   11  C5  UNK     1      31.690  -6.256  37.395  1.00  0.00     0.045 A 
HETATM   12  C6  UNK     1      29.428  -8.554  36.255  1.00  0.00     0.100 A 
HETATM   13  C7  UNK     1      28.971  -7.421  33.731  1.00  0.00     0.105 A 
HETATM   14  C8  UNK     1      29.413  -5.439  37.290  1.00  0.00     0.011 A 
HETATM   15  C9  UNK     1      28.423  -9.002  35.469  1.00  0.00     0.160 A 
HETATM   16  C10 UNK     1      30.821  -5.806  33.802  1.00  0.00     0.299 A 
HETATM   17  C11 UNK     1      32.028  -5.347  38.382  1.00  0.00     0.030 A 
HETATM   18  C12 UNK     1      28.614  -6.951  32.394  1.00  0.00     0.033 A 
HETATM   19  C13 UNK     1      33.890  -7.417  37.107  1.00  0.00     0.159 C 
HETATM   20  C14 UNK     1      29.740  -4.514  38.284  1.00  0.00     0.001 A 
HETATM   21  C15 UNK     1      29.371  -5.932  31.830  1.00  0.00     0.092 A 
HETATM   22  C16 UNK     1      31.036  -4.469  38.825  1.00  0.00     0.002 A 
HETATM   23  C17 UNK     1      29.650  -9.168  37.532  1.00  0.00     0.101 C 
HETATM   24  C18 UNK     1      27.550  -7.471  31.646  1.00  0.00     0.017 A 
HETATM   25  C19 UNK     1      29.101  -5.420  30.560  1.00  0.00     0.038 A 
HETATM   26  C20 UNK     1      27.265  -6.970  30.371  1.00  0.00     0.001 A 
HETATM   27  C21 UNK     1      28.040  -5.946  29.829  1.00  0.00     0.003 A 
ENDROOT
BRANCH  15  28
HETATM   28  N2  UNK     1      27.566 -10.020  35.787  1.00  0.00    -0.379 N 
HETATM   29  H10 UNK     1      26.944  -9.949  36.581  1.00  0.00     0.158 HD
HETATM   30  H9  UNK     1      27.563 -10.852  35.210  1.00  0.00     0.158 HD
ENDBRANCH  15  28
TORSDOF 1
ENDMDL
MODEL 5
REMARK VINA RESULT:      -8.5      2.461      6.236
REMARK  1 active torsions:
REMARK  status: ('A' for Active; 'I' for Inactive)
REMARK    1  A    between atoms: C9_16  and  N2_6 
ROOT
HETATM    1  O1  UNK     1      32.037  -6.575  33.210  1.00  0.00    -0.291 OA
HETATM    2  O2  UNK     1      34.539  -7.402  36.450  1.00  0.00    -0.274 OA
HETATM    3  O3  UNK     1      30.409  -9.424  35.745  1.00  0.00    -0.271 OA
HETATM    4  O4  UNK     1      32.750  -7.578  37.833  1.00  0.00    -0.259 OA
HETATM    5  N1  UNK     1      29.640  -8.084  37.530  1.00  0.00    -0.320 N 
HETATM    6  N3  UNK     1      27.411  -6.608  34.511  1.00  0.00    -0.191 NA
HETATM    7  C1  UNK     1      30.771  -6.974  35.753  1.00  0.00     0.147 A 
HETATM    8  C2  UNK     1      30.360  -6.020  36.855  1.00  0.00    -0.003 A 
HETATM    9  C3  UNK     1      32.275  -7.054  35.549  1.00  0.00     0.080 A 
HETATM   10  C4  UNK     1      30.271  -8.343  36.301  1.00  0.00     0.247 A 
HETATM   11  C5  UNK     1      29.691  -6.722  37.862  1.00  0.00     0.045 A 
HETATM   12  C6  UNK     1      30.003  -6.710  34.457  1.00  0.00     0.100 A 
HETATM   13  C7  UNK     1      32.800  -6.852  34.328  1.00  0.00     0.105 A 
HETATM   14  C8  UNK     1      30.553  -4.650  36.952  1.00  0.00     0.011 A 
HETATM   15  C9  UNK     1      30.650  -6.527  33.283  1.00  0.00     0.160 A 
HETATM   16  C10 UNK     1      33.172  -7.362  36.703  1.00  0.00     0.299 A 
HETATM   17  C11 UNK     1      29.198  -6.085  38.988  1.00  0.00     0.030 A 
HETATM   18  C12 UNK     1      34.242  -6.910  34.092  1.00  0.00     0.033 A 
HETATM   19  C13 UNK     1      29.027  -9.081  38.376  1.00  0.00     0.159 C 
HETATM   20  C14 UNK     1      30.062  -3.994  38.083  1.00  0.00     0.001 A 
HETATM   21  C15 UNK     1      35.075  -7.184  35.169  1.00  0.00     0.092 A 
HETATM   22  C16 UNK     1      29.390  -4.706  39.092  1.00  0.00     0.002 A 
HETATM   23  C17 UNK     1      28.570  -6.653  34.487  1.00  0.00     0.101 C 
HETATM   24  C18 UNK     1      34.832  -6.703  32.839  1.00  0.00     0.017 A 
HETATM   25  C19 UNK     1      36.463  -7.255  35.037  1.00  0.00     0.038 A 
HETATM   26  C20 UNK     1      36.221  -6.771  32.687  1.00  0.00     0.001 A 
HETATM   27  C21 UNK     1      37.035  -7.047  33.786  1.00  0.00     0.003 A 
ENDROOT
BRANCH  15  28
HETATM   28  N2  UNK     1      30.048  -6.282  32.080  1.00  0.00    -0.379 N 
HETATM   29  H10 UNK     1      29.931  -7.017  31.395  1.00  0.00     0.158 HD
HETATM   30  H9  UNK     1      29.715  -5.346  31.884  1.00  0.00     0.158 HD
ENDBRANCH  15  28
TORSDOF 1
ENDMDL
MODEL 6
REMARK VINA RESULT:      -8.4      2.043      6.166
REMARK  1 active torsions:
REMARK  status: ('A' for Active; 'I' for Inactive)
REMARK    1  A    between atoms: C9_16  and  N2_6 
ROOT
HETATM    1  O1  UNK     1      33.734  -7.539  33.186  1.00  0.00    -0.291 OA
HETATM    2  O2  UNK     1      29.861  -6.503  32.019  1.00  0.00    -0.274 OA
HETATM    3  O3  UNK     1      32.304  -4.260  35.282  1.00  0.00    -0.271 OA
HETATM    4  O4  UNK     1      29.310  -6.002  34.161  1.00  0.00    -0.259 OA
HETATM    5  N1  UNK     1      30.851  -5.287  36.833  1.00  0.00    -0.320 N 
HETATM    6  N3  UNK     1      34.358  -6.959  37.916  1.00  0.00    -0.191 NA
HETATM    7  C1  UNK     1      31.937  -6.709  35.262  1.00  0.00     0.147 A 
HETATM    8  C2  UNK     1      31.003  -7.474  36.177  1.00  0.00    -0.003 A 
HETATM    9  C3  UNK     1      31.542  -6.779  33.796  1.00  0.00     0.080 A 
HETATM   10  C4  UNK     1      31.752  -5.243  35.756  1.00  0.00     0.247 A 
HETATM   11  C5  UNK     1      30.405  -6.594  37.084  1.00  0.00     0.045 A 
HETATM   12  C6  UNK     1      33.401  -7.076  35.506  1.00  0.00     0.100 A 
HETATM   13  C7  UNK     1      32.436  -7.181  32.876  1.00  0.00     0.105 A 
HETATM   14  C8  UNK     1      30.717  -8.830  36.210  1.00  0.00     0.011 A 
HETATM   15  C9  UNK     1      34.206  -7.463  34.491  1.00  0.00     0.160 A 
HETATM   16  C10 UNK     1      30.161  -6.397  33.373  1.00  0.00     0.299 A 
HETATM   17  C11 UNK     1      29.511  -7.036  38.043  1.00  0.00     0.030 A 
HETATM   18  C12 UNK     1      32.093  -7.273  31.458  1.00  0.00     0.033 A 
HETATM   19  C13 UNK     1      30.405  -4.142  37.591  1.00  0.00     0.159 C 
HETATM   20  C14 UNK     1      29.816  -9.291  37.171  1.00  0.00     0.001 A 
HETATM   21  C15 UNK     1      30.804  -6.929  31.069  1.00  0.00     0.092 A 
HETATM   22  C16 UNK     1      29.218  -8.400  38.080  1.00  0.00     0.002 A 
HETATM   23  C17 UNK     1      33.930  -7.012  36.838  1.00  0.00     0.101 C 
HETATM   24  C18 UNK     1      32.991  -7.689  30.467  1.00  0.00     0.017 A 
HETATM   25  C19 UNK     1      30.389  -6.989  29.738  1.00  0.00     0.038 A 
HETATM   26  C20 UNK     1      32.592  -7.754  29.128  1.00  0.00     0.001 A 
HETATM   27  C21 UNK     1      31.292  -7.404  28.764  1.00  0.00     0.003 A 
ENDROOT
BRANCH  15  28
HETATM   28  N2  UNK     1      35.522  -7.814  34.617  1.00  0.00    -0.379 N 
HETATM   29  H10 UNK     1      36.092  -8.007  33.804  1.00  0.00     0.158 HD
HETATM   30  H9  UNK     1      35.922  -7.876  35.545  1.00  0.00     0.158 HD
ENDBRANCH  15  28
TORSDOF 1
ENDMDL
MODEL 7
REMARK VINA RESULT:      -8.4      4.018      6.105
REMARK  1 active torsions:
REMARK  status: ('A' for Active; 'I' for Inactive)
REMARK    1  A    between atoms: C9_16  and  N2_6 
ROOT
HETATM    1  O1  UNK     1      30.001  -5.868  33.551  1.00  0.00    -0.291 OA
HETATM    2  O2  UNK     1      33.935  -7.142  32.973  1.00  0.00    -0.274 OA
HETATM    3  O3  UNK     1      30.851  -6.517  29.545  1.00  0.00    -0.271 OA
HETATM    4  O4  UNK     1      33.272  -8.565  31.334  1.00  0.00    -0.259 OA
HETATM    5  N1  UNK     1      30.769  -8.873  29.420  1.00  0.00    -0.320 N 
HETATM    6  N3  UNK     1      26.977  -8.080  30.541  1.00  0.00    -0.191 NA
HETATM    7  C1  UNK     1      30.425  -7.891  31.561  1.00  0.00     0.147 A 
HETATM    8  C2  UNK     1      30.388  -9.404  31.613  1.00  0.00    -0.003 A 
HETATM    9  C3  UNK     1      31.549  -7.283  32.385  1.00  0.00     0.080 A 
HETATM   10  C4  UNK     1      30.712  -7.621  30.055  1.00  0.00     0.247 A 
HETATM   11  C5  UNK     1      30.583  -9.925  30.331  1.00  0.00     0.045 A 
HETATM   12  C6  UNK     1      29.058  -7.277  31.868  1.00  0.00     0.100 A 
HETATM   13  C7  UNK     1      31.275  -6.340  33.304  1.00  0.00     0.105 A 
HETATM   14  C8  UNK     1      30.191 -10.244  32.698  1.00  0.00     0.011 A 
HETATM   15  C9  UNK     1      28.913  -6.326  32.818  1.00  0.00     0.160 A 
HETATM   16  C10 UNK     1      32.959  -7.726  32.172  1.00  0.00     0.299 A 
HETATM   17  C11 UNK     1      30.585 -11.288  30.093  1.00  0.00     0.030 A 
HETATM   18  C12 UNK     1      32.325  -5.738  34.124  1.00  0.00     0.033 A 
HETATM   19  C13 UNK     1      31.011  -9.081  28.012  1.00  0.00     0.159 C 
HETATM   20  C14 UNK     1      30.192 -11.622  32.474  1.00  0.00     0.001 A 
HETATM   21  C15 UNK     1      33.635  -6.162  33.933  1.00  0.00     0.092 A 
HETATM   22  C16 UNK     1      30.388 -12.139  31.182  1.00  0.00     0.002 A 
HETATM   23  C17 UNK     1      27.908  -7.721  31.134  1.00  0.00     0.101 C 
HETATM   24  C18 UNK     1      32.086  -4.756  35.094  1.00  0.00     0.017 A 
HETATM   25  C19 UNK     1      34.699  -5.645  34.672  1.00  0.00     0.038 A 
HETATM   26  C20 UNK     1      33.142  -4.226  35.844  1.00  0.00     0.001 A 
HETATM   27  C21 UNK     1      34.447  -4.670  35.633  1.00  0.00     0.003 A 
ENDROOT
BRANCH  15  28
HETATM   28  N2  UNK     1      27.731  -5.728  33.161  1.00  0.00    -0.379 N 
HETATM   29  H10 UNK     1      27.426  -4.877  32.708  1.00  0.00     0.158 HD
HETATM   30  H9  UNK     1      27.161  -6.155  33.881  1.00  0.00     0.158 HD
ENDBRANCH  15  28
TORSDOF 1
ENDMDL
MODEL 8
REMARK VINA RESULT:      -8.4      3.512      5.740
REMARK  1 active torsions:
REMARK  status: ('A' for Active; 'I' for Inactive)
REMARK    1  A    between atoms: C9_16  and  N2_6 
ROOT
HETATM    1  O1  UNK     1      34.552  -6.909  32.422  1.00  0.00    -0.291 OA
HETATM    2  O2  UNK     1      31.869  -7.822  35.488  1.00  0.00    -0.274 OA
HETATM    3  O3  UNK     1      32.929 -10.700  31.990  1.00  0.00    -0.271 OA
HETATM    4  O4  UNK     1      30.508  -8.899  34.027  1.00  0.00    -0.259 OA
HETATM    5  N1  UNK     1      30.778 -10.202  31.154  1.00  0.00    -0.320 N 
HETATM    6  N3  UNK     1      33.069  -8.676  28.205  1.00  0.00    -0.191 NA
HETATM    7  C1  UNK     1      32.188  -8.357  31.683  1.00  0.00     0.147 A 
HETATM    8  C2  UNK     1      30.825  -7.914  31.193  1.00  0.00    -0.003 A 
HETATM    9  C3  UNK     1      32.491  -7.927  33.108  1.00  0.00     0.080 A 
HETATM   10  C4  UNK     1      32.061  -9.909  31.649  1.00  0.00     0.247 A 
HETATM   11  C5  UNK     1      30.047  -9.034  30.887  1.00  0.00     0.045 A 
HETATM   12  C6  UNK     1      33.296  -7.984  30.696  1.00  0.00     0.100 A 
HETATM   13  C7  UNK     1      33.618  -7.247  33.382  1.00  0.00     0.105 A 
HETATM   14  C8  UNK     1      30.323  -6.633  31.025  1.00  0.00     0.011 A 
HETATM   15  C9  UNK     1      34.391  -7.298  31.097  1.00  0.00     0.160 A 
HETATM   16  C10 UNK     1      31.540  -8.263  34.210  1.00  0.00     0.299 A 
HETATM   17  C11 UNK     1      28.754  -8.912  30.407  1.00  0.00     0.030 A 
HETATM   18  C12 UNK     1      33.940  -6.805  34.738  1.00  0.00     0.033 A 
HETATM   19  C13 UNK     1      30.247 -11.529  30.956  1.00  0.00     0.159 C 
HETATM   20  C14 UNK     1      29.020  -6.494  30.544  1.00  0.00     0.001 A 
HETATM   21  C15 UNK     1      33.048  -7.107  35.759  1.00  0.00     0.092 A 
HETATM   22  C16 UNK     1      28.243  -7.624  30.237  1.00  0.00     0.002 A 
HETATM   23  C17 UNK     1      33.170  -8.366  29.319  1.00  0.00     0.101 C 
HETATM   24  C18 UNK     1      35.100  -6.093  35.067  1.00  0.00     0.017 A 
HETATM   25  C19 UNK     1      33.273  -6.724  37.081  1.00  0.00     0.038 A 
HETATM   26  C20 UNK     1      35.343  -5.700  36.388  1.00  0.00     0.001 A 
HETATM   27  C21 UNK     1      34.430  -6.016  37.394  1.00  0.00     0.003 A 
ENDROOT
BRANCH  15  28
HETATM   28  N2  UNK     1      35.425  -6.919  30.286  1.00  0.00    -0.379 N 
HETATM   29  H10 UNK     1      35.412  -6.029  29.806  1.00  0.00     0.158 HD
HETATM   30  H9  UNK     1      36.211  -7.547  30.174  1.00  0.00     0.158 HD
ENDBRANCH  15  28
TORSDOF 1
ENDMDL
MODEL 9
REMARK VINA RESULT:      -8.3      1.731      2.277
REMARK  1 active torsions:
REMARK  status: ('A' for Active; 'I' for Inactive)
REMARK    1  A    between atoms: C9_16  and  N2_6 
ROOT
HETATM    1  O1  UNK     1      30.361  -6.138  37.564  1.00  0.00    -0.291 OA
HETATM    2  O2  UNK     1      28.621  -9.581  35.965  1.00  0.00    -0.274 OA
HETATM    3  O3  UNK     1      33.103  -8.435  35.466  1.00  0.00    -0.271 OA
HETATM    4  O4  UNK     1      29.872  -9.382  34.082  1.00  0.00    -0.259 OA
HETATM    5  N1  UNK     1      32.544  -7.914  33.232  1.00  0.00    -0.320 N 
HETATM    6  N3  UNK     1      33.624  -4.267  34.573  1.00  0.00    -0.191 NA
HETATM    7  C1  UNK     1      31.216  -6.919  34.940  1.00  0.00     0.147 A 
HETATM    8  C2  UNK     1      30.740  -6.543  33.552  1.00  0.00    -0.003 A 
HETATM    9  C3  UNK     1      30.186  -7.693  35.745  1.00  0.00     0.080 A 
HETATM   10  C4  UNK     1      32.416  -7.863  34.631  1.00  0.00     0.247 A 
HETATM   11  C5  UNK     1      31.561  -7.143  32.593  1.00  0.00     0.045 A 
HETATM   12  C6  UNK     1      31.784  -5.715  35.692  1.00  0.00     0.100 A 
HETATM   13  C7  UNK     1      29.830  -7.266  36.970  1.00  0.00     0.105 A 
HETATM   14  C8  UNK     1      29.680  -5.734  33.173  1.00  0.00     0.011 A 
HETATM   15  C9  UNK     1      31.344  -5.389  36.929  1.00  0.00     0.160 A 
HETATM   16  C10 UNK     1      29.571  -8.932  35.182  1.00  0.00     0.299 A 
HETATM   17  C11 UNK     1      31.352  -6.956  31.237  1.00  0.00     0.030 A 
HETATM   18  C12 UNK     1      28.835  -7.976  37.772  1.00  0.00     0.033 A 
HETATM   19  C13 UNK     1      33.541  -8.675  32.516  1.00  0.00     0.159 C 
HETATM   20  C14 UNK     1      29.456  -5.536  31.809  1.00  0.00     0.001 A 
HETATM   21  C15 UNK     1      28.255  -9.121  37.241  1.00  0.00     0.092 A 
HETATM   22  C16 UNK     1      30.286  -6.142  30.850  1.00  0.00     0.002 A 
HETATM   23  C17 UNK     1      32.801  -4.914  35.073  1.00  0.00     0.101 C 
HETATM   24  C18 UNK     1      28.432  -7.566  39.050  1.00  0.00     0.017 A 
HETATM   25  C19 UNK     1      27.295  -9.859  37.934  1.00  0.00     0.038 A 
HETATM   26  C20 UNK     1      27.472  -8.294  39.760  1.00  0.00     0.001 A 
HETATM   27  C21 UNK     1      26.904  -9.440  39.203  1.00  0.00     0.003 A 
ENDROOT
BRANCH  15  28
HETATM   28  N2  UNK     1      31.790  -4.330  37.671  1.00  0.00    -0.379 N 
HETATM   29  H10 UNK     1      32.318  -4.474  38.522  1.00  0.00     0.158 HD
HETATM   30  H9  UNK     1      31.584  -3.392  37.353  1.00  0.00     0.158 HD
ENDBRANCH  15  28
TORSDOF 1
ENDMDL
MODEL 10
REMARK VINA RESULT:      -8.3      2.977      4.268
REMARK  1 active torsions:
REMARK  status: ('A' for Active; 'I' for Inactive)
REMARK    1  A    between atoms: C9_16  and  N2_6 
ROOT
HETATM    1  O1  UNK     1      31.646  -5.530  35.315  1.00  0.00    -0.291 OA
HETATM    2  O2  UNK     1      28.017  -7.050  36.713  1.00  0.00    -0.274 OA
HETATM    3  O3  UNK     1      31.293  -9.601  34.614  1.00  0.00    -0.271 OA
HETATM    4  O4  UNK     1      27.860  -8.427  34.918  1.00  0.00    -0.259 OA
HETATM    5  N1  UNK     1      29.834  -9.636  32.757  1.00  0.00    -0.320 N 
HETATM    6  N3  UNK     1      32.950  -7.615  31.186  1.00  0.00    -0.191 NA
HETATM    7  C1  UNK     1      30.357  -7.505  33.682  1.00  0.00     0.147 A 
HETATM    8  C2  UNK     1      29.386  -7.404  32.525  1.00  0.00    -0.003 A 
HETATM    9  C3  UNK     1      29.785  -7.010  35.000  1.00  0.00     0.080 A 
HETATM   10  C4  UNK     1      30.585  -9.042  33.786  1.00  0.00     0.247 A 
HETATM   11  C5  UNK     1      29.125  -8.679  32.015  1.00  0.00     0.045 A 
HETATM   12  C6  UNK     1      31.712  -6.880  33.345  1.00  0.00     0.100 A 
HETATM   13  C7  UNK     1      30.443  -6.079  35.712  1.00  0.00     0.105 A 
HETATM   14  C8  UNK     1      28.793  -6.282  31.967  1.00  0.00     0.011 A 
HETATM   15  C9  UNK     1      32.275  -5.950  34.149  1.00  0.00     0.160 A 
HETATM   16  C10 UNK     1      28.493  -7.561  35.510  1.00  0.00     0.299 A 
HETATM   17  C11 UNK     1      28.273  -8.873  30.942  1.00  0.00     0.030 A 
HETATM   18  C12 UNK     1      29.921  -5.568  36.979  1.00  0.00     0.033 A 
HETATM   19  C13 UNK     1      29.765 -11.053  32.490  1.00  0.00     0.159 C 
HETATM   20  C14 UNK     1      27.930  -6.461  30.885  1.00  0.00     0.001 A 
HETATM   21  C15 UNK     1      28.713  -6.072  37.445  1.00  0.00     0.092 A 
HETATM   22  C16 UNK     1      27.672  -7.746  30.377  1.00  0.00     0.002 A 
HETATM   23  C17 UNK     1      32.396  -7.286  32.151  1.00  0.00     0.101 C 
HETATM   24  C18 UNK     1      30.570  -4.597  37.751  1.00  0.00     0.017 A 
HETATM   25  C19 UNK     1      28.139  -5.641  38.641  1.00  0.00     0.038 A 
HETATM   26  C20 UNK     1      30.010  -4.153  38.954  1.00  0.00     0.001 A 
HETATM   27  C21 UNK     1      28.795  -4.675  39.398  1.00  0.00     0.003 A 
ENDROOT
BRANCH  15  28
HETATM   28  N2  UNK     1      33.477  -5.336  33.924  1.00  0.00    -0.379 N 
HETATM   29  H10 UNK     1      33.756  -4.525  34.458  1.00  0.00     0.158 HD
HETATM   30  H9  UNK     1      34.088  -5.711  33.209  1.00  0.00     0.158 HD
ENDBRANCH  15  28
TORSDOF 1
ENDMDL
