MODEL 1
REMARK VINA RESULT:      -6.8      0.000      0.000
REMARK  1 active torsions:
REMARK  status: ('A' for Active; 'I' for Inactive)
REMARK    1  A    between atoms: C10_14  and  C5_9 
ROOT
HETATM    1  F1  UNK     1      20.577  -2.949  33.904  1.00  0.00    -0.206 F 
HETATM    2  O1  UNK     1      20.047  -0.947  28.807  1.00  0.00    -0.321 OA
HETATM    3  O2  UNK     1      18.591   1.281  31.904  1.00  0.00    -0.286 OA
HETATM    4  C1  UNK     1      19.680  -0.692  31.197  1.00  0.00     0.052 A 
HETATM    5  C2  UNK     1      20.157  -1.407  30.098  1.00  0.00     0.089 A 
HETATM    6  C3  UNK     1      19.027   0.613  30.977  1.00  0.00     0.200 A 
HETATM    7  C4  UNK     1      19.818  -1.209  32.487  1.00  0.00     0.060 A 
HETATM    8  C5  UNK     1      18.935   1.060  29.570  1.00  0.00     0.075 A 
HETATM    9  C6  UNK     1      20.778  -2.642  30.283  1.00  0.00     0.041 A 
HETATM   10  C7  UNK     1      20.439  -2.447  32.669  1.00  0.00     0.117 A 
HETATM   11  C8  UNK     1      20.917  -3.160  31.570  1.00  0.00     0.045 A 
HETATM   12  C9  UNK     1      19.438   0.270  28.616  1.00  0.00     0.161 A 
ENDROOT
BRANCH   8  13
HETATM   13  C10 UNK     1      18.322   2.324  29.161  1.00  0.00     0.276 C 
HETATM   14  O3  UNK     1      17.841   2.496  28.047  1.00  0.00    -0.301 OA
ENDBRANCH   8  13
TORSDOF 1
ENDMDL
MODEL 2
REMARK VINA RESULT:      -6.7     23.023     25.189
REMARK  1 active torsions:
REMARK  status: ('A' for Active; 'I' for Inactive)
REMARK    1  A    between atoms: C10_14  and  C5_9 
ROOT
HETATM    1  F1  UNK     1       7.638   5.821   7.958  1.00  0.00    -0.206 F 
HETATM    2  O1  UNK     1      12.881   6.657   6.519  1.00  0.00    -0.321 OA
HETATM    3  O2  UNK     1      12.109   5.484  10.353  1.00  0.00    -0.286 OA
HETATM    4  C1  UNK     1      11.259   6.034   8.219  1.00  0.00     0.052 A 
HETATM    5  C2  UNK     1      11.587   6.436   6.924  1.00  0.00     0.089 A 
HETATM    6  C3  UNK     1      12.340   5.835   9.205  1.00  0.00     0.200 A 
HETATM    7  C4  UNK     1       9.925   5.825   8.575  1.00  0.00     0.060 A 
HETATM    8  C5  UNK     1      13.713   6.086   8.717  1.00  0.00     0.075 A 
HETATM    9  C6  UNK     1      10.582   6.630   5.976  1.00  0.00     0.041 A 
HETATM   10  C7  UNK     1       8.921   6.020   7.625  1.00  0.00     0.117 A 
HETATM   11  C8  UNK     1       9.249   6.421   6.329  1.00  0.00     0.045 A 
HETATM   12  C9  UNK     1      13.879   6.467   7.447  1.00  0.00     0.161 A 
ENDROOT
BRANCH   8  13
HETATM   13  C10 UNK     1      14.907   5.940   9.550  1.00  0.00     0.276 C 
HETATM   14  O3  UNK     1      15.797   5.138   9.295  1.00  0.00    -0.301 OA
ENDBRANCH   8  13
TORSDOF 1
ENDMDL
MODEL 3
REMARK VINA RESULT:      -6.7      1.683      2.317
REMARK  1 active torsions:
REMARK  status: ('A' for Active; 'I' for Inactive)
REMARK    1  A    between atoms: C10_14  and  C5_9 
ROOT
HETATM    1  F1  UNK     1      20.882  -3.215  31.273  1.00  0.00    -0.206 F 
HETATM    2  O1  UNK     1      19.205   1.424  28.839  1.00  0.00    -0.321 OA
HETATM    3  O2  UNK     1      18.852   1.152  32.897  1.00  0.00    -0.286 OA
HETATM    4  C1  UNK     1      19.516   0.132  30.874  1.00  0.00     0.052 A 
HETATM    5  C2  UNK     1      19.610   0.285  29.491  1.00  0.00     0.089 A 
HETATM    6  C3  UNK     1      18.958   1.233  31.682  1.00  0.00     0.200 A 
HETATM    7  C4  UNK     1      19.943  -1.051  31.483  1.00  0.00     0.060 A 
HETATM    8  C5  UNK     1      18.537   2.436  30.931  1.00  0.00     0.075 A 
HETATM    9  C6  UNK     1      20.136  -0.744  28.708  1.00  0.00     0.041 A 
HETATM   10  C7  UNK     1      20.468  -2.079  30.697  1.00  0.00     0.117 A 
HETATM   11  C8  UNK     1      20.563  -1.925  29.313  1.00  0.00     0.045 A 
HETATM   12  C9  UNK     1      18.687   2.443  29.603  1.00  0.00     0.161 A 
ENDROOT
BRANCH   8  13
HETATM   13  C10 UNK     1      17.962   3.624  31.563  1.00  0.00     0.276 C 
HETATM   14  O3  UNK     1      18.627   4.620  31.824  1.00  0.00    -0.301 OA
ENDBRANCH   8  13
TORSDOF 1
ENDMDL
MODEL 4
REMARK VINA RESULT:      -6.7     23.537     25.540
REMARK  1 active torsions:
REMARK  status: ('A' for Active; 'I' for Inactive)
REMARK    1  A    between atoms: C10_14  and  C5_9 
ROOT
HETATM    1  F1  UNK     1       8.912   6.810   4.903  1.00  0.00    -0.206 F 
HETATM    2  O1  UNK     1      11.359   5.612   9.682  1.00  0.00    -0.321 OA
HETATM    3  O2  UNK     1      13.715   6.799   6.566  1.00  0.00    -0.286 OA
HETATM    4  C1  UNK     1      11.544   6.333   7.368  1.00  0.00     0.052 A 
HETATM    5  C2  UNK     1      10.792   5.922   8.469  1.00  0.00     0.089 A 
HETATM    6  C3  UNK     1      13.009   6.444   7.499  1.00  0.00     0.200 A 
HETATM    7  C4  UNK     1      10.913   6.634   6.158  1.00  0.00     0.060 A 
HETATM    8  C5  UNK     1      13.567   6.099   8.825  1.00  0.00     0.075 A 
HETATM    9  C6  UNK     1       9.405   5.811   8.368  1.00  0.00     0.041 A 
HETATM   10  C7  UNK     1       9.525   6.522   6.059  1.00  0.00     0.117 A 
HETATM   11  C8  UNK     1       8.774   6.111   7.161  1.00  0.00     0.045 A 
HETATM   12  C9  UNK     1      12.725   5.720   9.791  1.00  0.00     0.161 A 
ENDROOT
BRANCH   8  13
HETATM   13  C10 UNK     1      14.995   6.150   9.140  1.00  0.00     0.276 C 
HETATM   14  O3  UNK     1      15.729   5.174   9.039  1.00  0.00    -0.301 OA
ENDBRANCH   8  13
TORSDOF 1
ENDMDL
MODEL 5
REMARK VINA RESULT:      -6.5      1.155      2.390
REMARK  1 active torsions:
REMARK  status: ('A' for Active; 'I' for Inactive)
REMARK    1  A    between atoms: C10_14  and  C5_9 
ROOT
HETATM    1  F1  UNK     1      21.451  -4.070  30.658  1.00  0.00    -0.206 F 
HETATM    2  O1  UNK     1      18.980   0.610  32.159  1.00  0.00    -0.321 OA
HETATM    3  O2  UNK     1      19.754   0.037  28.191  1.00  0.00    -0.286 OA
HETATM    4  C1  UNK     1      19.886  -0.797  30.397  1.00  0.00     0.052 A 
HETATM    5  C2  UNK     1      19.595  -0.543  31.737  1.00  0.00     0.089 A 
HETATM    6  C3  UNK     1      19.522   0.208  29.380  1.00  0.00     0.200 A 
HETATM    7  C4  UNK     1      20.515  -1.988  30.025  1.00  0.00     0.060 A 
HETATM    8  C5  UNK     1      18.862   1.431  29.888  1.00  0.00     0.075 A 
HETATM    9  C6  UNK     1      19.930  -1.481  32.715  1.00  0.00     0.041 A 
HETATM   10  C7  UNK     1      20.849  -2.924  31.006  1.00  0.00     0.117 A 
HETATM   11  C8  UNK     1      20.557  -2.670  32.347  1.00  0.00     0.045 A 
HETATM   12  C9  UNK     1      18.645   1.539  31.202  1.00  0.00     0.161 A 
ENDROOT
BRANCH   8  13
HETATM   13  C10 UNK     1      18.431   2.534  29.028  1.00  0.00     0.276 C 
HETATM   14  O3  UNK     1      17.735   2.364  28.034  1.00  0.00    -0.301 OA
ENDBRANCH   8  13
TORSDOF 1
ENDMDL
MODEL 6
REMARK VINA RESULT:      -6.5      7.104      8.448
REMARK  1 active torsions:
REMARK  status: ('A' for Active; 'I' for Inactive)
REMARK    1  A    between atoms: C10_14  and  C5_9 
ROOT
HETATM    1  F1  UNK     1      22.355   5.685  31.244  1.00  0.00    -0.206 F 
HETATM    2  O1  UNK     1      16.994   6.846  31.658  1.00  0.00    -0.321 OA
HETATM    3  O2  UNK     1      19.352   7.475  34.933  1.00  0.00    -0.286 OA
HETATM    4  C1  UNK     1      19.196   6.764  32.686  1.00  0.00     0.052 A 
HETATM    5  C2  UNK     1      18.339   6.570  31.602  1.00  0.00     0.089 A 
HETATM    6  C3  UNK     1      18.646   7.286  33.952  1.00  0.00     0.200 A 
HETATM    7  C4  UNK     1      20.556   6.466  32.571  1.00  0.00     0.060 A 
HETATM    8  C5  UNK     1      17.194   7.566  33.958  1.00  0.00     0.075 A 
HETATM    9  C6  UNK     1      18.838   6.078  30.396  1.00  0.00     0.041 A 
HETATM   10  C7  UNK     1      21.052   5.973  31.362  1.00  0.00     0.117 A 
HETATM   11  C8  UNK     1      20.195   5.780  30.279  1.00  0.00     0.045 A 
HETATM   12  C9  UNK     1      16.495   7.332  32.843  1.00  0.00     0.161 A 
ENDROOT
BRANCH   8  13
HETATM   13  C10 UNK     1      16.476   8.087  35.122  1.00  0.00     0.276 C 
HETATM   14  O3  UNK     1      16.092   9.248  35.197  1.00  0.00    -0.301 OA
ENDBRANCH   8  13
TORSDOF 1
ENDMDL
MODEL 7
REMARK VINA RESULT:      -6.4      7.533      8.968
REMARK  1 active torsions:
REMARK  status: ('A' for Active; 'I' for Inactive)
REMARK    1  A    between atoms: C10_14  and  C5_9 
ROOT
HETATM    1  F1  UNK     1      20.101   5.786  29.710  1.00  0.00    -0.206 F 
HETATM    2  O1  UNK     1      17.988   7.319  34.552  1.00  0.00    -0.321 OA
HETATM    3  O2  UNK     1      15.615   7.619  31.242  1.00  0.00    -0.286 OA
HETATM    4  C1  UNK     1      17.711   7.027  32.154  1.00  0.00     0.052 A 
HETATM    5  C2  UNK     1      18.472   6.948  33.321  1.00  0.00     0.089 A 
HETATM    6  C3  UNK     1      16.326   7.529  32.233  1.00  0.00     0.200 A 
HETATM    7  C4  UNK     1      18.257   6.636  30.929  1.00  0.00     0.060 A 
HETATM    8  C5  UNK     1      15.854   7.914  33.581  1.00  0.00     0.075 A 
HETATM    9  C6  UNK     1      19.784   6.475  33.270  1.00  0.00     0.041 A 
HETATM   10  C7  UNK     1      19.571   6.164  30.881  1.00  0.00     0.117 A 
HETATM   11  C8  UNK     1      20.331   6.085  32.048  1.00  0.00     0.045 A 
HETATM   12  C9  UNK     1      16.695   7.785  34.612  1.00  0.00     0.161 A 
ENDROOT
BRANCH   8  13
HETATM   13  C10 UNK     1      14.513   8.432  33.851  1.00  0.00     0.276 C 
HETATM   14  O3  UNK     1      14.308   9.375  34.608  1.00  0.00    -0.301 OA
ENDBRANCH   8  13
TORSDOF 1
ENDMDL
MODEL 8
REMARK VINA RESULT:      -6.4      4.831      6.819
REMARK  1 active torsions:
REMARK  status: ('A' for Active; 'I' for Inactive)
REMARK    1  A    between atoms: C10_14  and  C5_9 
ROOT
HETATM    1  F1  UNK     1      18.738   8.499  33.076  1.00  0.00    -0.206 F 
HETATM    2  O1  UNK     1      18.024   3.057  32.708  1.00  0.00    -0.321 OA
HETATM    3  O2  UNK     1      19.082   5.085  29.326  1.00  0.00    -0.286 OA
HETATM    4  C1  UNK     1      18.575   5.165  31.631  1.00  0.00     0.052 A 
HETATM    5  C2  UNK     1      18.213   4.417  32.751  1.00  0.00     0.089 A 
HETATM    6  C3  UNK     1      18.765   4.478  30.339  1.00  0.00     0.200 A 
HETATM    7  C4  UNK     1      18.753   6.547  31.734  1.00  0.00     0.060 A 
HETATM    8  C5  UNK     1      18.549   3.015  30.348  1.00  0.00     0.075 A 
HETATM    9  C6  UNK     1      18.029   5.046  33.983  1.00  0.00     0.041 A 
HETATM   10  C7  UNK     1      18.568   7.174  32.968  1.00  0.00     0.117 A 
HETATM   11  C8  UNK     1      18.207   6.425  34.088  1.00  0.00     0.045 A 
HETATM   12  C9  UNK     1      18.204   2.428  31.498  1.00  0.00     0.161 A 
ENDROOT
BRANCH   8  13
HETATM   13  C10 UNK     1      18.692   2.169  29.163  1.00  0.00     0.276 C 
HETATM   14  O3  UNK     1      17.949   2.261  28.192  1.00  0.00    -0.301 OA
ENDBRANCH   8  13
TORSDOF 1
ENDMDL
MODEL 9
REMARK VINA RESULT:      -6.4      4.406      6.472
REMARK  1 active torsions:
REMARK  status: ('A' for Active; 'I' for Inactive)
REMARK    1  A    between atoms: C10_14  and  C5_9 
ROOT
HETATM    1  F1  UNK     1      17.554   6.639  34.801  1.00  0.00    -0.206 F 
HETATM    2  O1  UNK     1      18.938   5.152  29.689  1.00  0.00    -0.321 OA
HETATM    3  O2  UNK     1      17.806   2.222  32.298  1.00  0.00    -0.286 OA
HETATM    4  C1  UNK     1      18.188   4.521  31.913  1.00  0.00     0.052 A 
HETATM    5  C2  UNK     1      18.584   5.475  30.976  1.00  0.00     0.089 A 
HETATM    6  C3  UNK     1      18.145   3.100  31.517  1.00  0.00     0.200 A 
HETATM    7  C4  UNK     1      17.839   4.908  33.210  1.00  0.00     0.060 A 
HETATM    8  C5  UNK     1      18.536   2.806  30.121  1.00  0.00     0.075 A 
HETATM    9  C6  UNK     1      18.631   6.824  31.329  1.00  0.00     0.041 A 
HETATM   10  C7  UNK     1      17.888   6.259  33.560  1.00  0.00     0.117 A 
HETATM   11  C8  UNK     1      18.283   7.213  32.622  1.00  0.00     0.045 A 
HETATM   12  C9  UNK     1      18.894   3.824  29.332  1.00  0.00     0.161 A 
ENDROOT
BRANCH   8  13
HETATM   13  C10 UNK     1      18.554   1.459  29.553  1.00  0.00     0.276 C 
HETATM   14  O3  UNK     1      18.504   1.249  28.346  1.00  0.00    -0.301 OA
ENDBRANCH   8  13
TORSDOF 1
ENDMDL
MODEL 10
REMARK VINA RESULT:      -6.3      2.637      3.916
REMARK  1 active torsions:
REMARK  status: ('A' for Active; 'I' for Inactive)
REMARK    1  A    between atoms: C10_14  and  C5_9 
ROOT
HETATM    1  F1  UNK     1      20.509  -0.977  28.127  1.00  0.00    -0.206 F 
HETATM    2  O1  UNK     1      18.640   0.973  32.918  1.00  0.00    -0.321 OA
HETATM    3  O2  UNK     1      18.764   3.520  29.729  1.00  0.00    -0.286 OA
HETATM    4  C1  UNK     1      19.165   1.352  30.575  1.00  0.00     0.052 A 
HETATM    5  C2  UNK     1      19.099   0.531  31.702  1.00  0.00     0.089 A 
HETATM    6  C3  UNK     1      18.727   2.757  30.684  1.00  0.00     0.200 A 
HETATM    7  C4  UNK     1      19.643   0.848  29.363  1.00  0.00     0.060 A 
HETATM    8  C5  UNK     1      18.242   3.181  32.015  1.00  0.00     0.075 A 
HETATM    9  C6  UNK     1      19.508  -0.801  31.621  1.00  0.00     0.041 A 
HETATM   10  C7  UNK     1      20.052  -0.485  29.286  1.00  0.00     0.117 A 
HETATM   11  C8  UNK     1      19.985  -1.306  30.412  1.00  0.00     0.045 A 
HETATM   12  C9  UNK     1      18.234   2.284  33.006  1.00  0.00     0.161 A 
ENDROOT
BRANCH   8  13
HETATM   13  C10 UNK     1      17.768   4.533  32.310  1.00  0.00     0.276 C 
HETATM   14  O3  UNK     1      17.898   5.053  33.413  1.00  0.00    -0.301 OA
ENDBRANCH   8  13
TORSDOF 1
ENDMDL
