MODEL 1
REMARK VINA RESULT:      -8.2      0.000      0.000
REMARK  3 active torsions:
REMARK  status: ('A' for Active; 'I' for Inactive)
REMARK    1  A    between atoms: C15_22  and  O5_6 
REMARK       I    between atoms: C6_13  and  N1_7 
REMARK    2  A    between atoms: C5_12  and  C6_13 
REMARK    3  A    between atoms: C5_12  and  C7_14 
ROOT
HETATM    1 Cl1  UNK     1      26.156 -10.379  36.719  1.00  0.00    -0.081 Cl
HETATM    2  O2  UNK     1      27.969  -5.371  39.232  1.00  0.00    -0.274 OA
HETATM    3  O4  UNK     1      29.594  -3.878  39.763  1.00  0.00    -0.259 OA
HETATM    4  C7  UNK     1      30.286  -5.794  38.528  1.00  0.00     0.033 A 
HETATM    5  C8  UNK     1      29.933  -6.972  37.969  1.00  0.00    -0.036 A 
HETATM    6  C9  UNK     1      28.517  -7.392  37.993  1.00  0.00     0.006 A 
HETATM    7  C10 UNK     1      27.584  -6.576  38.625  1.00  0.00     0.093 A 
HETATM    8  C11 UNK     1      29.283  -4.932  39.218  1.00  0.00     0.295 A 
HETATM    9  C12 UNK     1      30.916  -7.916  37.322  1.00  0.00     0.050 C 
HETATM   10  C13 UNK     1      28.039  -8.573  37.403  1.00  0.00     0.041 A 
HETATM   11  C14 UNK     1      26.225  -6.898  38.692  1.00  0.00     0.076 A 
HETATM   12  C15 UNK     1      25.775  -8.075  38.107  1.00  0.00     0.092 A 
HETATM   13  C16 UNK     1      26.682  -8.912  37.461  1.00  0.00     0.068 A 
ENDROOT
BRANCH   4  14
HETATM   14  C5  UNK     1      31.679  -5.219  38.519  1.00  0.00     0.148 C 
BRANCH  14  15
HETATM   15  C6  UNK     1      31.833  -4.469  37.221  1.00  0.00     0.224 C 
HETATM   16  O3  UNK     1      31.075  -3.529  36.970  1.00  0.00    -0.273 OA
HETATM   17  N1  UNK     1      32.852  -4.898  36.372  1.00  0.00    -0.348 N 
HETATM   18  C1  UNK     1      33.074  -4.222  35.093  1.00  0.00     0.152 C 
HETATM   19  C2  UNK     1      33.687  -6.087  36.577  1.00  0.00     0.152 C 
HETATM   20  C3  UNK     1      34.559  -3.970  34.878  1.00  0.00     0.187 C 
HETATM   21  O1  UNK     1      35.289  -5.195  34.990  1.00  0.00    -0.388 OA
HETATM   22  C4  UNK     1      35.147  -5.760  36.295  1.00  0.00     0.187 C 
ENDBRANCH  14  15
ENDBRANCH   4  14
BRANCH  12  23
HETATM   23  O5  UNK     1      24.450  -8.382  38.175  1.00  0.00    -0.354 OA
HETATM   24  C17 UNK     1      23.656  -7.624  39.086  1.00  0.00     0.210 C 
ENDBRANCH  12  23
TORSDOF 3
ENDMDL
MODEL 2
REMARK VINA RESULT:      -8.0     16.545     18.408
REMARK  3 active torsions:
REMARK  status: ('A' for Active; 'I' for Inactive)
REMARK    1  A    between atoms: C15_22  and  O5_6 
REMARK       I    between atoms: C6_13  and  N1_7 
REMARK    2  A    between atoms: C5_12  and  C6_13 
REMARK    3  A    between atoms: C5_12  and  C7_14 
ROOT
HETATM    1 Cl1  UNK     1      19.450   0.493  28.952  1.00  0.00    -0.081 Cl
HETATM    2  O2  UNK     1      17.974   4.001  33.446  1.00  0.00    -0.274 OA
HETATM    3  O4  UNK     1      17.631   6.057  34.344  1.00  0.00    -0.259 OA
HETATM    4  C7  UNK     1      18.325   6.004  32.066  1.00  0.00     0.033 A 
HETATM    5  C8  UNK     1      18.709   5.250  31.014  1.00  0.00    -0.036 A 
HETATM    6  C9  UNK     1      18.707   3.778  31.136  1.00  0.00     0.006 A 
HETATM    7  C10 UNK     1      18.339   3.204  32.350  1.00  0.00     0.093 A 
HETATM    8  C11 UNK     1      17.947   5.383  33.369  1.00  0.00     0.295 A 
HETATM    9  C12 UNK     1      19.169   5.826  29.698  1.00  0.00     0.050 C 
HETATM   10  C13 UNK     1      19.045   2.903  30.092  1.00  0.00     0.041 A 
HETATM   11  C14 UNK     1      18.308   1.821  32.550  1.00  0.00     0.076 A 
HETATM   12  C15 UNK     1      18.653   0.974  31.504  1.00  0.00     0.092 A 
HETATM   13  C16 UNK     1      19.020   1.515  30.274  1.00  0.00     0.068 A 
ENDROOT
BRANCH   4  14
HETATM   14  C5  UNK     1      18.222   7.508  32.056  1.00  0.00     0.148 C 
BRANCH  14  15
HETATM   15  C6  UNK     1      16.777   7.845  31.790  1.00  0.00     0.224 C 
HETATM   16  O3  UNK     1      16.202   7.332  30.827  1.00  0.00    -0.273 OA
HETATM   17  N1  UNK     1      16.174   8.736  32.676  1.00  0.00    -0.348 N 
HETATM   18  C1  UNK     1      14.772   9.114  32.493  1.00  0.00     0.152 C 
HETATM   19  C2  UNK     1      16.858   9.462  33.751  1.00  0.00     0.152 C 
HETATM   20  C3  UNK     1      14.034   9.073  33.824  1.00  0.00     0.187 C 
HETATM   21  O1  UNK     1      14.706   9.891  34.786  1.00  0.00    -0.388 OA
HETATM   22  C4  UNK     1      16.031   9.412  35.030  1.00  0.00     0.187 C 
ENDBRANCH  14  15
ENDBRANCH   4  14
BRANCH  12  23
HETATM   23  O5  UNK     1      18.620  -0.372  31.706  1.00  0.00    -0.354 OA
HETATM   24  C17 UNK     1      18.653  -0.825  33.058  1.00  0.00     0.210 C 
ENDBRANCH  12  23
TORSDOF 3
ENDMDL
MODEL 3
REMARK VINA RESULT:      -7.8      3.153      8.089
REMARK  3 active torsions:
REMARK  status: ('A' for Active; 'I' for Inactive)
REMARK    1  A    between atoms: C15_22  and  O5_6 
REMARK       I    between atoms: C6_13  and  N1_7 
REMARK    2  A    between atoms: C5_12  and  C6_13 
REMARK    3  A    between atoms: C5_12  and  C7_14 
ROOT
HETATM    1 Cl1  UNK     1      33.288  -7.223  37.856  1.00  0.00    -0.081 Cl
HETATM    2  O2  UNK     1      27.796  -5.150  38.324  1.00  0.00    -0.274 OA
HETATM    3  O4  UNK     1      25.582  -5.436  38.736  1.00  0.00    -0.259 OA
HETATM    4  C7  UNK     1      26.945  -7.383  38.898  1.00  0.00     0.033 A 
HETATM    5  C8  UNK     1      28.177  -7.920  38.766  1.00  0.00    -0.036 A 
HETATM    6  C9  UNK     1      29.318  -7.045  38.427  1.00  0.00     0.006 A 
HETATM    7  C10 UNK     1      29.087  -5.689  38.218  1.00  0.00     0.093 A 
HETATM    8  C11 UNK     1      26.702  -5.931  38.656  1.00  0.00     0.295 A 
HETATM    9  C12 UNK     1      28.468  -9.391  38.929  1.00  0.00     0.050 C 
HETATM   10  C13 UNK     1      30.643  -7.493  38.311  1.00  0.00     0.041 A 
HETATM   11  C14 UNK     1      30.110  -4.792  37.896  1.00  0.00     0.076 A 
HETATM   12  C15 UNK     1      31.413  -5.259  37.779  1.00  0.00     0.092 A 
HETATM   13  C16 UNK     1      31.680  -6.610  37.988  1.00  0.00     0.068 A 
ENDROOT
BRANCH   4  14
HETATM   14  C5  UNK     1      25.711  -8.149  39.300  1.00  0.00     0.148 C 
BRANCH  14  15
HETATM   15  C6  UNK     1      24.939  -8.427  38.035  1.00  0.00     0.224 C 
HETATM   16  O3  UNK     1      25.549  -8.723  37.005  1.00  0.00    -0.273 OA
HETATM   17  N1  UNK     1      23.551  -8.332  38.121  1.00  0.00    -0.348 N 
HETATM   18  C1  UNK     1      22.725  -8.591  36.941  1.00  0.00     0.152 C 
HETATM   19  C2  UNK     1      22.800  -7.860  39.289  1.00  0.00     0.152 C 
HETATM   20  C3  UNK     1      21.543  -9.477  37.306  1.00  0.00     0.187 C 
HETATM   21  O1  UNK     1      20.803  -8.893  38.382  1.00  0.00    -0.388 OA
HETATM   22  C4  UNK     1      21.611  -8.773  39.555  1.00  0.00     0.187 C 
ENDBRANCH  14  15
ENDBRANCH   4  14
BRANCH  12  23
HETATM   23  O5  UNK     1      32.404  -4.380  37.465  1.00  0.00    -0.354 OA
HETATM   24  C17 UNK     1      32.223  -3.591  36.291  1.00  0.00     0.210 C 
ENDBRANCH  12  23
TORSDOF 3
ENDMDL
MODEL 4
REMARK VINA RESULT:      -7.6     35.589     36.738
REMARK  3 active torsions:
REMARK  status: ('A' for Active; 'I' for Inactive)
REMARK    1  A    between atoms: C15_22  and  O5_6 
REMARK       I    between atoms: C6_13  and  N1_7 
REMARK    2  A    between atoms: C5_12  and  C6_13 
REMARK    3  A    between atoms: C5_12  and  C7_14 
ROOT
HETATM    1 Cl1  UNK     1       4.566   6.565  12.127  1.00  0.00    -0.081 Cl
HETATM    2  O2  UNK     1       8.973   5.110   8.503  1.00  0.00    -0.274 OA
HETATM    3  O4  UNK     1      10.886   5.605   7.386  1.00  0.00    -0.259 OA
HETATM    4  C7  UNK     1       9.963   7.349   8.721  1.00  0.00     0.033 A 
HETATM    5  C8  UNK     1       8.956   7.749   9.526  1.00  0.00    -0.036 A 
HETATM    6  C9  UNK     1       7.892   6.791   9.891  1.00  0.00     0.006 A 
HETATM    7  C10 UNK     1       7.939   5.502   9.365  1.00  0.00     0.093 A 
HETATM    8  C11 UNK     1       9.998   5.972   8.148  1.00  0.00     0.295 A 
HETATM    9  C12 UNK     1       8.832   9.149  10.075  1.00  0.00     0.050 C 
HETATM   10  C13 UNK     1       6.828   7.091  10.754  1.00  0.00     0.041 A 
HETATM   11  C14 UNK     1       6.976   4.534   9.660  1.00  0.00     0.076 A 
HETATM   12  C15 UNK     1       5.926   4.856  10.512  1.00  0.00     0.092 A 
HETATM   13  C16 UNK     1       5.853   6.133  11.061  1.00  0.00     0.068 A 
ENDROOT
BRANCH   4  14
HETATM   14  C5  UNK     1      11.138   8.204   8.322  1.00  0.00     0.148 C 
BRANCH  14  15
HETATM   15  C6  UNK     1      12.150   8.103   9.435  1.00  0.00     0.224 C 
HETATM   16  O3  UNK     1      11.889   8.590  10.538  1.00  0.00    -0.273 OA
HETATM   17  N1  UNK     1      13.341   7.444   9.135  1.00  0.00    -0.348 N 
HETATM   18  C1  UNK     1      14.375   7.298  10.159  1.00  0.00     0.152 C 
HETATM   19  C2  UNK     1      13.738   6.967   7.805  1.00  0.00     0.152 C 
HETATM   20  C3  UNK     1      14.924   5.878  10.159  1.00  0.00     0.187 C 
HETATM   21  O1  UNK     1      15.387   5.529   8.851  1.00  0.00    -0.388 OA
HETATM   22  C4  UNK     1      14.319   5.563   7.902  1.00  0.00     0.187 C 
ENDBRANCH  14  15
ENDBRANCH   4  14
BRANCH  12  23
HETATM   23  O5  UNK     1       4.991   3.907  10.796  1.00  0.00    -0.354 OA
HETATM   24  C17 UNK     1       5.459   2.572  10.981  1.00  0.00     0.210 C 
ENDBRANCH  12  23
TORSDOF 3
ENDMDL
MODEL 5
REMARK VINA RESULT:      -7.5     34.762     36.316
REMARK  3 active torsions:
REMARK  status: ('A' for Active; 'I' for Inactive)
REMARK    1  A    between atoms: C15_22  and  O5_6 
REMARK       I    between atoms: C6_13  and  N1_7 
REMARK    2  A    between atoms: C5_12  and  C6_13 
REMARK    3  A    between atoms: C5_12  and  C7_14 
ROOT
HETATM    1 Cl1  UNK     1      15.599  12.828   9.413  1.00  0.00    -0.081 Cl
HETATM    2  O2  UNK     1      16.488   7.029   9.920  1.00  0.00    -0.274 OA
HETATM    3  O4  UNK     1      15.845   4.875   9.602  1.00  0.00    -0.259 OA
HETATM    4  C7  UNK     1      14.345   6.550   8.816  1.00  0.00     0.033 A 
HETATM    5  C8  UNK     1      14.071   7.868   8.708  1.00  0.00    -0.036 A 
HETATM    6  C9  UNK     1      15.056   8.857   9.193  1.00  0.00     0.006 A 
HETATM    7  C10 UNK     1      16.232   8.401   9.783  1.00  0.00     0.093 A 
HETATM    8  C11 UNK     1      15.600   6.069   9.464  1.00  0.00     0.295 A 
HETATM    9  C12 UNK     1      12.788   8.409   8.127  1.00  0.00     0.050 C 
HETATM   10  C13 UNK     1      14.890  10.246   9.088  1.00  0.00     0.041 A 
HETATM   11  C14 UNK     1      17.216   9.268  10.267  1.00  0.00     0.076 A 
HETATM   12  C15 UNK     1      17.027  10.641  10.159  1.00  0.00     0.092 A 
HETATM   13  C16 UNK     1      15.864  11.130   9.568  1.00  0.00     0.068 A 
ENDROOT
BRANCH   4  14
HETATM   14  C5  UNK     1      13.460   5.442   8.307  1.00  0.00     0.148 C 
BRANCH  14  15
HETATM   15  C6  UNK     1      12.184   5.500   9.108  1.00  0.00     0.224 C 
HETATM   16  O3  UNK     1      12.237   5.432  10.339  1.00  0.00    -0.273 OA
HETATM   17  N1  UNK     1      11.001   5.634   8.383  1.00  0.00    -0.348 N 
HETATM   18  C1  UNK     1       9.717   5.702   9.083  1.00  0.00     0.152 C 
HETATM   19  C2  UNK     1      10.888   5.588   6.921  1.00  0.00     0.152 C 
HETATM   20  C3  UNK     1       8.856   6.814   8.502  1.00  0.00     0.187 C 
HETATM   21  O1  UNK     1       8.708   6.638   7.091  1.00  0.00    -0.388 OA
HETATM   22  C4  UNK     1       9.973   6.703   6.430  1.00  0.00     0.187 C 
ENDBRANCH  14  15
ENDBRANCH   4  14
BRANCH  12  23
HETATM   23  O5  UNK     1      17.990  11.479  10.631  1.00  0.00    -0.354 OA
HETATM   24  C17 UNK     1      19.101  11.738   9.775  1.00  0.00     0.210 C 
ENDBRANCH  12  23
TORSDOF 3
ENDMDL
MODEL 6
REMARK VINA RESULT:      -7.5     15.309     16.957
REMARK  3 active torsions:
REMARK  status: ('A' for Active; 'I' for Inactive)
REMARK    1  A    between atoms: C15_22  and  O5_6 
REMARK       I    between atoms: C6_13  and  N1_7 
REMARK    2  A    between atoms: C5_12  and  C6_13 
REMARK    3  A    between atoms: C5_12  and  C7_14 
ROOT
HETATM    1 Cl1  UNK     1      19.954  -0.614  28.577  1.00  0.00    -0.081 Cl
HETATM    2  O2  UNK     1      18.248   2.658  33.165  1.00  0.00    -0.274 OA
HETATM    3  O4  UNK     1      17.661   4.645  34.092  1.00  0.00    -0.259 OA
HETATM    4  C7  UNK     1      18.220   4.686  31.777  1.00  0.00     0.033 A 
HETATM    5  C8  UNK     1      18.648   3.992  30.701  1.00  0.00    -0.036 A 
HETATM    6  C9  UNK     1      18.868   2.535  30.816  1.00  0.00     0.006 A 
HETATM    7  C10 UNK     1      18.660   1.919  32.047  1.00  0.00     0.093 A 
HETATM    8  C11 UNK     1      18.015   4.021  33.097  1.00  0.00     0.295 A 
HETATM    9  C12 UNK     1      18.941   4.624  29.363  1.00  0.00     0.050 C 
HETATM   10  C13 UNK     1      19.268   1.715  29.750  1.00  0.00     0.041 A 
HETATM   11  C14 UNK     1      18.843   0.547  32.242  1.00  0.00     0.076 A 
HETATM   12  C15 UNK     1      19.247  -0.244  31.173  1.00  0.00     0.092 A 
HETATM   13  C16 UNK     1      19.458   0.340  29.927  1.00  0.00     0.068 A 
ENDROOT
BRANCH   4  14
HETATM   14  C5  UNK     1      17.898   6.158  31.780  1.00  0.00     0.148 C 
BRANCH  14  15
HETATM   15  C6  UNK     1      19.013   6.847  32.523  1.00  0.00     0.224 C 
HETATM   16  O3  UNK     1      20.180   6.501  32.323  1.00  0.00    -0.273 OA
HETATM   17  N1  UNK     1      18.639   7.859  33.406  1.00  0.00    -0.348 N 
HETATM   18  C1  UNK     1      19.660   8.582  34.166  1.00  0.00     0.152 C 
HETATM   19  C2  UNK     1      17.261   8.209  33.765  1.00  0.00     0.152 C 
HETATM   20  C3  UNK     1      19.382  10.078  34.133  1.00  0.00     0.187 C 
HETATM   21  O1  UNK     1      18.056  10.344  34.598  1.00  0.00    -0.388 OA
HETATM   22  C4  UNK     1      17.083   9.722  33.755  1.00  0.00     0.187 C 
ENDBRANCH  14  15
ENDBRANCH   4  14
BRANCH  12  23
HETATM   23  O5  UNK     1      19.422  -1.580  31.370  1.00  0.00    -0.354 OA
HETATM   24  C17 UNK     1      20.686  -1.998  31.884  1.00  0.00     0.210 C 
ENDBRANCH  12  23
TORSDOF 3
ENDMDL
MODEL 7
REMARK VINA RESULT:      -7.4     35.431     36.516
REMARK  3 active torsions:
REMARK  status: ('A' for Active; 'I' for Inactive)
REMARK    1  A    between atoms: C15_22  and  O5_6 
REMARK       I    between atoms: C6_13  and  N1_7 
REMARK    2  A    between atoms: C5_12  and  C6_13 
REMARK    3  A    between atoms: C5_12  and  C7_14 
ROOT
HETATM    1 Cl1  UNK     1       5.678   8.442  10.815  1.00  0.00    -0.081 Cl
HETATM    2  O2  UNK     1       9.902   5.023   8.546  1.00  0.00    -0.274 OA
HETATM    3  O4  UNK     1      12.014   4.704   7.777  1.00  0.00    -0.259 OA
HETATM    4  C7  UNK     1      11.484   6.904   8.522  1.00  0.00     0.033 A 
HETATM    5  C8  UNK     1      10.543   7.742   9.005  1.00  0.00    -0.036 A 
HETATM    6  C9  UNK     1       9.198   7.219   9.321  1.00  0.00     0.006 A 
HETATM    7  C10 UNK     1       8.925   5.876   9.080  1.00  0.00     0.093 A 
HETATM    8  C11 UNK     1      11.179   5.469   8.250  1.00  0.00     0.295 A 
HETATM    9  C12 UNK     1      10.774   9.216   9.231  1.00  0.00     0.050 C 
HETATM   10  C13 UNK     1       8.163   7.994   9.868  1.00  0.00     0.041 A 
HETATM   11  C14 UNK     1       7.680   5.300   9.353  1.00  0.00     0.076 A 
HETATM   12  C15 UNK     1       6.668   6.088   9.887  1.00  0.00     0.092 A 
HETATM   13  C16 UNK     1       6.910   7.435  10.147  1.00  0.00     0.068 A 
ENDROOT
BRANCH   4  14
HETATM   14  C5  UNK     1      12.908   7.291   8.217  1.00  0.00     0.148 C 
BRANCH  14  15
HETATM   15  C6  UNK     1      13.649   7.300   9.530  1.00  0.00     0.224 C 
HETATM   16  O3  UNK     1      13.563   6.326  10.282  1.00  0.00    -0.273 OA
HETATM   17  N1  UNK     1      14.405   8.437   9.809  1.00  0.00    -0.348 N 
HETATM   18  C1  UNK     1      15.160   8.527  11.059  1.00  0.00     0.152 C 
HETATM   19  C2  UNK     1      14.430   9.663   9.002  1.00  0.00     0.152 C 
HETATM   20  C3  UNK     1      16.562   9.055  10.796  1.00  0.00     0.187 C 
HETATM   21  O1  UNK     1      16.496  10.304  10.100  1.00  0.00    -0.388 OA
HETATM   22  C4  UNK     1      15.863  10.149   8.827  1.00  0.00     0.187 C 
ENDBRANCH  14  15
ENDBRANCH   4  14
BRANCH  12  23
HETATM   23  O5  UNK     1       5.459   5.521  10.151  1.00  0.00    -0.354 OA
HETATM   24  C17 UNK     1       5.457   4.344  10.957  1.00  0.00     0.210 C 
ENDBRANCH  12  23
TORSDOF 3
ENDMDL
MODEL 8
REMARK VINA RESULT:      -7.4     16.060     18.011
REMARK  3 active torsions:
REMARK  status: ('A' for Active; 'I' for Inactive)
REMARK    1  A    between atoms: C15_22  and  O5_6 
REMARK       I    between atoms: C6_13  and  N1_7 
REMARK    2  A    between atoms: C5_12  and  C6_13 
REMARK    3  A    between atoms: C5_12  and  C7_14 
ROOT
HETATM    1 Cl1  UNK     1      17.962  -0.022  34.737  1.00  0.00    -0.081 Cl
HETATM    2  O2  UNK     1      19.018   3.734  30.326  1.00  0.00    -0.274 OA
HETATM    3  O4  UNK     1      19.185   5.839  29.494  1.00  0.00    -0.259 OA
HETATM    4  C7  UNK     1      18.589   5.659  31.793  1.00  0.00     0.033 A 
HETATM    5  C8  UNK     1      18.299   4.844  32.829  1.00  0.00    -0.036 A 
HETATM    6  C9  UNK     1      18.395   3.381  32.652  1.00  0.00     0.006 A 
HETATM    7  C10 UNK     1      18.752   2.877  31.404  1.00  0.00     0.093 A 
HETATM    8  C11 UNK     1      18.955   5.112  30.454  1.00  0.00     0.295 A 
HETATM    9  C12 UNK     1      17.855   5.341  34.183  1.00  0.00     0.050 C 
HETATM   10  C13 UNK     1      18.159   2.449  33.674  1.00  0.00     0.041 A 
HETATM   11  C14 UNK     1      18.867   1.507  31.151  1.00  0.00     0.076 A 
HETATM   12  C15 UNK     1      18.622   0.602  32.177  1.00  0.00     0.092 A 
HETATM   13  C16 UNK     1      18.269   1.073  33.439  1.00  0.00     0.068 A 
ENDROOT
BRANCH   4  14
HETATM   14  C5  UNK     1      18.591   7.165  31.856  1.00  0.00     0.148 C 
BRANCH  14  15
HETATM   15  C6  UNK     1      17.173   7.614  31.613  1.00  0.00     0.224 C 
HETATM   16  O3  UNK     1      16.598   7.274  30.576  1.00  0.00    -0.273 OA
HETATM   17  N1  UNK     1      16.592   8.401  32.606  1.00  0.00    -0.348 N 
HETATM   18  C1  UNK     1      15.217   8.877  32.452  1.00  0.00     0.152 C 
HETATM   19  C2  UNK     1      17.283   8.930  33.787  1.00  0.00     0.152 C 
HETATM   20  C3  UNK     1      14.442   8.687  33.749  1.00  0.00     0.187 C 
HETATM   21  O1  UNK     1      15.129   9.322  34.831  1.00  0.00    -0.388 OA
HETATM   22  C4  UNK     1      16.421   8.743  35.029  1.00  0.00     0.187 C 
ENDBRANCH  14  15
ENDBRANCH   4  14
BRANCH  12  23
HETATM   23  O5  UNK     1      18.737  -0.731  31.923  1.00  0.00    -0.354 OA
HETATM   24  C17 UNK     1      20.018  -1.203  31.512  1.00  0.00     0.210 C 
ENDBRANCH  12  23
TORSDOF 3
ENDMDL
MODEL 9
REMARK VINA RESULT:      -7.3      3.399      8.224
REMARK  3 active torsions:
REMARK  status: ('A' for Active; 'I' for Inactive)
REMARK    1  A    between atoms: C15_22  and  O5_6 
REMARK       I    between atoms: C6_13  and  N1_7 
REMARK    2  A    between atoms: C5_12  and  C6_13 
REMARK    3  A    between atoms: C5_12  and  C7_14 
ROOT
HETATM    1 Cl1  UNK     1      31.407  -3.438  36.729  1.00  0.00    -0.081 Cl
HETATM    2  O2  UNK     1      29.827  -8.864  38.383  1.00  0.00    -0.274 OA
HETATM    3  O4  UNK     1      28.295 -10.348  39.161  1.00  0.00    -0.259 OA
HETATM    4  C7  UNK     1      27.548  -8.101  38.898  1.00  0.00     0.033 A 
HETATM    5  C8  UNK     1      27.866  -6.831  38.569  1.00  0.00    -0.036 A 
HETATM    6  C9  UNK     1      29.227  -6.526  38.081  1.00  0.00     0.006 A 
HETATM    7  C10 UNK     1      30.160  -7.555  38.005  1.00  0.00     0.093 A 
HETATM    8  C11 UNK     1      28.559  -9.197  38.830  1.00  0.00     0.295 A 
HETATM    9  C12 UNK     1      26.906  -5.673  38.686  1.00  0.00     0.050 C 
HETATM   10  C13 UNK     1      29.646  -5.251  37.671  1.00  0.00     0.041 A 
HETATM   11  C14 UNK     1      31.468  -7.354  37.553  1.00  0.00     0.076 A 
HETATM   12  C15 UNK     1      31.863  -6.081  37.159  1.00  0.00     0.092 A 
HETATM   13  C16 UNK     1      30.951  -5.030  37.216  1.00  0.00     0.068 A 
ENDROOT
BRANCH   4  14
HETATM   14  C5  UNK     1      26.185  -8.559  39.348  1.00  0.00     0.148 C 
BRANCH  14  15
HETATM   15  C6  UNK     1      25.358  -8.759  38.104  1.00  0.00     0.224 C 
HETATM   16  O3  UNK     1      25.889  -9.217  37.090  1.00  0.00    -0.273 OA
HETATM   17  N1  UNK     1      24.012  -8.407  38.189  1.00  0.00    -0.348 N 
HETATM   18  C1  UNK     1      23.136  -8.573  37.029  1.00  0.00     0.152 C 
HETATM   19  C2  UNK     1      23.376  -7.742  39.333  1.00  0.00     0.152 C 
HETATM   20  C3  UNK     1      21.817  -9.206  37.447  1.00  0.00     0.187 C 
HETATM   21  O1  UNK     1      21.211  -8.439  38.491  1.00  0.00    -0.388 OA
HETATM   22  C4  UNK     1      22.043  -8.406  39.653  1.00  0.00     0.187 C 
ENDBRANCH  14  15
ENDBRANCH   4  14
BRANCH  12  23
HETATM   23  O5  UNK     1      33.138  -5.892  36.720  1.00  0.00    -0.354 OA
HETATM   24  C17 UNK     1      34.191  -6.271  37.604  1.00  0.00     0.210 C 
ENDBRANCH  12  23
TORSDOF 3
ENDMDL
MODEL 10
REMARK VINA RESULT:      -7.3      3.184      5.071
REMARK  3 active torsions:
REMARK  status: ('A' for Active; 'I' for Inactive)
REMARK    1  A    between atoms: C15_22  and  O5_6 
REMARK       I    between atoms: C6_13  and  N1_7 
REMARK    2  A    between atoms: C5_12  and  C6_13 
REMARK    3  A    between atoms: C5_12  and  C7_14 
ROOT
HETATM    1 Cl1  UNK     1      29.181  -3.590  39.970  1.00  0.00    -0.081 Cl
HETATM    2  O2  UNK     1      31.310  -7.367  35.985  1.00  0.00    -0.274 OA
HETATM    3  O4  UNK     1      32.694  -7.881  34.260  1.00  0.00    -0.259 OA
HETATM    4  C7  UNK     1      32.832  -5.654  35.096  1.00  0.00     0.033 A 
HETATM    5  C8  UNK     1      32.353  -4.736  35.962  1.00  0.00    -0.036 A 
HETATM    6  C9  UNK     1      31.313  -5.128  36.936  1.00  0.00     0.006 A 
HETATM    7  C10 UNK     1      30.828  -6.432  36.912  1.00  0.00     0.093 A 
HETATM    8  C11 UNK     1      32.295  -7.046  35.065  1.00  0.00     0.295 A 
HETATM    9  C12 UNK     1      32.808  -3.297  35.989  1.00  0.00     0.050 C 
HETATM   10  C13 UNK     1      30.782  -4.264  37.906  1.00  0.00     0.041 A 
HETATM   11  C14 UNK     1      29.847  -6.886  37.799  1.00  0.00     0.076 A 
HETATM   12  C15 UNK     1      29.329  -6.011  38.747  1.00  0.00     0.092 A 
HETATM   13  C16 UNK     1      29.798  -4.701  38.802  1.00  0.00     0.068 A 
ENDROOT
BRANCH   4  14
HETATM   14  C5  UNK     1      33.932  -5.404  34.097  1.00  0.00     0.148 C 
BRANCH  14  15
HETATM   15  C6  UNK     1      35.177  -6.051  34.647  1.00  0.00     0.224 C 
HETATM   16  O3  UNK     1      35.458  -5.909  35.840  1.00  0.00    -0.273 OA
HETATM   17  N1  UNK     1      35.944  -6.788  33.747  1.00  0.00    -0.348 N 
HETATM   18  C1  UNK     1      37.167  -7.453  34.199  1.00  0.00     0.152 C 
HETATM   19  C2  UNK     1      35.712  -6.873  32.300  1.00  0.00     0.152 C 
HETATM   20  C3  UNK     1      37.232  -8.872  33.652  1.00  0.00     0.187 C 
HETATM   21  O1  UNK     1      37.105  -8.858  32.227  1.00  0.00    -0.388 OA
HETATM   22  C4  UNK     1      35.843  -8.316  31.830  1.00  0.00     0.187 C 
ENDBRANCH  14  15
ENDBRANCH   4  14
BRANCH  12  23
HETATM   23  O5  UNK     1      28.374  -6.461  39.607  1.00  0.00    -0.354 OA
HETATM   24  C17 UNK     1      27.825  -7.751  39.349  1.00  0.00     0.210 C 
ENDBRANCH  12  23
TORSDOF 3
ENDMDL
