MODEL 1
REMARK VINA RESULT:     -10.1      0.000      0.000
REMARK  3 active torsions:
REMARK  status: ('A' for Active; 'I' for Inactive)
REMARK    1  A    between atoms: C1_9  and  N1_8 
REMARK       I    between atoms: C7_15  and  N1_8 
REMARK    2  A    between atoms: C12_20  and  C2_10 
REMARK    3  A    between atoms: C4_12  and  C7_15 
ROOT
HETATM    1  O2  UNK     1      21.410  -4.591  36.943  1.00  0.00    -0.267 OA
HETATM    2  N1  UNK     1      19.154  -5.179  37.270  1.00  0.00    -0.322 N 
HETATM    3  C7  UNK     1      20.206  -4.346  36.917  1.00  0.00     0.262 C 
HETATM    4  H2  UNK     1      18.209  -4.820  37.165  1.00  0.00     0.169 HD
ENDROOT
BRANCH   2   5
HETATM    5  C1  UNK     1      19.229  -6.512  37.744  1.00  0.00     0.050 A 
HETATM    6  C2  UNK     1      18.621  -7.537  37.040  1.00  0.00     0.076 A 
HETATM    7  C9  UNK     1      18.705  -8.843  37.523  1.00  0.00     0.042 A 
HETATM    8  C15 UNK     1      19.399  -9.105  38.704  1.00  0.00     0.035 A 
HETATM    9  C14 UNK     1      20.007  -8.062  39.403  1.00  0.00     0.026 A 
HETATM   10 Cl1  UNK     1      19.502 -10.715  39.305  1.00  0.00    -0.084 Cl
HETATM   11  C8  UNK     1      19.922  -6.756  38.919  1.00  0.00     0.032 A 
BRANCH   6  12
HETATM   12  C12 UNK     1      17.871  -7.285  35.771  1.00  0.00     0.419 C 
HETATM   13  F1  UNK     1      16.923  -6.310  35.883  1.00  0.00    -0.166 F 
HETATM   14  F2  UNK     1      18.670  -6.893  34.737  1.00  0.00    -0.166 F 
HETATM   15  F3  UNK     1      17.209  -8.392  35.327  1.00  0.00    -0.166 F 
ENDBRANCH   6  12
ENDBRANCH   2   5
BRANCH   3  16
HETATM   16  C4  UNK     1      19.741  -3.028  36.467  1.00  0.00     0.108 A 
HETATM   17  C10 UNK     1      20.032  -2.512  35.111  1.00  0.00     0.304 A 
HETATM   18  O1  UNK     1      19.536  -1.249  34.802  1.00  0.00    -0.274 OA
HETATM   19  O3  UNK     1      20.678  -3.162  34.295  1.00  0.00    -0.259 OA
HETATM   20  C5  UNK     1      18.792  -0.495  35.731  1.00  0.00     0.089 A 
HETATM   21  C13 UNK     1      18.336   0.760  35.331  1.00  0.00     0.038 A 
HETATM   22  C3  UNK     1      18.529  -0.998  37.001  1.00  0.00    -0.001 A 
HETATM   23  C17 UNK     1      17.598   1.528  36.227  1.00  0.00     0.003 A 
HETATM   24  C16 UNK     1      17.325   1.040  37.507  1.00  0.00     0.001 A 
HETATM   25  C11 UNK     1      17.788  -0.221  37.894  1.00  0.00     0.014 A 
HETATM   26  C6  UNK     1      19.034  -2.317  37.354  1.00  0.00     0.037 A 
ENDBRANCH   3  16
TORSDOF 3
ENDMDL
MODEL 2
REMARK VINA RESULT:     -10.1      9.042     12.349
REMARK  3 active torsions:
REMARK  status: ('A' for Active; 'I' for Inactive)
REMARK    1  A    between atoms: C1_9  and  N1_8 
REMARK       I    between atoms: C7_15  and  N1_8 
REMARK    2  A    between atoms: C12_20  and  C2_10 
REMARK    3  A    between atoms: C4_12  and  C7_15 
ROOT
HETATM    1  O2  UNK     1      18.448   4.759  30.152  1.00  0.00    -0.267 OA
HETATM    2  N1  UNK     1      17.819   4.721  32.421  1.00  0.00    -0.322 N 
HETATM    3  C7  UNK     1      18.291   4.188  31.230  1.00  0.00     0.262 C 
HETATM    4  H2  UNK     1      17.773   4.108  33.230  1.00  0.00     0.169 HD
ENDROOT
BRANCH   2   5
HETATM    5  C1  UNK     1      17.409   6.054  32.669  1.00  0.00     0.050 A 
HETATM    6  C2  UNK     1      18.331   7.004  33.075  1.00  0.00     0.076 A 
HETATM    7  C9  UNK     1      17.907   8.310  33.315  1.00  0.00     0.042 A 
HETATM    8  C15 UNK     1      16.565   8.650  33.143  1.00  0.00     0.035 A 
HETATM    9  C14 UNK     1      15.647   7.683  32.733  1.00  0.00     0.026 A 
HETATM   10 Cl1  UNK     1      16.039  10.262  33.441  1.00  0.00    -0.084 Cl
HETATM   11  C8  UNK     1      16.072   6.376  32.494  1.00  0.00     0.032 A 
BRANCH   6  12
HETATM   12  C12 UNK     1      19.775   6.668  33.267  1.00  0.00     0.419 C 
HETATM   13  F1  UNK     1      19.982   5.627  34.126  1.00  0.00    -0.166 F 
HETATM   14  F2  UNK     1      20.408   6.312  32.112  1.00  0.00    -0.166 F 
HETATM   15  F3  UNK     1      20.491   7.712  33.774  1.00  0.00    -0.166 F 
ENDBRANCH   6  12
ENDBRANCH   2   5
BRANCH   3  16
HETATM   16  C4  UNK     1      18.621   2.763  31.354  1.00  0.00     0.108 A 
HETATM   17  C10 UNK     1      18.386   2.009  32.605  1.00  0.00     0.304 A 
HETATM   18  O1  UNK     1      18.740   0.662  32.599  1.00  0.00    -0.274 OA
HETATM   19  O3  UNK     1      17.904   2.538  33.601  1.00  0.00    -0.259 OA
HETATM   20  C5  UNK     1      19.293   0.045  31.460  1.00  0.00     0.089 A 
HETATM   21  C13 UNK     1      19.615  -1.309  31.550  1.00  0.00     0.038 A 
HETATM   22  C3  UNK     1      19.505   0.772  30.294  1.00  0.00    -0.001 A 
HETATM   23  C17 UNK     1      20.164  -1.947  30.440  1.00  0.00     0.003 A 
HETATM   24  C16 UNK     1      20.385  -1.232  29.260  1.00  0.00     0.001 A 
HETATM   25  C11 UNK     1      20.056   0.124  29.185  1.00  0.00     0.014 A 
HETATM   26  C6  UNK     1      19.146   2.182  30.268  1.00  0.00     0.037 A 
ENDBRANCH   3  16
TORSDOF 3
ENDMDL
MODEL 3
REMARK VINA RESULT:     -10.0      9.423     12.367
REMARK  3 active torsions:
REMARK  status: ('A' for Active; 'I' for Inactive)
REMARK    1  A    between atoms: C1_9  and  N1_8 
REMARK       I    between atoms: C7_15  and  N1_8 
REMARK    2  A    between atoms: C12_20  and  C2_10 
REMARK    3  A    between atoms: C4_12  and  C7_15 
ROOT
HETATM    1  O2  UNK     1      17.787   3.360  33.160  1.00  0.00    -0.267 OA
HETATM    2  N1  UNK     1      18.231   4.912  31.446  1.00  0.00    -0.322 N 
HETATM    3  C7  UNK     1      18.165   3.654  32.028  1.00  0.00     0.262 C 
HETATM    4  H2  UNK     1      18.549   4.973  30.482  1.00  0.00     0.169 HD
ENDROOT
BRANCH   2   5
HETATM    5  C1  UNK     1      17.874   6.153  32.027  1.00  0.00     0.050 A 
HETATM    6  C2  UNK     1      18.818   6.901  32.710  1.00  0.00     0.076 A 
HETATM    7  C9  UNK     1      18.446   8.120  33.275  1.00  0.00     0.042 A 
HETATM    8  C15 UNK     1      17.134   8.576  33.148  1.00  0.00     0.035 A 
HETATM    9  C14 UNK     1      16.194   7.812  32.457  1.00  0.00     0.026 A 
HETATM   10 Cl1  UNK     1      16.672  10.080  33.847  1.00  0.00    -0.084 Cl
HETATM   11  C8  UNK     1      16.566   6.592  31.892  1.00  0.00     0.032 A 
BRANCH   6  12
HETATM   12  C12 UNK     1      20.231   6.436  32.862  1.00  0.00     0.419 C 
HETATM   13  F1  UNK     1      20.757   5.910  31.718  1.00  0.00    -0.166 F 
HETATM   14  F2  UNK     1      21.092   7.428  33.231  1.00  0.00    -0.166 F 
HETATM   15  F3  UNK     1      20.362   5.463  33.809  1.00  0.00    -0.166 F 
ENDBRANCH   6  12
ENDBRANCH   2   5
BRANCH   3  16
HETATM   16  C4  UNK     1      18.620   2.597  31.115  1.00  0.00     0.108 A 
HETATM   17  C10 UNK     1      18.687   2.800  29.651  1.00  0.00     0.304 A 
HETATM   18  O1  UNK     1      19.136   1.723  28.890  1.00  0.00    -0.274 OA
HETATM   19  O3  UNK     1      18.365   3.861  29.127  1.00  0.00    -0.259 OA
HETATM   20  C5  UNK     1      19.509   0.500  29.482  1.00  0.00     0.089 A 
HETATM   21  C13 UNK     1      19.947  -0.520  28.639  1.00  0.00     0.038 A 
HETATM   22  C3  UNK     1      19.439   0.331  30.861  1.00  0.00    -0.001 A 
HETATM   23  C17 UNK     1      20.323  -1.741  29.195  1.00  0.00     0.003 A 
HETATM   24  C16 UNK     1      20.258  -1.929  30.578  1.00  0.00     0.001 A 
HETATM   25  C11 UNK     1      19.818  -0.896  31.410  1.00  0.00     0.014 A 
HETATM   26  C6  UNK     1      18.974   1.438  31.683  1.00  0.00     0.037 A 
ENDBRANCH   3  16
TORSDOF 3
ENDMDL
MODEL 4
REMARK VINA RESULT:      -9.3      1.917      2.224
REMARK  3 active torsions:
REMARK  status: ('A' for Active; 'I' for Inactive)
REMARK    1  A    between atoms: C1_9  and  N1_8 
REMARK       I    between atoms: C7_15  and  N1_8 
REMARK    2  A    between atoms: C12_20  and  C2_10 
REMARK    3  A    between atoms: C4_12  and  C7_15 
ROOT
HETATM    1  O2  UNK     1      21.427  -4.506  37.105  1.00  0.00    -0.267 OA
HETATM    2  N1  UNK     1      19.844  -5.493  35.668  1.00  0.00    -0.322 N 
HETATM    3  C7  UNK     1      20.472  -4.449  36.333  1.00  0.00     0.262 C 
HETATM    4  H2  UNK     1      19.076  -5.264  35.043  1.00  0.00     0.169 HD
ENDROOT
BRANCH   2   5
HETATM    5  C1  UNK     1      20.164  -6.872  35.727  1.00  0.00     0.050 A 
HETATM    6  C2  UNK     1      19.699  -7.651  36.773  1.00  0.00     0.076 A 
HETATM    7  C9  UNK     1      20.024  -9.007  36.812  1.00  0.00     0.042 A 
HETATM    8  C15 UNK     1      20.809  -9.565  35.803  1.00  0.00     0.035 A 
HETATM    9  C14 UNK     1      21.270  -8.767  34.755  1.00  0.00     0.026 A 
HETATM   10 Cl1  UNK     1      21.215 -11.237  35.851  1.00  0.00    -0.084 Cl
HETATM   11  C8  UNK     1      20.944  -7.411  34.716  1.00  0.00     0.032 A 
BRANCH   6  12
HETATM   12  C12 UNK     1      18.856  -7.080  37.867  1.00  0.00     0.419 C 
HETATM   13  F1  UNK     1      19.539  -6.242  38.700  1.00  0.00    -0.166 F 
HETATM   14  F2  UNK     1      17.797  -6.350  37.412  1.00  0.00    -0.166 F 
HETATM   15  F3  UNK     1      18.322  -8.043  38.671  1.00  0.00    -0.166 F 
ENDBRANCH   6  12
ENDBRANCH   2   5
BRANCH   3  16
HETATM   16  C4  UNK     1      19.862  -3.150  36.024  1.00  0.00     0.108 A 
HETATM   17  C10 UNK     1      20.021  -2.502  34.702  1.00  0.00     0.304 A 
HETATM   18  O1  UNK     1      19.394  -1.271  34.530  1.00  0.00    -0.274 OA
HETATM   19  O3  UNK     1      20.671  -3.020  33.800  1.00  0.00    -0.259 OA
HETATM   20  C5  UNK     1      18.644  -0.669  35.559  1.00  0.00     0.089 A 
HETATM   21  C13 UNK     1      18.053   0.565  35.293  1.00  0.00     0.038 A 
HETATM   22  C3  UNK     1      18.507  -1.295  36.793  1.00  0.00    -0.001 A 
HETATM   23  C17 UNK     1      17.305   1.185  36.291  1.00  0.00     0.003 A 
HETATM   24  C16 UNK     1      17.157   0.572  37.537  1.00  0.00     0.001 A 
HETATM   25  C11 UNK     1      17.755  -0.665  37.789  1.00  0.00     0.014 A 
HETATM   26  C6  UNK     1      19.150  -2.583  37.005  1.00  0.00     0.037 A 
ENDBRANCH   3  16
TORSDOF 3
ENDMDL
MODEL 5
REMARK VINA RESULT:      -9.0     20.465     21.950
REMARK  3 active torsions:
REMARK  status: ('A' for Active; 'I' for Inactive)
REMARK    1  A    between atoms: C1_9  and  N1_8 
REMARK       I    between atoms: C7_15  and  N1_8 
REMARK    2  A    between atoms: C12_20  and  C2_10 
REMARK    3  A    between atoms: C4_12  and  C7_15 
ROOT
HETATM    1  O2  UNK     1      17.882  -3.142  15.821  1.00  0.00    -0.267 OA
HETATM    2  N1  UNK     1      20.097  -2.974  15.042  1.00  0.00    -0.322 N 
HETATM    3  C7  UNK     1      18.924  -2.519  15.625  1.00  0.00     0.262 C 
HETATM    4  H2  UNK     1      20.878  -2.326  14.978  1.00  0.00     0.169 HD
ENDROOT
BRANCH   2   5
HETATM    5  C1  UNK     1      20.366  -4.270  14.537  1.00  0.00     0.050 A 
HETATM    6  C2  UNK     1      20.285  -4.519  13.177  1.00  0.00     0.076 A 
HETATM    7  C9  UNK     1      20.553  -5.802  12.699  1.00  0.00     0.042 A 
HETATM    8  C15 UNK     1      20.900  -6.818  13.589  1.00  0.00     0.035 A 
HETATM    9  C14 UNK     1      20.977  -6.553  14.957  1.00  0.00     0.026 A 
HETATM   10 Cl1  UNK     1      21.228  -8.403  13.003  1.00  0.00    -0.084 Cl
HETATM   11  C8  UNK     1      20.709  -5.269  15.434  1.00  0.00     0.032 A 
BRANCH   6  12
HETATM   12  C12 UNK     1      19.916  -3.449  12.201  1.00  0.00     0.419 C 
HETATM   13  F1  UNK     1      18.693  -2.893  12.439  1.00  0.00    -0.166 F 
HETATM   14  F2  UNK     1      20.790  -2.401  12.186  1.00  0.00    -0.166 F 
HETATM   15  F3  UNK     1      19.868  -3.907  10.917  1.00  0.00    -0.166 F 
ENDBRANCH   6  12
ENDBRANCH   2   5
BRANCH   3  16
HETATM   16  C4  UNK     1      19.017  -1.111  16.031  1.00  0.00     0.108 A 
HETATM   17  C10 UNK     1      19.264  -0.027  15.054  1.00  0.00     0.304 A 
HETATM   18  O1  UNK     1      19.332   1.268  15.561  1.00  0.00    -0.274 OA
HETATM   19  O3  UNK     1      19.403  -0.252  13.856  1.00  0.00    -0.259 OA
HETATM   20  C5  UNK     1      19.173   1.537  16.934  1.00  0.00     0.089 A 
HETATM   21  C13 UNK     1      19.256   2.866  17.347  1.00  0.00     0.038 A 
HETATM   22  C3  UNK     1      18.941   0.504  17.836  1.00  0.00    -0.001 A 
HETATM   23  C17 UNK     1      19.103   3.164  18.699  1.00  0.00     0.003 A 
HETATM   24  C16 UNK     1      18.871   2.139  19.619  1.00  0.00     0.001 A 
HETATM   25  C11 UNK     1      18.789   0.811  19.190  1.00  0.00     0.014 A 
HETATM   26  C6  UNK     1      18.865  -0.861  17.337  1.00  0.00     0.037 A 
ENDBRANCH   3  16
TORSDOF 3
ENDMDL
MODEL 6
REMARK VINA RESULT:      -9.0      1.313      2.167
REMARK  3 active torsions:
REMARK  status: ('A' for Active; 'I' for Inactive)
REMARK    1  A    between atoms: C1_9  and  N1_8 
REMARK       I    between atoms: C7_15  and  N1_8 
REMARK    2  A    between atoms: C12_20  and  C2_10 
REMARK    3  A    between atoms: C4_12  and  C7_15 
ROOT
HETATM    1  O2  UNK     1      21.398  -4.375  37.000  1.00  0.00    -0.267 OA
HETATM    2  N1  UNK     1      19.166  -5.100  37.178  1.00  0.00    -0.322 N 
HETATM    3  C7  UNK     1      20.188  -4.217  36.859  1.00  0.00     0.262 C 
HETATM    4  H2  UNK     1      18.212  -4.816  36.972  1.00  0.00     0.169 HD
ENDROOT
BRANCH   2   5
HETATM    5  C1  UNK     1      19.285  -6.394  37.741  1.00  0.00     0.050 A 
HETATM    6  C2  UNK     1      18.692  -7.482  37.123  1.00  0.00     0.076 A 
HETATM    7  C9  UNK     1      18.821  -8.747  37.694  1.00  0.00     0.042 A 
HETATM    8  C15 UNK     1      19.544  -8.908  38.876  1.00  0.00     0.035 A 
HETATM    9  C14 UNK     1      20.137  -7.803  39.488  1.00  0.00     0.026 A 
HETATM   10 Cl1  UNK     1      19.703 -10.469  39.584  1.00  0.00    -0.084 Cl
HETATM   11  C8  UNK     1      20.007  -6.537  38.916  1.00  0.00     0.032 A 
BRANCH   6  12
HETATM   12  C12 UNK     1      17.912  -7.338  35.856  1.00  0.00     0.419 C 
HETATM   13  F1  UNK     1      16.917  -6.407  35.931  1.00  0.00    -0.166 F 
HETATM   14  F2  UNK     1      18.674  -6.965  34.787  1.00  0.00    -0.166 F 
HETATM   15  F3  UNK     1      17.301  -8.500  35.484  1.00  0.00    -0.166 F 
ENDBRANCH   6  12
ENDBRANCH   2   5
BRANCH   3  16
HETATM   16  C4  UNK     1      19.678  -2.964  36.288  1.00  0.00     0.108 A 
HETATM   17  C10 UNK     1      19.064  -1.911  37.127  1.00  0.00     0.304 A 
HETATM   18  O1  UNK     1      18.620  -0.767  36.470  1.00  0.00    -0.274 OA
HETATM   19  O3  UNK     1      18.951  -2.033  38.342  1.00  0.00    -0.259 OA
HETATM   20  C5  UNK     1      18.746  -0.616  35.075  1.00  0.00     0.089 A 
HETATM   21  C13 UNK     1      18.272   0.565  34.506  1.00  0.00     0.038 A 
HETATM   22  C3  UNK     1      19.327  -1.618  34.305  1.00  0.00    -0.001 A 
HETATM   23  C17 UNK     1      18.383   0.744  33.129  1.00  0.00     0.003 A 
HETATM   24  C16 UNK     1      18.963  -0.252  32.340  1.00  0.00     0.001 A 
HETATM   25  C11 UNK     1      19.434  -1.430  32.924  1.00  0.00     0.014 A 
HETATM   26  C6  UNK     1      19.802  -2.825  34.963  1.00  0.00     0.037 A 
ENDBRANCH   3  16
TORSDOF 3
ENDMDL
MODEL 7
REMARK VINA RESULT:      -8.9      8.611     12.321
REMARK  3 active torsions:
REMARK  status: ('A' for Active; 'I' for Inactive)
REMARK    1  A    between atoms: C1_9  and  N1_8 
REMARK       I    between atoms: C7_15  and  N1_8 
REMARK    2  A    between atoms: C12_20  and  C2_10 
REMARK    3  A    between atoms: C4_12  and  C7_15 
ROOT
HETATM    1  O2  UNK     1      19.304   5.248  32.293  1.00  0.00    -0.267 OA
HETATM    2  N1  UNK     1      18.093   5.966  34.179  1.00  0.00    -0.322 N 
HETATM    3  C7  UNK     1      18.633   5.038  33.300  1.00  0.00     0.262 C 
HETATM    4  H2  UNK     1      17.578   5.616  34.982  1.00  0.00     0.169 HD
ENDROOT
BRANCH   2   5
HETATM    5  C1  UNK     1      18.193   7.378  34.114  1.00  0.00     0.050 A 
HETATM    6  C2  UNK     1      17.098   8.139  33.742  1.00  0.00     0.076 A 
HETATM    7  C9  UNK     1      17.218   9.527  33.685  1.00  0.00     0.042 A 
HETATM    8  C15 UNK     1      18.432  10.136  34.002  1.00  0.00     0.035 A 
HETATM    9  C14 UNK     1      19.527   9.356  34.376  1.00  0.00     0.026 A 
HETATM   10 Cl1  UNK     1      18.583  11.849  33.929  1.00  0.00    -0.084 Cl
HETATM   11  C8  UNK     1      19.407   7.967  34.433  1.00  0.00     0.032 A 
BRANCH   6  12
HETATM   12  C12 UNK     1      15.785   7.514  33.397  1.00  0.00     0.419 C 
HETATM   13  F1  UNK     1      14.869   8.402  32.914  1.00  0.00    -0.166 F 
HETATM   14  F2  UNK     1      15.879   6.542  32.444  1.00  0.00    -0.166 F 
HETATM   15  F3  UNK     1      15.191   6.920  34.472  1.00  0.00    -0.166 F 
ENDBRANCH   6  12
ENDBRANCH   2   5
BRANCH   3  16
HETATM   16  C4  UNK     1      18.319   3.658  33.693  1.00  0.00     0.108 A 
HETATM   17  C10 UNK     1      17.911   2.634  32.705  1.00  0.00     0.304 A 
HETATM   18  O1  UNK     1      17.640   1.361  33.199  1.00  0.00    -0.274 OA
HETATM   19  O3  UNK     1      17.814   2.889  31.509  1.00  0.00    -0.259 OA
HETATM   20  C5  UNK     1      17.750   1.058  34.571  1.00  0.00     0.089 A 
HETATM   21  C13 UNK     1      17.459  -0.245  34.971  1.00  0.00     0.038 A 
HETATM   22  C3  UNK     1      18.136   2.035  35.482  1.00  0.00    -0.001 A 
HETATM   23  C17 UNK     1      17.558  -0.575  36.321  1.00  0.00     0.003 A 
HETATM   24  C16 UNK     1      17.943   0.394  37.251  1.00  0.00     0.001 A 
HETATM   25  C11 UNK     1      18.232   1.696  36.834  1.00  0.00     0.014 A 
HETATM   26  C6  UNK     1      18.426   3.376  34.997  1.00  0.00     0.037 A 
ENDBRANCH   3  16
TORSDOF 3
ENDMDL
MODEL 8
REMARK VINA RESULT:      -8.9      6.663      8.632
REMARK  3 active torsions:
REMARK  status: ('A' for Active; 'I' for Inactive)
REMARK    1  A    between atoms: C1_9  and  N1_8 
REMARK       I    between atoms: C7_15  and  N1_8 
REMARK    2  A    between atoms: C12_20  and  C2_10 
REMARK    3  A    between atoms: C4_12  and  C7_15 
ROOT
HETATM    1  O2  UNK     1      25.678  -9.087  39.430  1.00  0.00    -0.267 OA
HETATM    2  N1  UNK     1      24.481  -7.758  37.899  1.00  0.00    -0.322 N 
HETATM    3  C7  UNK     1      25.549  -8.093  38.719  1.00  0.00     0.262 C 
HETATM    4  H2  UNK     1      24.549  -6.901  37.357  1.00  0.00     0.169 HD
ENDROOT
BRANCH   2   5
HETATM    5  C1  UNK     1      23.288  -8.492  37.691  1.00  0.00     0.050 A 
HETATM    6  C2  UNK     1      22.115  -8.111  38.321  1.00  0.00     0.076 A 
HETATM    7  C9  UNK     1      20.951  -8.846  38.103  1.00  0.00     0.042 A 
HETATM    8  C15 UNK     1      20.975  -9.954  37.256  1.00  0.00     0.035 A 
HETATM    9  C14 UNK     1      22.164 -10.327  36.628  1.00  0.00     0.026 A 
HETATM   10 Cl1  UNK     1      19.540 -10.866  36.988  1.00  0.00    -0.084 Cl
HETATM   11  C8  UNK     1      23.328  -9.591  36.846  1.00  0.00     0.032 A 
BRANCH   6  12
HETATM   12  C12 UNK     1      22.061  -6.928  39.233  1.00  0.00     0.419 C 
HETATM   13  F1  UNK     1      22.890  -7.033  40.312  1.00  0.00    -0.166 F 
HETATM   14  F2  UNK     1      22.409  -5.756  38.626  1.00  0.00    -0.166 F 
HETATM   15  F3  UNK     1      20.813  -6.721  39.746  1.00  0.00    -0.166 F 
ENDBRANCH   6  12
ENDBRANCH   2   5
BRANCH   3  16
HETATM   16  C4  UNK     1      26.615  -7.084  38.678  1.00  0.00     0.108 A 
HETATM   17  C10 UNK     1      26.331  -5.635  38.774  1.00  0.00     0.304 A 
HETATM   18  O1  UNK     1      27.426  -4.778  38.724  1.00  0.00    -0.274 OA
HETATM   19  O3  UNK     1      25.188  -5.205  38.894  1.00  0.00    -0.259 OA
HETATM   20  C5  UNK     1      28.742  -5.262  38.588  1.00  0.00     0.089 A 
HETATM   21  C13 UNK     1      29.775  -4.326  38.547  1.00  0.00     0.038 A 
HETATM   22  C3  UNK     1      28.988  -6.627  38.499  1.00  0.00    -0.001 A 
HETATM   23  C17 UNK     1      31.087  -4.774  38.413  1.00  0.00     0.003 A 
HETATM   24  C16 UNK     1      31.353  -6.142  38.321  1.00  0.00     0.001 A 
HETATM   25  C11 UNK     1      30.307  -7.068  38.364  1.00  0.00     0.014 A 
HETATM   26  C6  UNK     1      27.864  -7.550  38.549  1.00  0.00     0.037 A 
ENDBRANCH   3  16
TORSDOF 3
ENDMDL
MODEL 9
REMARK VINA RESULT:      -8.8      9.359     11.770
REMARK  3 active torsions:
REMARK  status: ('A' for Active; 'I' for Inactive)
REMARK    1  A    between atoms: C1_9  and  N1_8 
REMARK       I    between atoms: C7_15  and  N1_8 
REMARK    2  A    between atoms: C12_20  and  C2_10 
REMARK    3  A    between atoms: C4_12  and  C7_15 
ROOT
HETATM    1  O2  UNK     1      28.677  -9.651  39.041  1.00  0.00    -0.267 OA
HETATM    2  N1  UNK     1      28.886  -8.029  37.348  1.00  0.00    -0.322 N 
HETATM    3  C7  UNK     1      28.233  -8.993  38.102  1.00  0.00     0.262 C 
HETATM    4  H2  UNK     1      28.358  -7.560  36.616  1.00  0.00     0.169 HD
ENDROOT
BRANCH   2   5
HETATM    5  C1  UNK     1      30.222  -7.580  37.489  1.00  0.00     0.050 A 
HETATM    6  C2  UNK     1      30.495  -6.405  38.169  1.00  0.00     0.076 A 
HETATM    7  C9  UNK     1      31.817  -5.980  38.297  1.00  0.00     0.042 A 
HETATM    8  C15 UNK     1      32.849  -6.737  37.742  1.00  0.00     0.035 A 
HETATM    9  C14 UNK     1      32.559  -7.918  37.059  1.00  0.00     0.026 A 
HETATM   10 Cl1  UNK     1      34.482  -6.213  37.895  1.00  0.00    -0.084 Cl
HETATM   11  C8  UNK     1      31.237  -8.343  36.932  1.00  0.00     0.032 A 
BRANCH   6  12
HETATM   12  C12 UNK     1      29.409  -5.574  38.774  1.00  0.00     0.419 C 
HETATM   13  F1  UNK     1      28.487  -5.140  37.866  1.00  0.00    -0.166 F 
HETATM   14  F2  UNK     1      28.691  -6.231  39.730  1.00  0.00    -0.166 F 
HETATM   15  F3  UNK     1      29.888  -4.450  39.380  1.00  0.00    -0.166 F 
ENDBRANCH   6  12
ENDBRANCH   2   5
BRANCH   3  16
HETATM   16  C4  UNK     1      26.846  -9.192  37.664  1.00  0.00     0.108 A 
HETATM   17  C10 UNK     1      25.801  -8.165  37.871  1.00  0.00     0.304 A 
HETATM   18  O1  UNK     1      24.523  -8.471  37.410  1.00  0.00    -0.274 OA
HETATM   19  O3  UNK     1      26.043  -7.096  38.420  1.00  0.00    -0.259 OA
HETATM   20  C5  UNK     1      24.236  -9.696  36.777  1.00  0.00     0.089 A 
HETATM   21  C13 UNK     1      22.927  -9.912  36.349  1.00  0.00     0.038 A 
HETATM   22  C3  UNK     1      25.233 -10.648  36.591  1.00  0.00    -0.001 A 
HETATM   23  C17 UNK     1      22.612 -11.114  35.719  1.00  0.00     0.003 A 
HETATM   24  C16 UNK     1      23.600 -12.082  35.525  1.00  0.00     0.001 A 
HETATM   25  C11 UNK     1      24.908 -11.851  35.959  1.00  0.00     0.014 A 
HETATM   26  C6  UNK     1      26.579 -10.358  37.062  1.00  0.00     0.037 A 
ENDBRANCH   3  16
TORSDOF 3
ENDMDL
MODEL 10
REMARK VINA RESULT:      -8.7     20.363     21.797
REMARK  3 active torsions:
REMARK  status: ('A' for Active; 'I' for Inactive)
REMARK    1  A    between atoms: C1_9  and  N1_8 
REMARK       I    between atoms: C7_15  and  N1_8 
REMARK    2  A    between atoms: C12_20  and  C2_10 
REMARK    3  A    between atoms: C4_12  and  C7_15 
ROOT
HETATM    1  O2  UNK     1      20.401  -3.434  16.170  1.00  0.00    -0.267 OA
HETATM    2  N1  UNK     1      18.315  -3.252  15.093  1.00  0.00    -0.322 N 
HETATM    3  C7  UNK     1      19.415  -2.796  15.806  1.00  0.00     0.262 C 
HETATM    4  H2  UNK     1      17.593  -2.578  14.853  1.00  0.00     0.169 HD
ENDROOT
BRANCH   2   5
HETATM    5  C1  UNK     1      18.076  -4.564  14.617  1.00  0.00     0.050 A 
HETATM    6  C2  UNK     1      18.559  -4.956  13.379  1.00  0.00     0.076 A 
HETATM    7  C9  UNK     1      18.313  -6.252  12.928  1.00  0.00     0.042 A 
HETATM    8  C15 UNK     1      17.589  -7.141  13.723  1.00  0.00     0.035 A 
HETATM    9  C14 UNK     1      17.108  -6.732  14.967  1.00  0.00     0.026 A 
HETATM   10 Cl1  UNK     1      17.281  -8.741  13.167  1.00  0.00    -0.084 Cl
HETATM   11  C8  UNK     1      17.355  -5.435  15.418  1.00  0.00     0.032 A 
BRANCH   6  12
HETATM   12  C12 UNK     1      19.339  -4.025  12.507  1.00  0.00     0.419 C 
HETATM   13  F1  UNK     1      18.728  -2.820  12.314  1.00  0.00    -0.166 F 
HETATM   14  F2  UNK     1      20.576  -3.726  13.000  1.00  0.00    -0.166 F 
HETATM   15  F3  UNK     1      19.552  -4.534  11.260  1.00  0.00    -0.166 F 
ENDBRANCH   6  12
ENDBRANCH   2   5
BRANCH   3  16
HETATM   16  C4  UNK     1      19.313  -1.368  16.128  1.00  0.00     0.108 A 
HETATM   17  C10 UNK     1      19.383  -0.320  15.085  1.00  0.00     0.304 A 
HETATM   18  O1  UNK     1      19.273   0.999  15.514  1.00  0.00    -0.274 OA
HETATM   19  O3  UNK     1      19.532  -0.595  13.898  1.00  0.00    -0.259 OA
HETATM   20  C5  UNK     1      19.102   1.326  16.874  1.00  0.00     0.089 A 
HETATM   21  C13 UNK     1      19.000   2.675  17.208  1.00  0.00     0.038 A 
HETATM   22  C3  UNK     1      19.037   0.326  17.839  1.00  0.00    -0.001 A 
HETATM   23  C17 UNK     1      18.830   3.030  18.544  1.00  0.00     0.003 A 
HETATM   24  C16 UNK     1      18.764   2.039  19.527  1.00  0.00     0.001 A 
HETATM   25  C11 UNK     1      18.867   0.690  19.177  1.00  0.00     0.014 A 
HETATM   26  C6  UNK     1      19.149  -1.063  17.421  1.00  0.00     0.037 A 
ENDBRANCH   3  16
TORSDOF 3
ENDMDL
