MODEL 1
REMARK VINA RESULT:      -9.6      0.000      0.000
REMARK  3 active torsions:
REMARK  status: ('A' for Active; 'I' for Inactive)
REMARK       I    between atoms: C11_15  and  N1_4 
REMARK    1  A    between atoms: C3_7  and  N1_4 
REMARK    2  A    between atoms: C1_5  and  C2_6 
REMARK    3  A    between atoms: C11_15  and  C9_13 
ROOT
HETATM    1  O2  UNK     1      18.665   4.923  30.197  1.00  0.00    -0.267 OA
HETATM    2  N1  UNK     1      17.525   4.810  32.256  1.00  0.00    -0.322 N 
HETATM    3  C11 UNK     1      18.272   4.319  31.194  1.00  0.00     0.262 C 
HETATM    4  H9  UNK     1      17.408   4.185  33.042  1.00  0.00     0.169 HD
ENDROOT
BRANCH   3   5
HETATM    5  C9  UNK     1      18.591   2.895  31.354  1.00  0.00     0.108 A 
HETATM    6  C13 UNK     1      19.102   2.279  30.282  1.00  0.00     0.037 A 
HETATM    7  C12 UNK     1      19.451   0.868  30.343  1.00  0.00    -0.001 A 
HETATM    8  C16 UNK     1      19.987   0.184  29.249  1.00  0.00     0.014 A 
HETATM    9  C14 UNK     1      19.244   0.174  31.532  1.00  0.00     0.089 A 
HETATM   10  C18 UNK     1      20.305  -1.172  29.359  1.00  0.00     0.001 A 
HETATM   11  C19 UNK     1      20.090  -1.851  30.560  1.00  0.00     0.003 A 
HETATM   12  C17 UNK     1      19.555  -1.178  31.656  1.00  0.00     0.038 A 
HETATM   13  O1  UNK     1      18.705   0.829  32.658  1.00  0.00    -0.274 OA
HETATM   14  C15 UNK     1      18.363   2.177  32.629  1.00  0.00     0.304 A 
HETATM   15  O3  UNK     1      17.894   2.738  33.614  1.00  0.00    -0.259 OA
ENDBRANCH   3   5
BRANCH   2  16
HETATM   16  C3  UNK     1      17.043   6.130  32.434  1.00  0.00     0.041 A 
HETATM   17  C2  UNK     1      17.760   7.036  33.199  1.00  0.00    -0.028 A 
HETATM   18  C6  UNK     1      17.269   8.331  33.362  1.00  0.00     0.010 A 
HETATM   19  C8  UNK     1      16.068   8.704  32.759  1.00  0.00     0.001 A 
HETATM   20  C10 UNK     1      15.358   7.780  31.991  1.00  0.00     0.002 A 
HETATM   21  C7  UNK     1      15.848   6.485  31.828  1.00  0.00     0.030 A 
BRANCH  17  22
HETATM   22  C1  UNK     1      19.050   6.665  33.856  1.00  0.00     0.013 C 
HETATM   23  C4  UNK     1      19.342   7.526  35.099  1.00  0.00     0.015 C 
HETATM   24  C5  UNK     1      20.242   6.726  32.884  1.00  0.00     0.015 C 
ENDBRANCH  17  22
ENDBRANCH   2  16
TORSDOF 3
ENDMDL
MODEL 2
REMARK VINA RESULT:      -9.3      7.034     11.744
REMARK  3 active torsions:
REMARK  status: ('A' for Active; 'I' for Inactive)
REMARK       I    between atoms: C11_15  and  N1_4 
REMARK    1  A    between atoms: C3_7  and  N1_4 
REMARK    2  A    between atoms: C1_5  and  C2_6 
REMARK    3  A    between atoms: C11_15  and  C9_13 
ROOT
HETATM    1  O2  UNK     1      21.528  -4.273  37.108  1.00  0.00    -0.267 OA
HETATM    2  N1  UNK     1      19.287  -4.956  37.352  1.00  0.00    -0.322 N 
HETATM    3  C11 UNK     1      20.316  -4.075  37.049  1.00  0.00     0.262 C 
HETATM    4  H9  UNK     1      18.353  -4.644  37.119  1.00  0.00     0.169 HD
ENDROOT
BRANCH   3   5
HETATM    5  C9  UNK     1      19.813  -2.767  36.611  1.00  0.00     0.108 A 
HETATM    6  C13 UNK     1      19.074  -2.091  37.498  1.00  0.00     0.037 A 
HETATM    7  C12 UNK     1      18.531  -0.785  37.157  1.00  0.00    -0.001 A 
HETATM    8  C16 UNK     1      17.754  -0.044  38.052  1.00  0.00     0.014 A 
HETATM    9  C14 UNK     1      18.793  -0.255  35.898  1.00  0.00     0.089 A 
HETATM   10  C18 UNK     1      17.256   1.207  37.675  1.00  0.00     0.001 A 
HETATM   11  C19 UNK     1      17.529   1.722  36.407  1.00  0.00     0.003 A 
HETATM   12  C17 UNK     1      18.302   0.989  35.508  1.00  0.00     0.038 A 
HETATM   13  O1  UNK     1      19.572  -0.972  34.968  1.00  0.00    -0.274 OA
HETATM   14  C15 UNK     1      20.105  -2.222  35.266  1.00  0.00     0.304 A 
HETATM   15  O3  UNK     1      20.782  -2.840  34.450  1.00  0.00    -0.259 OA
ENDBRANCH   3   5
BRANCH   2  16
HETATM   16  C3  UNK     1      19.401  -6.294  37.802  1.00  0.00     0.041 A 
HETATM   17  C2  UNK     1      19.070  -7.343  36.959  1.00  0.00    -0.028 A 
HETATM   18  C6  UNK     1      19.189  -8.653  37.421  1.00  0.00     0.010 A 
HETATM   19  C8  UNK     1      19.639  -8.899  38.718  1.00  0.00     0.001 A 
HETATM   20  C10 UNK     1      19.969  -7.832  39.555  1.00  0.00     0.002 A 
HETATM   21  C7  UNK     1      19.849  -6.521  39.094  1.00  0.00     0.030 A 
BRANCH  17  22
HETATM   22  C1  UNK     1      18.587  -7.110  35.564  1.00  0.00     0.013 C 
HETATM   23  C4  UNK     1      17.309  -7.908  35.247  1.00  0.00     0.015 C 
HETATM   24  C5  UNK     1      19.668  -7.412  34.512  1.00  0.00     0.015 C 
ENDBRANCH  17  22
ENDBRANCH   2  16
TORSDOF 3
ENDMDL
MODEL 3
REMARK VINA RESULT:      -8.9      3.532      7.162
REMARK  3 active torsions:
REMARK  status: ('A' for Active; 'I' for Inactive)
REMARK       I    between atoms: C11_15  and  N1_4 
REMARK    1  A    between atoms: C3_7  and  N1_4 
REMARK    2  A    between atoms: C1_5  and  C2_6 
REMARK    3  A    between atoms: C11_15  and  C9_13 
ROOT
HETATM    1  O2  UNK     1      17.874  -0.920  32.673  1.00  0.00    -0.267 OA
HETATM    2  N1  UNK     1      18.960   0.239  34.412  1.00  0.00    -0.322 N 
HETATM    3  C11 UNK     1      18.428   0.073  33.141  1.00  0.00     0.262 C 
HETATM    4  H9  UNK     1      19.263   1.176  34.647  1.00  0.00     0.169 HD
ENDROOT
BRANCH   3   5
HETATM    5  C9  UNK     1      18.586   1.276  32.313  1.00  0.00     0.108 A 
HETATM    6  C13 UNK     1      18.222   2.434  32.878  1.00  0.00     0.037 A 
HETATM    7  C12 UNK     1      18.342   3.680  32.137  1.00  0.00    -0.001 A 
HETATM    8  C16 UNK     1      17.975   4.911  32.686  1.00  0.00     0.014 A 
HETATM    9  C14 UNK     1      18.838   3.646  30.838  1.00  0.00     0.089 A 
HETATM   10  C18 UNK     1      18.109   6.081  31.933  1.00  0.00     0.001 A 
HETATM   11  C19 UNK     1      18.609   6.027  30.630  1.00  0.00     0.003 A 
HETATM   12  C17 UNK     1      18.977   4.803  30.074  1.00  0.00     0.038 A 
HETATM   13  O1  UNK     1      19.220   2.424  30.249  1.00  0.00    -0.274 OA
HETATM   14  C15 UNK     1      19.117   1.216  30.933  1.00  0.00     0.304 A 
HETATM   15  O3  UNK     1      19.451   0.157  30.412  1.00  0.00    -0.259 OA
ENDBRANCH   3   5
BRANCH   2  16
HETATM   16  C3  UNK     1      18.985  -0.705  35.467  1.00  0.00     0.041 A 
HETATM   17  C2  UNK     1      18.255  -0.477  36.623  1.00  0.00    -0.028 A 
HETATM   18  C6  UNK     1      18.293  -1.420  37.650  1.00  0.00     0.010 A 
HETATM   19  C8  UNK     1      19.059  -2.576  37.510  1.00  0.00     0.001 A 
HETATM   20  C10 UNK     1      19.789  -2.791  36.340  1.00  0.00     0.002 A 
HETATM   21  C7  UNK     1      19.752  -1.849  35.312  1.00  0.00     0.030 A 
BRANCH  17  22
HETATM   22  C1  UNK     1      17.424   0.752  36.801  1.00  0.00     0.013 C 
HETATM   23  C4  UNK     1      17.517   1.319  38.229  1.00  0.00     0.015 C 
HETATM   24  C5  UNK     1      15.951   0.524  36.422  1.00  0.00     0.015 C 
ENDBRANCH  17  22
ENDBRANCH   2  16
TORSDOF 3
ENDMDL
MODEL 4
REMARK VINA RESULT:      -8.8      1.341      2.187
REMARK  3 active torsions:
REMARK  status: ('A' for Active; 'I' for Inactive)
REMARK       I    between atoms: C11_15  and  N1_4 
REMARK    1  A    between atoms: C3_7  and  N1_4 
REMARK    2  A    between atoms: C1_5  and  C2_6 
REMARK    3  A    between atoms: C11_15  and  C9_13 
ROOT
HETATM    1  O2  UNK     1      17.630   3.287  32.823  1.00  0.00    -0.267 OA
HETATM    2  N1  UNK     1      18.392   4.782  31.170  1.00  0.00    -0.322 N 
HETATM    3  C11 UNK     1      18.154   3.539  31.739  1.00  0.00     0.262 C 
HETATM    4  H9  UNK     1      18.721   4.777  30.213  1.00  0.00     0.169 HD
ENDROOT
BRANCH   3   5
HETATM    5  C9  UNK     1      18.613   2.440  30.879  1.00  0.00     0.108 A 
HETATM    6  C13 UNK     1      19.078   1.353  31.507  1.00  0.00     0.037 A 
HETATM    7  C12 UNK     1      19.555   0.213  30.741  1.00  0.00    -0.001 A 
HETATM    8  C16 UNK     1      20.048  -0.943  31.354  1.00  0.00     0.014 A 
HETATM    9  C14 UNK     1      19.520   0.272  29.351  1.00  0.00     0.089 A 
HETATM   10  C18 UNK     1      20.495  -2.012  30.572  1.00  0.00     0.001 A 
HETATM   11  C19 UNK     1      20.453  -1.933  29.179  1.00  0.00     0.003 A 
HETATM   12  C17 UNK     1      19.963  -0.785  28.560  1.00  0.00     0.038 A 
HETATM   13  O1  UNK     1      19.030   1.420  28.696  1.00  0.00    -0.274 OA
HETATM   14  C15 UNK     1      18.566   2.526  29.402  1.00  0.00     0.304 A 
HETATM   15  O3  UNK     1      18.142   3.521  28.824  1.00  0.00    -0.259 OA
ENDBRANCH   3   5
BRANCH   2  16
HETATM   16  C3  UNK     1      18.082   6.053  31.713  1.00  0.00     0.041 A 
HETATM   17  C2  UNK     1      18.903   6.618  32.676  1.00  0.00    -0.028 A 
HETATM   18  C6  UNK     1      18.581   7.870  33.198  1.00  0.00     0.010 A 
HETATM   19  C8  UNK     1      17.444   8.542  32.751  1.00  0.00     0.001 A 
HETATM   20  C10 UNK     1      16.627   7.961  31.781  1.00  0.00     0.002 A 
HETATM   21  C7  UNK     1      16.948   6.707  31.258  1.00  0.00     0.030 A 
BRANCH  17  22
HETATM   22  C1  UNK     1      20.129   5.922  33.173  1.00  0.00     0.013 C 
HETATM   23  C4  UNK     1      20.117   5.736  34.701  1.00  0.00     0.015 C 
HETATM   24  C5  UNK     1      21.423   6.635  32.742  1.00  0.00     0.015 C 
ENDBRANCH  17  22
ENDBRANCH   2  16
TORSDOF 3
ENDMDL
MODEL 5
REMARK VINA RESULT:      -8.7      7.390     10.189
REMARK  3 active torsions:
REMARK  status: ('A' for Active; 'I' for Inactive)
REMARK       I    between atoms: C11_15  and  N1_4 
REMARK    1  A    between atoms: C3_7  and  N1_4 
REMARK    2  A    between atoms: C1_5  and  C2_6 
REMARK    3  A    between atoms: C11_15  and  C9_13 
ROOT
HETATM    1  O2  UNK     1      21.017  -3.506  37.672  1.00  0.00    -0.267 OA
HETATM    2  N1  UNK     1      18.910  -3.469  36.619  1.00  0.00    -0.322 N 
HETATM    3  C11 UNK     1      20.052  -4.058  37.146  1.00  0.00     0.262 C 
HETATM    4  H9  UNK     1      18.172  -4.103  36.343  1.00  0.00     0.169 HD
ENDROOT
BRANCH   3   5
HETATM    5  C9  UNK     1      20.027  -5.521  37.022  1.00  0.00     0.108 A 
HETATM    6  C13 UNK     1      19.922  -6.209  38.165  1.00  0.00     0.037 A 
HETATM    7  C12 UNK     1      19.890  -7.663  38.145  1.00  0.00    -0.001 A 
HETATM    8  C16 UNK     1      19.781  -8.422  39.313  1.00  0.00     0.014 A 
HETATM    9  C14 UNK     1      19.970  -8.322  36.922  1.00  0.00     0.089 A 
HETATM   10  C18 UNK     1      19.755  -9.818  39.240  1.00  0.00     0.001 A 
HETATM   11  C19 UNK     1      19.837 -10.461  38.003  1.00  0.00     0.003 A 
HETATM   12  C17 UNK     1      19.946  -9.711  36.833  1.00  0.00     0.038 A 
HETATM   13  O1  UNK     1      20.081  -7.591  35.721  1.00  0.00    -0.274 OA
HETATM   14  C15 UNK     1      20.114  -6.200  35.709  1.00  0.00     0.304 A 
HETATM   15  O3  UNK     1      20.211  -5.572  34.660  1.00  0.00    -0.259 OA
ENDBRANCH   3   5
BRANCH   2  16
HETATM   16  C3  UNK     1      18.596  -2.089  36.567  1.00  0.00     0.041 A 
HETATM   17  C2  UNK     1      18.803  -1.371  35.400  1.00  0.00    -0.028 A 
HETATM   18  C6  UNK     1      18.487  -0.013  35.370  1.00  0.00     0.010 A 
HETATM   19  C8  UNK     1      17.969   0.609  36.505  1.00  0.00     0.001 A 
HETATM   20  C10 UNK     1      17.766  -0.127  37.673  1.00  0.00     0.002 A 
HETATM   21  C7  UNK     1      18.083  -1.486  37.704  1.00  0.00     0.030 A 
BRANCH  17  22
HETATM   22  C1  UNK     1      19.355  -2.012  34.168  1.00  0.00     0.013 C 
HETATM   23  C4  UNK     1      20.890  -2.129  34.208  1.00  0.00     0.015 C 
HETATM   24  C5  UNK     1      18.919  -1.286  32.884  1.00  0.00     0.015 C 
ENDBRANCH  17  22
ENDBRANCH   2  16
TORSDOF 3
ENDMDL
MODEL 6
REMARK VINA RESULT:      -8.7     15.016     19.147
REMARK  3 active torsions:
REMARK  status: ('A' for Active; 'I' for Inactive)
REMARK       I    between atoms: C11_15  and  N1_4 
REMARK    1  A    between atoms: C3_7  and  N1_4 
REMARK    2  A    between atoms: C1_5  and  C2_6 
REMARK    3  A    between atoms: C11_15  and  C9_13 
ROOT
HETATM    1  O2  UNK     1      17.831  -3.267  15.778  1.00  0.00    -0.267 OA
HETATM    2  N1  UNK     1      20.002  -3.043  14.891  1.00  0.00    -0.322 N 
HETATM    3  C11 UNK     1      18.856  -2.625  15.554  1.00  0.00     0.262 C 
HETATM    4  H9  UNK     1      20.788  -2.407  14.919  1.00  0.00     0.169 HD
ENDROOT
BRANCH   3   5
HETATM    5  C9  UNK     1      18.960  -1.234  16.014  1.00  0.00     0.108 A 
HETATM    6  C13 UNK     1      18.771  -1.029  17.323  1.00  0.00     0.037 A 
HETATM    7  C12 UNK     1      18.855   0.314  17.874  1.00  0.00    -0.001 A 
HETATM    8  C16 UNK     1      18.665   0.575  19.233  1.00  0.00     0.014 A 
HETATM    9  C14 UNK     1      19.132   1.377  17.019  1.00  0.00     0.089 A 
HETATM   10  C18 UNK     1      18.755   1.885  19.713  1.00  0.00     0.001 A 
HETATM   11  C19 UNK     1      19.034   2.938  18.840  1.00  0.00     0.003 A 
HETATM   12  C17 UNK     1      19.224   2.687  17.483  1.00  0.00     0.038 A 
HETATM   13  O1  UNK     1      19.330   1.154  15.642  1.00  0.00    -0.274 OA
HETATM   14  C15 UNK     1      19.257  -0.120  15.086  1.00  0.00     0.304 A 
HETATM   15  O3  UNK     1      19.429  -0.304  13.886  1.00  0.00    -0.259 OA
ENDBRANCH   3   5
BRANCH   2  16
HETATM   16  C3  UNK     1      20.251  -4.314  14.318  1.00  0.00     0.041 A 
HETATM   17  C2  UNK     1      20.073  -4.511  12.958  1.00  0.00    -0.028 A 
HETATM   18  C6  UNK     1      20.324  -5.770  12.412  1.00  0.00     0.010 A 
HETATM   19  C8  UNK     1      20.750  -6.815  13.232  1.00  0.00     0.001 A 
HETATM   20  C10 UNK     1      20.925  -6.600  14.599  1.00  0.00     0.002 A 
HETATM   21  C7  UNK     1      20.674  -5.341  15.146  1.00  0.00     0.030 A 
BRANCH  17  22
HETATM   22  C1  UNK     1      19.619  -3.411  12.054  1.00  0.00     0.013 C 
HETATM   23  C4  UNK     1      18.880  -3.941  10.812  1.00  0.00     0.015 C 
HETATM   24  C5  UNK     1      20.775  -2.491  11.624  1.00  0.00     0.015 C 
ENDBRANCH  17  22
ENDBRANCH   2  16
TORSDOF 3
ENDMDL
MODEL 7
REMARK VINA RESULT:      -8.6     13.950     17.912
REMARK  3 active torsions:
REMARK  status: ('A' for Active; 'I' for Inactive)
REMARK       I    between atoms: C11_15  and  N1_4 
REMARK    1  A    between atoms: C3_7  and  N1_4 
REMARK    2  A    between atoms: C1_5  and  C2_6 
REMARK    3  A    between atoms: C11_15  and  C9_13 
ROOT
HETATM    1  O2  UNK     1      17.665  -2.076  15.906  1.00  0.00    -0.267 OA
HETATM    2  N1  UNK     1      19.724  -1.554  14.890  1.00  0.00    -0.322 N 
HETATM    3  C11 UNK     1      18.703  -1.421  15.820  1.00  0.00     0.262 C 
HETATM    4  H9  UNK     1      20.555  -1.003  15.063  1.00  0.00     0.169 HD
ENDROOT
BRANCH   3   5
HETATM    5  C9  UNK     1      18.969  -0.347  16.785  1.00  0.00     0.108 A 
HETATM    6  C13 UNK     1      18.956  -0.697  18.077  1.00  0.00     0.037 A 
HETATM    7  C12 UNK     1      19.210   0.297  19.108  1.00  0.00    -0.001 A 
HETATM    8  C16 UNK     1      19.207  -0.023  20.468  1.00  0.00     0.014 A 
HETATM    9  C14 UNK     1      19.463   1.612  18.729  1.00  0.00     0.089 A 
HETATM   10  C18 UNK     1      19.455   0.970  21.421  1.00  0.00     0.001 A 
HETATM   11  C19 UNK     1      19.707   2.283  21.020  1.00  0.00     0.003 A 
HETATM   12  C17 UNK     1      19.711   2.611  19.666  1.00  0.00     0.038 A 
HETATM   13  O1  UNK     1      19.474   1.974  17.367  1.00  0.00    -0.274 OA
HETATM   14  C15 UNK     1      19.236   1.045  16.358  1.00  0.00     0.304 A 
HETATM   15  O3  UNK     1      19.248   1.369  15.175  1.00  0.00    -0.259 OA
ENDBRANCH   3   5
BRANCH   2  16
HETATM   16  C3  UNK     1      19.804  -2.479  13.821  1.00  0.00     0.041 A 
HETATM   17  C2  UNK     1      20.136  -3.802  14.068  1.00  0.00    -0.028 A 
HETATM   18  C6  UNK     1      20.209  -4.698  13.002  1.00  0.00     0.010 A 
HETATM   19  C8  UNK     1      19.949  -4.261  11.704  1.00  0.00     0.001 A 
HETATM   20  C10 UNK     1      19.616  -2.927  11.471  1.00  0.00     0.002 A 
HETATM   21  C7  UNK     1      19.543  -2.030  12.537  1.00  0.00     0.030 A 
BRANCH  17  22
HETATM   22  C1  UNK     1      20.418  -4.299  15.449  1.00  0.00     0.013 C 
HETATM   23  C4  UNK     1      21.907  -4.174  15.823  1.00  0.00     0.015 C 
HETATM   24  C5  UNK     1      19.944  -5.747  15.660  1.00  0.00     0.015 C 
ENDBRANCH  17  22
ENDBRANCH   2  16
TORSDOF 3
ENDMDL
MODEL 8
REMARK VINA RESULT:      -8.6      2.585      4.252
REMARK  3 active torsions:
REMARK  status: ('A' for Active; 'I' for Inactive)
REMARK       I    between atoms: C11_15  and  N1_4 
REMARK    1  A    between atoms: C3_7  and  N1_4 
REMARK    2  A    between atoms: C1_5  and  C2_6 
REMARK    3  A    between atoms: C11_15  and  C9_13 
ROOT
HETATM    1  O2  UNK     1      19.107   5.086  32.190  1.00  0.00    -0.267 OA
HETATM    2  N1  UNK     1      18.111   5.787  34.207  1.00  0.00    -0.322 N 
HETATM    3  C11 UNK     1      18.553   4.866  33.266  1.00  0.00     0.262 C 
HETATM    4  H9  UNK     1      17.793   5.404  35.087  1.00  0.00     0.169 HD
ENDROOT
BRANCH   3   5
HETATM    5  C9  UNK     1      18.291   3.483  33.681  1.00  0.00     0.108 A 
HETATM    6  C13 UNK     1      18.359   3.237  34.995  1.00  0.00     0.037 A 
HETATM    7  C12 UNK     1      18.114   1.896  35.504  1.00  0.00    -0.001 A 
HETATM    8  C16 UNK     1      18.174   1.594  36.866  1.00  0.00     0.014 A 
HETATM    9  C14 UNK     1      17.811   0.879  34.603  1.00  0.00     0.089 A 
HETATM   10  C18 UNK     1      17.931   0.289  37.304  1.00  0.00     0.001 A 
HETATM   11  C19 UNK     1      17.628  -0.718  36.386  1.00  0.00     0.003 A 
HETATM   12  C17 UNK     1      17.567  -0.426  35.025  1.00  0.00     0.038 A 
HETATM   13  O1  UNK     1      17.741   1.145  33.221  1.00  0.00    -0.274 OA
HETATM   14  C15 UNK     1      17.970   2.417  32.705  1.00  0.00     0.304 A 
HETATM   15  O3  UNK     1      17.907   2.639  31.501  1.00  0.00    -0.259 OA
ENDBRANCH   3   5
BRANCH   2  16
HETATM   16  C3  UNK     1      18.199   7.199  34.139  1.00  0.00     0.041 A 
HETATM   17  C2  UNK     1      17.083   7.951  33.809  1.00  0.00    -0.028 A 
HETATM   18  C6  UNK     1      17.189   9.340  33.747  1.00  0.00     0.010 A 
HETATM   19  C8  UNK     1      18.409   9.960  34.017  1.00  0.00     0.001 A 
HETATM   20  C10 UNK     1      19.524   9.189  34.349  1.00  0.00     0.002 A 
HETATM   21  C7  UNK     1      19.418   7.799  34.410  1.00  0.00     0.030 A 
BRANCH  17  22
HETATM   22  C1  UNK     1      15.763   7.315  33.515  1.00  0.00     0.013 C 
HETATM   23  C4  UNK     1      15.592   6.984  32.021  1.00  0.00     0.015 C 
HETATM   24  C5  UNK     1      14.579   8.169  34.002  1.00  0.00     0.015 C 
ENDBRANCH  17  22
ENDBRANCH   2  16
TORSDOF 3
ENDMDL
MODEL 9
REMARK VINA RESULT:      -8.6      7.273     11.992
REMARK  3 active torsions:
REMARK  status: ('A' for Active; 'I' for Inactive)
REMARK       I    between atoms: C11_15  and  N1_4 
REMARK    1  A    between atoms: C3_7  and  N1_4 
REMARK    2  A    between atoms: C1_5  and  C2_6 
REMARK    3  A    between atoms: C11_15  and  C9_13 
ROOT
HETATM    1  O2  UNK     1      18.174  -5.585  36.678  1.00  0.00    -0.267 OA
HETATM    2  N1  UNK     1      20.480  -5.521  36.201  1.00  0.00    -0.322 N 
HETATM    3  C11 UNK     1      19.211  -4.990  36.389  1.00  0.00     0.262 C 
HETATM    4  H9  UNK     1      21.229  -4.850  36.092  1.00  0.00     0.169 HD
ENDROOT
BRANCH   3   5
HETATM    5  C9  UNK     1      19.187  -3.534  36.203  1.00  0.00     0.108 A 
HETATM    6  C13 UNK     1      18.472  -2.836  37.094  1.00  0.00     0.037 A 
HETATM    7  C12 UNK     1      18.389  -1.388  36.993  1.00  0.00    -0.001 A 
HETATM    8  C16 UNK     1      17.655  -0.619  37.900  1.00  0.00     0.014 A 
HETATM    9  C14 UNK     1      19.061  -0.744  35.958  1.00  0.00     0.089 A 
HETATM   10  C18 UNK     1      17.605   0.771  37.759  1.00  0.00     0.001 A 
HETATM   11  C19 UNK     1      18.287   1.399  36.714  1.00  0.00     0.003 A 
HETATM   12  C17 UNK     1      19.020   0.640  35.805  1.00  0.00     0.038 A 
HETATM   13  O1  UNK     1      19.812  -1.485  35.024  1.00  0.00    -0.274 OA
HETATM   14  C15 UNK     1      19.911  -2.871  35.095  1.00  0.00     0.304 A 
HETATM   15  O3  UNK     1      20.566  -3.508  34.276  1.00  0.00    -0.259 OA
ENDBRANCH   3   5
BRANCH   2  16
HETATM   16  C3  UNK     1      20.871  -6.878  36.300  1.00  0.00     0.041 A 
HETATM   17  C2  UNK     1      21.308  -7.391  37.511  1.00  0.00    -0.028 A 
HETATM   18  C6  UNK     1      21.689  -8.730  37.588  1.00  0.00     0.010 A 
HETATM   19  C8  UNK     1      21.627  -9.540  36.455  1.00  0.00     0.001 A 
HETATM   20  C10 UNK     1      21.184  -9.010  35.242  1.00  0.00     0.002 A 
HETATM   21  C7  UNK     1      20.804  -7.670  35.165  1.00  0.00     0.030 A 
BRANCH  17  22
HETATM   22  C1  UNK     1      21.383  -6.547  38.743  1.00  0.00     0.013 C 
HETATM   23  C4  UNK     1      22.614  -6.881  39.606  1.00  0.00     0.015 C 
HETATM   24  C5  UNK     1      20.105  -6.638  39.594  1.00  0.00     0.015 C 
ENDBRANCH  17  22
ENDBRANCH   2  16
TORSDOF 3
ENDMDL
MODEL 10
REMARK VINA RESULT:      -8.5     12.101     15.097
REMARK  3 active torsions:
REMARK  status: ('A' for Active; 'I' for Inactive)
REMARK       I    between atoms: C11_15  and  N1_4 
REMARK    1  A    between atoms: C3_7  and  N1_4 
REMARK    2  A    between atoms: C1_5  and  C2_6 
REMARK    3  A    between atoms: C11_15  and  C9_13 
ROOT
HETATM    1  O2  UNK     1      22.820  -8.598  40.157  1.00  0.00    -0.267 OA
HETATM    2  N1  UNK     1      22.526  -8.329  37.836  1.00  0.00    -0.322 N 
HETATM    3  C11 UNK     1      23.175  -8.185  39.054  1.00  0.00     0.262 C 
HETATM    4  H9  UNK     1      23.042  -8.026  37.020  1.00  0.00     0.169 HD
ENDROOT
BRANCH   3   5
HETATM    5  C9  UNK     1      24.432  -7.438  38.927  1.00  0.00     0.108 A 
HETATM    6  C13 UNK     1      25.553  -8.168  38.894  1.00  0.00     0.037 A 
HETATM    7  C12 UNK     1      26.848  -7.518  38.769  1.00  0.00    -0.001 A 
HETATM    8  C16 UNK     1      28.044  -8.240  38.730  1.00  0.00     0.014 A 
HETATM    9  C14 UNK     1      26.900  -6.130  38.685  1.00  0.00     0.089 A 
HETATM   10  C18 UNK     1      29.264  -7.567  38.609  1.00  0.00     0.001 A 
HETATM   11  C19 UNK     1      29.295  -6.173  38.527  1.00  0.00     0.003 A 
HETATM   12  C17 UNK     1      28.107  -5.445  38.565  1.00  0.00     0.038 A 
HETATM   13  O1  UNK     1      25.716  -5.366  38.721  1.00  0.00    -0.274 OA
HETATM   14  C15 UNK     1      24.463  -5.960  38.839  1.00  0.00     0.304 A 
HETATM   15  O3  UNK     1      23.437  -5.288  38.870  1.00  0.00    -0.259 OA
ENDBRANCH   3   5
BRANCH   2  16
HETATM   16  C3  UNK     1      21.298  -8.988  37.585  1.00  0.00     0.041 A 
HETATM   17  C2  UNK     1      20.115  -8.267  37.547  1.00  0.00    -0.028 A 
HETATM   18  C6  UNK     1      18.916  -8.935  37.298  1.00  0.00     0.010 A 
HETATM   19  C8  UNK     1      18.915 -10.314  37.090  1.00  0.00     0.001 A 
HETATM   20  C10 UNK     1      20.114 -11.026  37.132  1.00  0.00     0.002 A 
HETATM   21  C7  UNK     1      21.313 -10.359  37.381  1.00  0.00     0.030 A 
BRANCH  17  22
HETATM   22  C1  UNK     1      20.086  -6.789  37.764  1.00  0.00     0.013 C 
HETATM   23  C4  UNK     1      19.962  -6.419  39.254  1.00  0.00     0.015 C 
HETATM   24  C5  UNK     1      18.971  -6.100  36.958  1.00  0.00     0.015 C 
ENDBRANCH  17  22
ENDBRANCH   2  16
TORSDOF 3
ENDMDL
