MODEL 1
REMARK VINA RESULT:      -6.5      0.000      0.000
REMARK  0 active torsions:
REMARK  status: ('A' for Active; 'I' for Inactive)
ROOT
HETATM    1 Br1  UNK     1      17.901   3.983  31.824  1.00  0.00    -0.045 Br
HETATM    2  F1  UNK     1      20.746  -3.207  31.279  1.00  0.00    -0.206 F 
HETATM    3  O1  UNK     1      19.239   1.473  28.818  1.00  0.00    -0.320 OA
HETATM    4  O2  UNK     1      18.843   1.214  32.874  1.00  0.00    -0.286 OA
HETATM    5  C1  UNK     1      19.490   0.180  30.859  1.00  0.00     0.052 A 
HETATM    6  C2  UNK     1      19.602   0.325  29.476  1.00  0.00     0.089 A 
HETATM    7  C3  UNK     1      19.876  -1.014  31.473  1.00  0.00     0.060 A 
HETATM    8  C4  UNK     1      18.959   1.300  31.660  1.00  0.00     0.204 A 
HETATM    9  C5  UNK     1      20.102  -0.722  28.701  1.00  0.00     0.041 A 
HETATM   10  C6  UNK     1      20.375  -2.060  30.696  1.00  0.00     0.117 A 
HETATM   11  C7  UNK     1      20.488  -1.915  29.312  1.00  0.00     0.045 A 
HETATM   12  C8  UNK     1      18.580   2.519  30.902  1.00  0.00     0.084 A 
HETATM   13  C9  UNK     1      18.747   2.509  29.574  1.00  0.00     0.165 A 
ENDROOT
TORSDOF 0
ENDMDL
MODEL 2
REMARK VINA RESULT:      -6.5     23.631     24.926
REMARK  0 active torsions:
REMARK  status: ('A' for Active; 'I' for Inactive)
ROOT
HETATM    1 Br1  UNK     1      15.056   6.080   9.958  1.00  0.00    -0.045 Br
HETATM    2  F1  UNK     1       7.598   5.711   7.879  1.00  0.00    -0.206 F 
HETATM    3  O1  UNK     1      12.829   6.744   6.535  1.00  0.00    -0.320 OA
HETATM    4  O2  UNK     1      12.016   5.583  10.364  1.00  0.00    -0.286 OA
HETATM    5  C1  UNK     1      11.202   6.074   8.209  1.00  0.00     0.052 A 
HETATM    6  C2  UNK     1      11.539   6.475   6.916  1.00  0.00     0.089 A 
HETATM    7  C3  UNK     1       9.869   5.815   8.540  1.00  0.00     0.060 A 
HETATM    8  C4  UNK     1      12.268   5.931   9.219  1.00  0.00     0.204 A 
HETATM    9  C5  UNK     1      10.545   6.617   5.947  1.00  0.00     0.041 A 
HETATM   10  C6  UNK     1       8.878   5.958   7.569  1.00  0.00     0.117 A 
HETATM   11  C7  UNK     1       9.214   6.358   6.274  1.00  0.00     0.045 A 
HETATM   12  C8  UNK     1      13.646   6.233   8.757  1.00  0.00     0.084 A 
HETATM   13  C9  UNK     1      13.813   6.606   7.483  1.00  0.00     0.165 A 
ENDROOT
TORSDOF 0
ENDMDL
MODEL 3
REMARK VINA RESULT:      -6.4      6.770      7.935
REMARK  0 active torsions:
REMARK  status: ('A' for Active; 'I' for Inactive)
ROOT
HETATM    1 Br1  UNK     1      14.428   9.496  33.638  1.00  0.00    -0.045 Br
HETATM    2  F1  UNK     1      19.939   5.720  29.707  1.00  0.00    -0.206 F 
HETATM    3  O1  UNK     1      17.972   7.545  34.507  1.00  0.00    -0.320 OA
HETATM    4  O2  UNK     1      15.825   8.324  31.122  1.00  0.00    -0.286 OA
HETATM    5  C1  UNK     1      17.732   7.345  32.098  1.00  0.00     0.052 A 
HETATM    6  C2  UNK     1      18.423   7.109  33.286  1.00  0.00     0.089 A 
HETATM    7  C3  UNK     1      18.242   6.877  30.884  1.00  0.00     0.060 A 
HETATM    8  C4  UNK     1      16.462   8.095  32.141  1.00  0.00     0.204 A 
HETATM    9  C5  UNK     1      19.627   6.402  33.267  1.00  0.00     0.041 A 
HETATM   10  C6  UNK     1      19.445   6.172  30.867  1.00  0.00     0.117 A 
HETATM   11  C7  UNK     1      20.137   5.934  32.057  1.00  0.00     0.045 A 
HETATM   12  C8  UNK     1      16.017   8.544  33.484  1.00  0.00     0.084 A 
HETATM   13  C9  UNK     1      16.788   8.241  34.534  1.00  0.00     0.165 A 
ENDROOT
TORSDOF 0
ENDMDL
MODEL 4
REMARK VINA RESULT:      -6.3     23.889     25.265
REMARK  0 active torsions:
REMARK  status: ('A' for Active; 'I' for Inactive)
ROOT
HETATM    1 Br1  UNK     1      15.365   6.163   9.230  1.00  0.00    -0.045 Br
HETATM    2  F1  UNK     1       9.009   6.821   4.842  1.00  0.00    -0.206 F 
HETATM    3  O1  UNK     1      11.294   5.584   9.688  1.00  0.00    -0.320 OA
HETATM    4  O2  UNK     1      13.746   6.779   6.650  1.00  0.00    -0.286 OA
HETATM    5  C1  UNK     1      11.557   6.318   7.388  1.00  0.00     0.052 A 
HETATM    6  C2  UNK     1      10.769   5.903   8.461  1.00  0.00     0.089 A 
HETATM    7  C3  UNK     1      10.966   6.629   6.161  1.00  0.00     0.060 A 
HETATM    8  C4  UNK     1      13.019   6.421   7.565  1.00  0.00     0.204 A 
HETATM    9  C5  UNK     1       9.385   5.800   8.314  1.00  0.00     0.041 A 
HETATM   10  C6  UNK     1       9.582   6.524   6.016  1.00  0.00     0.117 A 
HETATM   11  C7  UNK     1       8.792   6.110   7.090  1.00  0.00     0.045 A 
HETATM   12  C8  UNK     1      13.537   6.064   8.910  1.00  0.00     0.084 A 
HETATM   13  C9  UNK     1      12.655   5.684   9.842  1.00  0.00     0.165 A 
ENDROOT
TORSDOF 0
ENDMDL
MODEL 5
REMARK VINA RESULT:      -6.2      6.511      7.440
REMARK  0 active torsions:
REMARK  status: ('A' for Active; 'I' for Inactive)
ROOT
HETATM    1 Br1  UNK     1      15.123   9.430  33.980  1.00  0.00    -0.045 Br
HETATM    2  F1  UNK     1      21.809   5.841  32.401  1.00  0.00    -0.206 F 
HETATM    3  O1  UNK     1      16.746   7.298  30.827  1.00  0.00    -0.320 OA
HETATM    4  O2  UNK     1      18.016   8.442  34.536  1.00  0.00    -0.286 OA
HETATM    5  C1  UNK     1      18.489   7.321  32.519  1.00  0.00     0.052 A 
HETATM    6  C2  UNK     1      18.001   6.958  31.263  1.00  0.00     0.089 A 
HETATM    7  C3  UNK     1      19.777   6.945  32.908  1.00  0.00     0.060 A 
HETATM    8  C4  UNK     1      17.628   8.104  33.426  1.00  0.00     0.204 A 
HETATM    9  C5  UNK     1      18.800   6.217  30.391  1.00  0.00     0.041 A 
HETATM   10  C6  UNK     1      20.573   6.204  32.034  1.00  0.00     0.117 A 
HETATM   11  C7  UNK     1      20.086   5.841  30.777  1.00  0.00     0.045 A 
HETATM   12  C8  UNK     1      16.279   8.446  32.909  1.00  0.00     0.084 A 
HETATM   13  C9  UNK     1      15.953   8.027  31.681  1.00  0.00     0.165 A 
ENDROOT
TORSDOF 0
ENDMDL
MODEL 6
REMARK VINA RESULT:      -6.2      1.811      2.221
REMARK  0 active torsions:
REMARK  status: ('A' for Active; 'I' for Inactive)
ROOT
HETATM    1 Br1  UNK     1      17.655   1.286  35.129  1.00  0.00    -0.045 Br
HETATM    2  F1  UNK     1      21.064  -2.949  29.603  1.00  0.00    -0.206 F 
HETATM    3  O1  UNK     1      18.711   1.772  31.158  1.00  0.00    -0.320 OA
HETATM    4  O2  UNK     1      19.028  -1.224  33.915  1.00  0.00    -0.286 OA
HETATM    5  C1  UNK     1      19.427  -0.482  31.715  1.00  0.00     0.052 A 
HETATM    6  C2  UNK     1      19.291   0.576  30.816  1.00  0.00     0.089 A 
HETATM    7  C3  UNK     1      20.026  -1.677  31.309  1.00  0.00     0.060 A 
HETATM    8  C4  UNK     1      18.929  -0.321  33.095  1.00  0.00     0.204 A 
HETATM    9  C5  UNK     1      19.755   0.445  29.507  1.00  0.00     0.041 A 
HETATM   10  C6  UNK     1      20.488  -1.806  29.999  1.00  0.00     0.117 A 
HETATM   11  C7  UNK     1      20.353  -0.747  29.099  1.00  0.00     0.045 A 
HETATM   12  C8  UNK     1      18.311   0.990  33.415  1.00  0.00     0.084 A 
HETATM   13  C9  UNK     1      18.253   1.910  32.446  1.00  0.00     0.165 A 
ENDROOT
TORSDOF 0
ENDMDL
MODEL 7
REMARK VINA RESULT:      -6.1      2.568      3.627
REMARK  0 active torsions:
REMARK  status: ('A' for Active; 'I' for Inactive)
ROOT
HETATM    1 Br1  UNK     1      17.456   1.089  35.913  1.00  0.00    -0.045 Br
HETATM    2  F1  UNK     1      19.979   0.493  28.608  1.00  0.00    -0.206 F 
HETATM    3  O1  UNK     1      19.454  -1.714  33.618  1.00  0.00    -0.320 OA
HETATM    4  O2  UNK     1      17.927   2.020  32.986  1.00  0.00    -0.286 OA
HETATM    5  C1  UNK     1      19.059   0.149  32.110  1.00  0.00     0.052 A 
HETATM    6  C2  UNK     1      19.561  -1.123  32.384  1.00  0.00     0.089 A 
HETATM    7  C3  UNK     1      19.198   0.700  30.834  1.00  0.00     0.060 A 
HETATM    8  C4  UNK     1      18.382   0.902  33.184  1.00  0.00     0.204 A 
HETATM    9  C5  UNK     1      20.205  -1.851  31.382  1.00  0.00     0.041 A 
HETATM   10  C6  UNK     1      19.842  -0.029  29.834  1.00  0.00     0.117 A 
HETATM   11  C7  UNK     1      20.345  -1.303  30.108  1.00  0.00     0.045 A 
HETATM   12  C8  UNK     1      18.292   0.220  34.499  1.00  0.00     0.084 A 
HETATM   13  C9  UNK     1      18.822  -1.004  34.609  1.00  0.00     0.165 A 
ENDROOT
TORSDOF 0
ENDMDL
MODEL 8
REMARK VINA RESULT:      -6.0      4.299      5.752
REMARK  0 active torsions:
REMARK  status: ('A' for Active; 'I' for Inactive)
ROOT
HETATM    1 Br1  UNK     1      20.360  -1.574  30.057  1.00  0.00    -0.045 Br
HETATM    2  F1  UNK     1      17.081  -0.410  36.983  1.00  0.00    -0.206 F 
HETATM    3  O1  UNK     1      20.875  -2.955  33.923  1.00  0.00    -0.320 OA
HETATM    4  O2  UNK     1      18.355  -0.326  32.076  1.00  0.00    -0.286 OA
HETATM    5  C1  UNK     1      19.025  -1.387  34.069  1.00  0.00     0.052 A 
HETATM    6  C2  UNK     1      19.912  -2.296  34.646  1.00  0.00     0.089 A 
HETATM    7  C3  UNK     1      18.065  -0.747  34.856  1.00  0.00     0.060 A 
HETATM    8  C4  UNK     1      19.114  -1.115  32.621  1.00  0.00     0.204 A 
HETATM    9  C5  UNK     1      19.845  -2.568  36.013  1.00  0.00     0.041 A 
HETATM   10  C6  UNK     1      17.999  -1.021  36.223  1.00  0.00     0.117 A 
HETATM   11  C7  UNK     1      18.887  -1.930  36.801  1.00  0.00     0.045 A 
HETATM   12  C8  UNK     1      20.171  -1.852  31.885  1.00  0.00     0.084 A 
HETATM   13  C9  UNK     1      20.948  -2.693  32.576  1.00  0.00     0.165 A 
ENDROOT
TORSDOF 0
ENDMDL
MODEL 9
REMARK VINA RESULT:      -6.0      4.622      6.390
REMARK  0 active torsions:
REMARK  status: ('A' for Active; 'I' for Inactive)
ROOT
HETATM    1 Br1  UNK     1      18.736   1.365  29.508  1.00  0.00    -0.045 Br
HETATM    2  F1  UNK     1      17.315   6.706  34.942  1.00  0.00    -0.206 F 
HETATM    3  O1  UNK     1      18.855   5.490  29.806  1.00  0.00    -0.320 OA
HETATM    4  O2  UNK     1      17.913   2.410  32.316  1.00  0.00    -0.286 OA
HETATM    5  C1  UNK     1      18.131   4.734  31.998  1.00  0.00     0.052 A 
HETATM    6  C2  UNK     1      18.465   5.745  31.096  1.00  0.00     0.089 A 
HETATM    7  C3  UNK     1      17.742   5.055  33.301  1.00  0.00     0.060 A 
HETATM    8  C4  UNK     1      18.196   3.327  31.557  1.00  0.00     0.204 A 
HETATM    9  C5  UNK     1      18.410   7.082  31.493  1.00  0.00     0.041 A 
HETATM   10  C6  UNK     1      17.688   6.392  33.695  1.00  0.00     0.117 A 
HETATM   11  C7  UNK     1      18.021   7.404  32.793  1.00  0.00     0.045 A 
HETATM   12  C8  UNK     1      18.623   3.104  30.153  1.00  0.00     0.084 A 
HETATM   13  C9  UNK     1      18.911   4.177  29.407  1.00  0.00     0.165 A 
ENDROOT
TORSDOF 0
ENDMDL
MODEL 10
REMARK VINA RESULT:      -6.0      2.840      3.776
REMARK  0 active torsions:
REMARK  status: ('A' for Active; 'I' for Inactive)
ROOT
HETATM    1 Br1  UNK     1      18.700  -1.901  35.872  1.00  0.00    -0.045 Br
HETATM    2  F1  UNK     1      21.291  -1.041  28.617  1.00  0.00    -0.206 F 
HETATM    3  O1  UNK     1      18.263   0.841  32.804  1.00  0.00    -0.320 OA
HETATM    4  O2  UNK     1      20.298  -2.662  33.318  1.00  0.00    -0.286 OA
HETATM    5  C1  UNK     1      19.749  -0.858  31.906  1.00  0.00     0.052 A 
HETATM    6  C2  UNK     1      19.032   0.332  31.787  1.00  0.00     0.089 A 
HETATM    7  C3  UNK     1      20.514  -1.327  30.835  1.00  0.00     0.060 A 
HETATM    8  C4  UNK     1      19.686  -1.613  33.173  1.00  0.00     0.204 A 
HETATM    9  C5  UNK     1      19.078   1.061  30.598  1.00  0.00     0.041 A 
HETATM   10  C6  UNK     1      20.558  -0.598  29.647  1.00  0.00     0.117 A 
HETATM   11  C7  UNK     1      19.842   0.595  29.528  1.00  0.00     0.045 A 
HETATM   12  C8  UNK     1      18.841  -1.022  34.241  1.00  0.00     0.084 A 
HETATM   13  C9  UNK     1      18.213   0.130  33.978  1.00  0.00     0.165 A 
ENDROOT
TORSDOF 0
ENDMDL
