MODEL 1
REMARK VINA RESULT:      -7.8      0.000      0.000
REMARK  2 active torsions:
REMARK  status: ('A' for Active; 'I' for Inactive)
REMARK    1  A    between atoms: C8_11  and  O2_2 
REMARK    2  A    between atoms: C2_5  and  C4_7 
ROOT
HETATM    1  O1  UNK     1      18.538   1.075  33.102  1.00  0.00    -0.275 OA
HETATM    2  O3  UNK     1      18.284   1.303  35.362  1.00  0.00    -0.260 OA
HETATM    3  C1  UNK     1      18.484   3.066  31.694  1.00  0.00     0.009 A 
HETATM    4  C2  UNK     1      18.279   3.894  32.893  1.00  0.00    -0.007 A 
HETATM    5  C3  UNK     1      18.606   1.685  31.835  1.00  0.00     0.093 A 
HETATM    6  C5  UNK     1      18.563   3.605  30.405  1.00  0.00     0.018 A 
HETATM    7  C6  UNK     1      18.218   3.281  34.087  1.00  0.00     0.095 A 
HETATM    8  C7  UNK     1      18.802   0.843  30.740  1.00  0.00     0.075 A 
HETATM    9  C8  UNK     1      18.878   1.394  29.465  1.00  0.00     0.070 A 
HETATM   10  C9  UNK     1      18.759   2.774  29.297  1.00  0.00     0.038 A 
HETATM   11  C12 UNK     1      18.347   1.822  34.254  1.00  0.00     0.289 A 
ENDROOT
BRANCH   4  12
HETATM   12  C4  UNK     1      18.132   5.347  32.921  1.00  0.00    -0.025 A 
HETATM   13  C10 UNK     1      19.178   6.140  33.383  1.00  0.00     0.012 A 
HETATM   14  C13 UNK     1      19.038   7.527  33.411  1.00  0.00     0.001 A 
HETATM   15  C15 UNK     1      17.851   8.116  32.977  1.00  0.00     0.000 A 
HETATM   16  C14 UNK     1      16.804   7.319  32.515  1.00  0.00     0.001 A 
HETATM   17  C11 UNK     1      16.945   5.930  32.487  1.00  0.00     0.012 A 
ENDBRANCH   4  12
BRANCH   9  18
HETATM   18  O2  UNK     1      19.068   0.590  28.384  1.00  0.00    -0.356 OA
HETATM   19  C16 UNK     1      19.854  -0.585  28.578  1.00  0.00     0.210 C 
ENDBRANCH   9  18
TORSDOF 2
ENDMDL
MODEL 2
REMARK VINA RESULT:      -7.8      4.888      5.654
REMARK  2 active torsions:
REMARK  status: ('A' for Active; 'I' for Inactive)
REMARK    1  A    between atoms: C8_11  and  O2_2 
REMARK    2  A    between atoms: C2_5  and  C4_7 
ROOT
HETATM    1  O1  UNK     1      20.695  -3.225  34.414  1.00  0.00    -0.275 OA
HETATM    2  O3  UNK     1      20.698  -4.062  36.541  1.00  0.00    -0.260 OA
HETATM    3  C1  UNK     1      19.227  -1.353  33.876  1.00  0.00     0.009 A 
HETATM    4  C2  UNK     1      18.742  -1.349  35.265  1.00  0.00    -0.007 A 
HETATM    5  C3  UNK     1      20.186  -2.289  33.493  1.00  0.00     0.093 A 
HETATM    6  C5  UNK     1      18.766  -0.452  32.908  1.00  0.00     0.018 A 
HETATM    7  C6  UNK     1      19.248  -2.256  36.118  1.00  0.00     0.095 A 
HETATM    8  C7  UNK     1      20.689  -2.347  32.193  1.00  0.00     0.075 A 
HETATM    9  C8  UNK     1      20.220  -1.444  31.244  1.00  0.00     0.070 A 
HETATM   10  C9  UNK     1      19.260  -0.498  31.600  1.00  0.00     0.038 A 
HETATM   11  C12 UNK     1      20.264  -3.251  35.731  1.00  0.00     0.289 A 
ENDROOT
BRANCH   4  12
HETATM   12  C4  UNK     1      17.745  -0.442  35.825  1.00  0.00    -0.025 A 
HETATM   13  C10 UNK     1      18.125   0.503  36.775  1.00  0.00     0.012 A 
HETATM   14  C13 UNK     1      17.173   1.369  37.312  1.00  0.00     0.001 A 
HETATM   15  C15 UNK     1      15.844   1.287  36.897  1.00  0.00     0.000 A 
HETATM   16  C14 UNK     1      15.466   0.339  35.947  1.00  0.00     0.001 A 
HETATM   17  C11 UNK     1      16.419  -0.528  35.409  1.00  0.00     0.012 A 
ENDBRANCH   4  12
BRANCH   9  18
HETATM   18  O2  UNK     1      20.696  -1.485  29.970  1.00  0.00    -0.356 OA
HETATM   19  C16 UNK     1      20.338  -0.406  29.107  1.00  0.00     0.210 C 
ENDBRANCH   9  18
TORSDOF 2
ENDMDL
MODEL 3
REMARK VINA RESULT:      -7.8     22.611     24.441
REMARK  2 active torsions:
REMARK  status: ('A' for Active; 'I' for Inactive)
REMARK    1  A    between atoms: C8_11  and  O2_2 
REMARK    2  A    between atoms: C2_5  and  C4_7 
ROOT
HETATM    1  O1  UNK     1      15.997   6.078   9.970  1.00  0.00    -0.275 OA
HETATM    2  O3  UNK     1      15.751   3.807   9.880  1.00  0.00    -0.260 OA
HETATM    3  C1  UNK     1      14.252   7.500   9.031  1.00  0.00     0.009 A 
HETATM    4  C2  UNK     1      13.492   6.298   8.654  1.00  0.00    -0.007 A 
HETATM    5  C3  UNK     1      15.479   7.353   9.676  1.00  0.00     0.093 A 
HETATM    6  C5  UNK     1      13.798   8.798   8.771  1.00  0.00     0.018 A 
HETATM    7  C6  UNK     1      14.015   5.096   8.948  1.00  0.00     0.095 A 
HETATM    8  C7  UNK     1      16.250   8.451  10.061  1.00  0.00     0.075 A 
HETATM    9  C8  UNK     1      15.784   9.735   9.795  1.00  0.00     0.070 A 
HETATM   10  C9  UNK     1      14.559   9.909   9.151  1.00  0.00     0.038 A 
HETATM   11  C12 UNK     1      15.310   4.923   9.631  1.00  0.00     0.289 A 
ENDROOT
BRANCH   4  12
HETATM   12  C4  UNK     1      12.199   6.276   7.976  1.00  0.00    -0.025 A 
HETATM   13  C10 UNK     1      12.146   6.319   6.585  1.00  0.00     0.012 A 
HETATM   14  C13 UNK     1      10.911   6.298   5.937  1.00  0.00     0.001 A 
HETATM   15  C15 UNK     1       9.734   6.234   6.682  1.00  0.00     0.000 A 
HETATM   16  C14 UNK     1       9.791   6.192   8.075  1.00  0.00     0.001 A 
HETATM   17  C11 UNK     1      11.026   6.212   8.723  1.00  0.00     0.012 A 
ENDBRANCH   4  12
BRANCH   9  18
HETATM   18  O2  UNK     1      16.521  10.818  10.162  1.00  0.00    -0.356 OA
HETATM   19  C16 UNK     1      17.859  10.889   9.672  1.00  0.00     0.210 C 
ENDBRANCH   9  18
TORSDOF 2
ENDMDL
MODEL 4
REMARK VINA RESULT:      -7.7     22.595     24.427
REMARK  2 active torsions:
REMARK  status: ('A' for Active; 'I' for Inactive)
REMARK    1  A    between atoms: C8_11  and  O2_2 
REMARK    2  A    between atoms: C2_5  and  C4_7 
ROOT
HETATM    1  O1  UNK     1      16.017   6.080   9.981  1.00  0.00    -0.275 OA
HETATM    2  O3  UNK     1      15.788   3.809   9.872  1.00  0.00    -0.260 OA
HETATM    3  C1  UNK     1      14.265   7.497   9.048  1.00  0.00     0.009 A 
HETATM    4  C2  UNK     1      13.515   6.293   8.658  1.00  0.00    -0.007 A 
HETATM    5  C3  UNK     1      15.491   7.354   9.696  1.00  0.00     0.093 A 
HETATM    6  C5  UNK     1      13.801   8.794   8.797  1.00  0.00     0.018 A 
HETATM    7  C6  UNK     1      14.046   5.092   8.945  1.00  0.00     0.095 A 
HETATM    8  C7  UNK     1      16.251   8.454  10.093  1.00  0.00     0.075 A 
HETATM    9  C8  UNK     1      15.776   9.737   9.837  1.00  0.00     0.070 A 
HETATM   10  C9  UNK     1      14.553   9.907   9.189  1.00  0.00     0.038 A 
HETATM   11  C12 UNK     1      15.339   4.923   9.630  1.00  0.00     0.289 A 
ENDROOT
BRANCH   4  12
HETATM   12  C4  UNK     1      12.224   6.266   7.976  1.00  0.00    -0.025 A 
HETATM   13  C10 UNK     1      11.052   6.153   8.718  1.00  0.00     0.012 A 
HETATM   14  C13 UNK     1       9.818   6.127   8.067  1.00  0.00     0.001 A 
HETATM   15  C15 UNK     1       9.763   6.213   6.676  1.00  0.00     0.000 A 
HETATM   16  C14 UNK     1      10.939   6.325   5.935  1.00  0.00     0.001 A 
HETATM   17  C11 UNK     1      12.173   6.351   6.587  1.00  0.00     0.012 A 
ENDBRANCH   4  12
BRANCH   9  18
HETATM   18  O2  UNK     1      16.504  10.822  10.215  1.00  0.00    -0.356 OA
HETATM   19  C16 UNK     1      17.859  10.883   9.771  1.00  0.00     0.210 C 
ENDBRANCH   9  18
TORSDOF 2
ENDMDL
MODEL 5
REMARK VINA RESULT:      -7.7      4.588      7.872
REMARK  2 active torsions:
REMARK  status: ('A' for Active; 'I' for Inactive)
REMARK    1  A    between atoms: C8_11  and  O2_2 
REMARK    2  A    between atoms: C2_5  and  C4_7 
ROOT
HETATM    1  O1  UNK     1      14.535   8.464  32.920  1.00  0.00    -0.275 OA
HETATM    2  O3  UNK     1      13.715   6.627  31.834  1.00  0.00    -0.260 OA
HETATM    3  C1  UNK     1      16.949   8.765  33.089  1.00  0.00     0.009 A 
HETATM    4  C2  UNK     1      17.146   7.512  32.344  1.00  0.00    -0.007 A 
HETATM    5  C3  UNK     1      15.652   9.202  33.354  1.00  0.00     0.093 A 
HETATM    6  C5  UNK     1      18.014   9.549  33.549  1.00  0.00     0.018 A 
HETATM    7  C6  UNK     1      16.058   6.831  31.945  1.00  0.00     0.095 A 
HETATM    8  C7  UNK     1      15.396  10.381  34.053  1.00  0.00     0.075 A 
HETATM    9  C8  UNK     1      16.465  11.149  34.505  1.00  0.00     0.070 A 
HETATM   10  C9  UNK     1      17.772  10.734  34.253  1.00  0.00     0.038 A 
HETATM   11  C12 UNK     1      14.680   7.279  32.215  1.00  0.00     0.289 A 
ENDROOT
BRANCH   4  12
HETATM   12  C4  UNK     1      18.430   6.916  31.987  1.00  0.00    -0.025 A 
HETATM   13  C10 UNK     1      19.449   6.847  32.933  1.00  0.00     0.012 A 
HETATM   14  C13 UNK     1      20.676   6.279  32.592  1.00  0.00     0.001 A 
HETATM   15  C15 UNK     1      20.880   5.782  31.306  1.00  0.00     0.000 A 
HETATM   16  C14 UNK     1      19.858   5.852  30.359  1.00  0.00     0.001 A 
HETATM   17  C11 UNK     1      18.630   6.421  30.701  1.00  0.00     0.012 A 
ENDBRANCH   4  12
BRANCH   9  18
HETATM   18  O2  UNK     1      16.236  12.302  35.190  1.00  0.00    -0.356 OA
HETATM   19  C16 UNK     1      17.334  13.202  35.333  1.00  0.00     0.210 C 
ENDBRANCH   9  18
TORSDOF 2
ENDMDL
MODEL 6
REMARK VINA RESULT:      -7.6      1.818      5.748
REMARK  2 active torsions:
REMARK  status: ('A' for Active; 'I' for Inactive)
REMARK    1  A    between atoms: C8_11  and  O2_2 
REMARK    2  A    between atoms: C2_5  and  C4_7 
ROOT
HETATM    1  O1  UNK     1      17.884   3.231  33.978  1.00  0.00    -0.275 OA
HETATM    2  O3  UNK     1      17.758   1.217  35.051  1.00  0.00    -0.260 OA
HETATM    3  C1  UNK     1      18.596   3.291  31.646  1.00  0.00     0.009 A 
HETATM    4  C2  UNK     1      18.740   1.827  31.664  1.00  0.00    -0.007 A 
HETATM    5  C3  UNK     1      18.174   3.947  32.801  1.00  0.00     0.093 A 
HETATM    6  C5  UNK     1      18.866   4.066  30.511  1.00  0.00     0.018 A 
HETATM    7  C6  UNK     1      18.455   1.174  32.803  1.00  0.00     0.095 A 
HETATM    8  C7  UNK     1      18.016   5.332  32.851  1.00  0.00     0.075 A 
HETATM    9  C8  UNK     1      18.289   6.088  31.715  1.00  0.00     0.070 A 
HETATM   10  C9  UNK     1      18.713   5.457  30.546  1.00  0.00     0.038 A 
HETATM   11  C12 UNK     1      18.007   1.851  34.033  1.00  0.00     0.289 A 
ENDROOT
BRANCH   4  12
HETATM   12  C4  UNK     1      19.170   0.991  30.547  1.00  0.00    -0.025 A 
HETATM   13  C10 UNK     1      18.468   1.027  29.345  1.00  0.00     0.012 A 
HETATM   14  C13 UNK     1      18.877   0.229  28.277  1.00  0.00     0.001 A 
HETATM   15  C15 UNK     1      19.987  -0.605  28.416  1.00  0.00     0.000 A 
HETATM   16  C14 UNK     1      20.688  -0.640  29.622  1.00  0.00     0.001 A 
HETATM   17  C11 UNK     1      20.278   0.160  30.690  1.00  0.00     0.012 A 
ENDBRANCH   4  12
BRANCH   9  18
HETATM   18  O2  UNK     1      18.143   7.441  31.744  1.00  0.00    -0.356 OA
HETATM   19  C16 UNK     1      17.853   8.036  33.008  1.00  0.00     0.210 C 
ENDBRANCH   9  18
TORSDOF 2
ENDMDL
MODEL 7
REMARK VINA RESULT:      -7.6      2.442      4.776
REMARK  2 active torsions:
REMARK  status: ('A' for Active; 'I' for Inactive)
REMARK    1  A    between atoms: C8_11  and  O2_2 
REMARK    2  A    between atoms: C2_5  and  C4_7 
ROOT
HETATM    1  O1  UNK     1      19.288   0.180  30.979  1.00  0.00    -0.275 OA
HETATM    2  O3  UNK     1      19.479  -2.004  31.625  1.00  0.00    -0.260 OA
HETATM    3  C1  UNK     1      18.415   1.816  32.564  1.00  0.00     0.009 A 
HETATM    4  C2  UNK     1      18.266   0.748  33.565  1.00  0.00    -0.007 A 
HETATM    5  C3  UNK     1      18.920   1.499  31.303  1.00  0.00     0.093 A 
HETATM    6  C5  UNK     1      18.070   3.148  32.818  1.00  0.00     0.018 A 
HETATM    7  C6  UNK     1      18.626  -0.500  33.223  1.00  0.00     0.095 A 
HETATM    8  C7  UNK     1      19.088   2.463  30.309  1.00  0.00     0.075 A 
HETATM    9  C8  UNK     1      18.740   3.784  30.577  1.00  0.00     0.070 A 
HETATM   10  C9  UNK     1      18.232   4.127  31.830  1.00  0.00     0.038 A 
HETATM   11  C12 UNK     1      19.163  -0.852  31.896  1.00  0.00     0.289 A 
ENDROOT
BRANCH   4  12
HETATM   12  C4  UNK     1      17.755   0.908  34.923  1.00  0.00    -0.025 A 
HETATM   13  C10 UNK     1      18.555   1.496  35.899  1.00  0.00     0.012 A 
HETATM   14  C13 UNK     1      18.068   1.649  37.197  1.00  0.00     0.001 A 
HETATM   15  C15 UNK     1      16.782   1.212  37.515  1.00  0.00     0.000 A 
HETATM   16  C14 UNK     1      15.983   0.622  36.535  1.00  0.00     0.001 A 
HETATM   17  C11 UNK     1      16.471   0.470  35.236  1.00  0.00     0.012 A 
ENDBRANCH   4  12
BRANCH   9  18
HETATM   18  O2  UNK     1      18.894   4.739  29.621  1.00  0.00    -0.356 OA
HETATM   19  C16 UNK     1      19.464   5.982  30.029  1.00  0.00     0.210 C 
ENDBRANCH   9  18
TORSDOF 2
ENDMDL
MODEL 8
REMARK VINA RESULT:      -7.6      1.691      4.231
REMARK  2 active torsions:
REMARK  status: ('A' for Active; 'I' for Inactive)
REMARK    1  A    between atoms: C8_11  and  O2_2 
REMARK    2  A    between atoms: C2_5  and  C4_7 
ROOT
HETATM    1  O1  UNK     1      18.221   1.591  31.692  1.00  0.00    -0.275 OA
HETATM    2  O3  UNK     1      18.157   2.581  29.633  1.00  0.00    -0.260 OA
HETATM    3  C1  UNK     1      18.386   2.993  33.680  1.00  0.00     0.009 A 
HETATM    4  C2  UNK     1      18.393   4.188  32.822  1.00  0.00    -0.007 A 
HETATM    5  C3  UNK     1      18.301   1.733  33.090  1.00  0.00     0.093 A 
HETATM    6  C5  UNK     1      18.461   3.061  35.077  1.00  0.00     0.018 A 
HETATM    7  C6  UNK     1      18.316   4.017  31.492  1.00  0.00     0.095 A 
HETATM    8  C7  UNK     1      18.288   0.561  33.845  1.00  0.00     0.075 A 
HETATM    9  C8  UNK     1      18.364   0.645  35.232  1.00  0.00     0.070 A 
HETATM   10  C9  UNK     1      18.450   1.894  35.848  1.00  0.00     0.038 A 
HETATM   11  C12 UNK     1      18.224   2.693  30.851  1.00  0.00     0.289 A 
ENDROOT
BRANCH   4  12
HETATM   12  C4  UNK     1      18.478   5.574  33.277  1.00  0.00    -0.025 A 
HETATM   13  C10 UNK     1      17.323   6.245  33.670  1.00  0.00     0.012 A 
HETATM   14  C13 UNK     1      17.403   7.568  34.104  1.00  0.00     0.001 A 
HETATM   15  C15 UNK     1      18.638   8.215  34.142  1.00  0.00     0.000 A 
HETATM   16  C14 UNK     1      19.793   7.540  33.747  1.00  0.00     0.001 A 
HETATM   17  C11 UNK     1      19.712   6.216  33.313  1.00  0.00     0.012 A 
ENDBRANCH   4  12
BRANCH   9  18
HETATM   18  O2  UNK     1      18.354  -0.487  35.986  1.00  0.00    -0.356 OA
HETATM   19  C16 UNK     1      17.881  -0.371  37.327  1.00  0.00     0.210 C 
ENDBRANCH   9  18
TORSDOF 2
ENDMDL
MODEL 9
REMARK VINA RESULT:      -7.5     15.788     17.398
REMARK  2 active torsions:
REMARK  status: ('A' for Active; 'I' for Inactive)
REMARK    1  A    between atoms: C8_11  and  O2_2 
REMARK    2  A    between atoms: C2_5  and  C4_7 
ROOT
HETATM    1  O1  UNK     1      28.810  -5.502  39.481  1.00  0.00    -0.275 OA
HETATM    2  O3  UNK     1      29.348  -3.324  39.920  1.00  0.00    -0.260 OA
HETATM    3  C1  UNK     1      30.261  -6.815  38.025  1.00  0.00     0.009 A 
HETATM    4  C2  UNK     1      31.139  -5.645  37.866  1.00  0.00    -0.007 A 
HETATM    5  C3  UNK     1      29.126  -6.707  38.826  1.00  0.00     0.093 A 
HETATM    6  C5  UNK     1      30.514  -8.044  37.404  1.00  0.00     0.018 A 
HETATM    7  C6  UNK     1      30.809  -4.510  38.504  1.00  0.00     0.095 A 
HETATM    8  C7  UNK     1      28.252  -7.778  39.020  1.00  0.00     0.075 A 
HETATM    9  C8  UNK     1      28.518  -8.993  38.396  1.00  0.00     0.070 A 
HETATM   10  C9  UNK     1      29.648  -9.126  37.589  1.00  0.00     0.038 A 
HETATM   11  C12 UNK     1      29.614  -4.380  39.355  1.00  0.00     0.289 A 
ENDROOT
BRANCH   4  12
HETATM   12  C4  UNK     1      32.360  -5.588  37.066  1.00  0.00    -0.025 A 
HETATM   13  C10 UNK     1      32.303  -5.152  35.745  1.00  0.00     0.012 A 
HETATM   14  C13 UNK     1      33.468  -5.098  34.981  1.00  0.00     0.001 A 
HETATM   15  C15 UNK     1      34.687  -5.481  35.540  1.00  0.00     0.000 A 
HETATM   16  C14 UNK     1      34.741  -5.918  36.864  1.00  0.00     0.001 A 
HETATM   17  C11 UNK     1      33.575  -5.971  37.629  1.00  0.00     0.012 A 
ENDBRANCH   4  12
BRANCH   9  18
HETATM   18  O2  UNK     1      27.677 -10.048  38.572  1.00  0.00    -0.356 OA
HETATM   19  C16 UNK     1      27.001 -10.139  39.825  1.00  0.00     0.210 C 
ENDBRANCH   9  18
TORSDOF 2
ENDMDL
MODEL 10
REMARK VINA RESULT:      -7.5      2.417      6.197
REMARK  2 active torsions:
REMARK  status: ('A' for Active; 'I' for Inactive)
REMARK    1  A    between atoms: C8_11  and  O2_2 
REMARK    2  A    between atoms: C2_5  and  C4_7 
ROOT
HETATM    1  O1  UNK     1      17.930   3.592  33.696  1.00  0.00    -0.275 OA
HETATM    2  O3  UNK     1      17.962   5.245  32.118  1.00  0.00    -0.260 OA
HETATM    3  C1  UNK     1      18.508   1.314  33.042  1.00  0.00     0.009 A 
HETATM    4  C2  UNK     1      18.723   1.778  31.663  1.00  0.00    -0.007 A 
HETATM    5  C3  UNK     1      18.118   2.234  34.015  1.00  0.00     0.093 A 
HETATM    6  C5  UNK     1      18.677  -0.020  33.430  1.00  0.00     0.018 A 
HETATM    7  C6  UNK     1      18.535   3.080  31.392  1.00  0.00     0.095 A 
HETATM    8  C7  UNK     1      17.899   1.861  35.341  1.00  0.00     0.075 A 
HETATM    9  C8  UNK     1      18.071   0.531  35.710  1.00  0.00     0.070 A 
HETATM   10  C9  UNK     1      18.460  -0.409  34.756  1.00  0.00     0.038 A 
HETATM   11  C12 UNK     1      18.124   4.066  32.408  1.00  0.00     0.289 A 
ENDROOT
BRANCH   4  12
HETATM   12  C4  UNK     1      19.129   0.950  30.530  1.00  0.00    -0.025 A 
HETATM   13  C10 UNK     1      20.221   0.095  30.655  1.00  0.00     0.012 A 
HETATM   14  C13 UNK     1      20.610  -0.696  29.574  1.00  0.00     0.001 A 
HETATM   15  C15 UNK     1      19.906  -0.628  28.372  1.00  0.00     0.000 A 
HETATM   16  C14 UNK     1      18.813   0.230  28.250  1.00  0.00     0.001 A 
HETATM   17  C11 UNK     1      18.424   1.021  29.333  1.00  0.00     0.012 A 
ENDBRANCH   4  12
BRANCH   9  18
HETATM   18  O2  UNK     1      17.860   0.147  36.998  1.00  0.00    -0.356 OA
HETATM   19  C16 UNK     1      17.459   1.159  37.921  1.00  0.00     0.210 C 
ENDBRANCH   9  18
TORSDOF 2
ENDMDL
