MODEL 1
REMARK VINA RESULT:      -9.8      0.000      0.000
REMARK  7 active torsions:
REMARK  status: ('A' for Active; 'I' for Inactive)
REMARK    1  A    between atoms: C10_21  and  O2_2 
REMARK    2  A    between atoms: C4_15  and  O2_2 
REMARK    3  A    between atoms: C12_23  and  N1_8 
REMARK    4  A    between atoms: N1_8  and  N2_9 
REMARK    5  A    between atoms: C14_25  and  N3_10 
REMARK    6  A    between atoms: C17_28  and  N4_11 
REMARK    7  A    between atoms: C10_21  and  C13_24 
ROOT
HETATM    1  N2  UNK     1      20.293  -2.583  35.005  1.00  0.00    -0.182 NA
HETATM    2  C13 UNK     1      20.139  -3.058  36.204  1.00  0.00     0.052 C 
HETATM    3  C19 UNK     1      18.882  -2.677  36.948  1.00  0.00     0.070 C 
ENDROOT
BRANCH   2   4
HETATM    4  C10 UNK     1      21.102  -3.980  36.922  1.00  0.00     0.231 C 
BRANCH   4   5
HETATM    5  O2  UNK     1      20.401  -4.675  37.953  1.00  0.00    -0.345 OA
BRANCH   5   6
HETATM    6  C4  UNK     1      20.344  -6.031  37.857  1.00  0.00     0.071 A 
HETATM    7  C6  UNK     1      20.890  -6.678  36.754  1.00  0.00     0.075 A 
HETATM    8  C2  UNK     1      20.821  -8.069  36.675  1.00  0.00     0.092 A 
HETATM    9  C1  UNK     1      20.219  -8.843  37.670  1.00  0.00     0.004 A 
HETATM   10  O1  UNK     1      21.392  -8.666  35.534  1.00  0.00    -0.275 OA
HETATM   11  C3  UNK     1      20.190 -10.303  37.505  1.00  0.00    -0.043 A 
HETATM   12  C5  UNK     1      19.675  -8.173  38.773  1.00  0.00     0.017 A 
HETATM   13  C8  UNK     1      20.741 -10.843  36.409  1.00  0.00     0.090 A 
HETATM   14  C9  UNK     1      19.551 -11.162  38.557  1.00  0.00     0.049 C 
HETATM   15  C11 UNK     1      21.380 -10.040  35.352  1.00  0.00     0.288 A 
HETATM   16  O3  UNK     1      21.874 -10.571  34.363  1.00  0.00    -0.260 OA
HETATM   17  C7  UNK     1      19.737  -6.777  38.865  1.00  0.00     0.038 A 
ENDBRANCH   5   6
ENDBRANCH   4   5
ENDBRANCH   2   4
BRANCH   1  18
HETATM   18  N1  UNK     1      19.320  -1.789  34.522  1.00  0.00    -0.276 N 
HETATM   19  H12 UNK     1      18.547  -1.519  35.112  1.00  0.00     0.189 HD
BRANCH  18  20
HETATM   20  C12 UNK     1      19.408  -1.260  33.225  1.00  0.00     0.083 A 
HETATM   21  C14 UNK     1      18.882   0.000  32.915  1.00  0.00     0.133 A 
HETATM   22  C16 UNK     1      18.981   0.505  31.617  1.00  0.00     0.074 A 
HETATM   23  C17 UNK     1      19.608  -0.247  30.624  1.00  0.00     0.105 A 
HETATM   24  C18 UNK     1      20.136  -1.502  30.927  1.00  0.00     0.038 A 
HETATM   25  C15 UNK     1      20.035  -2.008  32.223  1.00  0.00     0.036 A 
BRANCH  21  26
HETATM   26  N3  UNK     1      18.239   0.787  33.910  1.00  0.00    -0.113 N 
HETATM   27  O4  UNK     1      18.935   1.304  34.815  1.00  0.00    -0.532 OA
HETATM   28  O5  UNK     1      16.997   0.940  33.852  1.00  0.00    -0.532 OA
ENDBRANCH  21  26
BRANCH  23  29
HETATM   29  N4  UNK     1      19.711   0.265  29.304  1.00  0.00    -0.116 N 
HETATM   30  O6  UNK     1      19.294   1.426  29.067  1.00  0.00    -0.532 OA
HETATM   31  O7  UNK     1      20.216  -0.455  28.409  1.00  0.00    -0.532 OA
ENDBRANCH  23  29
ENDBRANCH  18  20
ENDBRANCH   1  18
TORSDOF 7
ENDMDL
MODEL 2
REMARK VINA RESULT:      -9.8      5.396     12.499
REMARK  7 active torsions:
REMARK  status: ('A' for Active; 'I' for Inactive)
REMARK    1  A    between atoms: C10_21  and  O2_2 
REMARK    2  A    between atoms: C4_15  and  O2_2 
REMARK    3  A    between atoms: C12_23  and  N1_8 
REMARK    4  A    between atoms: N1_8  and  N2_9 
REMARK    5  A    between atoms: C14_25  and  N3_10 
REMARK    6  A    between atoms: C17_28  and  N4_11 
REMARK    7  A    between atoms: C10_21  and  C13_24 
ROOT
HETATM    1  N2  UNK     1      18.510   1.473  31.800  1.00  0.00    -0.182 NA
HETATM    2  C13 UNK     1      18.574   2.241  30.754  1.00  0.00     0.052 C 
HETATM    3  C19 UNK     1      18.745   1.575  29.410  1.00  0.00     0.070 C 
ENDROOT
BRANCH   2   4
HETATM    4  C10 UNK     1      18.473   3.752  30.758  1.00  0.00     0.231 C 
BRANCH   4   5
HETATM    5  O2  UNK     1      17.762   4.169  31.924  1.00  0.00    -0.345 OA
BRANCH   5   6
HETATM    6  C4  UNK     1      18.075   5.389  32.436  1.00  0.00     0.071 A 
HETATM    7  C6  UNK     1      17.097   6.371  32.552  1.00  0.00     0.075 A 
HETATM    8  C2  UNK     1      17.439   7.616  33.081  1.00  0.00     0.092 A 
HETATM    9  C1  UNK     1      18.736   7.916  33.502  1.00  0.00     0.004 A 
HETATM   10  O1  UNK     1      16.405   8.569  33.172  1.00  0.00    -0.275 OA
HETATM   11  C3  UNK     1      19.008   9.254  34.046  1.00  0.00    -0.043 A 
HETATM   12  C5  UNK     1      19.707   6.914  33.378  1.00  0.00     0.017 A 
HETATM   13  C8  UNK     1      18.005  10.139  34.121  1.00  0.00     0.090 A 
HETATM   14  C9  UNK     1      20.392   9.606  34.508  1.00  0.00     0.049 C 
HETATM   15  C11 UNK     1      16.632   9.838  33.682  1.00  0.00     0.288 A 
HETATM   16  O3  UNK     1      15.740  10.675  33.766  1.00  0.00    -0.260 OA
HETATM   17  C7  UNK     1      19.378   5.660  32.849  1.00  0.00     0.038 A 
ENDBRANCH   5   6
ENDBRANCH   4   5
ENDBRANCH   2   4
BRANCH   1  18
HETATM   18  N1  UNK     1      18.601   0.146  31.601  1.00  0.00    -0.276 N 
HETATM   19  H12 UNK     1      18.433  -0.243  30.685  1.00  0.00     0.189 HD
BRANCH  18  20
HETATM   20  C12 UNK     1      19.012  -0.705  32.639  1.00  0.00     0.083 A 
HETATM   21  C14 UNK     1      20.038  -1.639  32.453  1.00  0.00     0.133 A 
HETATM   22  C16 UNK     1      20.428  -2.474  33.501  1.00  0.00     0.074 A 
HETATM   23  C17 UNK     1      19.795  -2.380  34.740  1.00  0.00     0.105 A 
HETATM   24  C18 UNK     1      18.772  -1.451  34.932  1.00  0.00     0.038 A 
HETATM   25  C15 UNK     1      18.381  -0.617  33.885  1.00  0.00     0.036 A 
BRANCH  21  26
HETATM   26  N3  UNK     1      20.702  -1.754  31.200  1.00  0.00    -0.113 N 
HETATM   27  O4  UNK     1      21.194  -0.726  30.680  1.00  0.00    -0.532 OA
HETATM   28  O5  UNK     1      20.774  -2.880  30.655  1.00  0.00    -0.532 OA
ENDBRANCH  21  26
BRANCH  23  29
HETATM   29  N4  UNK     1      20.191  -3.229  35.807  1.00  0.00    -0.116 N 
HETATM   30  O6  UNK     1      20.184  -4.472  35.631  1.00  0.00    -0.532 OA
HETATM   31  O7  UNK     1      20.539  -2.714  36.897  1.00  0.00    -0.532 OA
ENDBRANCH  23  29
ENDBRANCH  18  20
ENDBRANCH   1  18
TORSDOF 7
ENDMDL
MODEL 3
REMARK VINA RESULT:      -9.6      1.469      2.161
REMARK  7 active torsions:
REMARK  status: ('A' for Active; 'I' for Inactive)
REMARK    1  A    between atoms: C10_21  and  O2_2 
REMARK    2  A    between atoms: C4_15  and  O2_2 
REMARK    3  A    between atoms: C12_23  and  N1_8 
REMARK    4  A    between atoms: N1_8  and  N2_9 
REMARK    5  A    between atoms: C14_25  and  N3_10 
REMARK    6  A    between atoms: C17_28  and  N4_11 
REMARK    7  A    between atoms: C10_21  and  C13_24 
ROOT
HETATM    1  N2  UNK     1      19.572  -2.453  34.933  1.00  0.00    -0.182 NA
HETATM    2  C13 UNK     1      19.373  -2.677  36.197  1.00  0.00     0.052 C 
HETATM    3  C19 UNK     1      18.630  -1.624  36.983  1.00  0.00     0.070 C 
ENDROOT
BRANCH   2   4
HETATM    4  C10 UNK     1      19.806  -3.915  36.955  1.00  0.00     0.231 C 
BRANCH   4   5
HETATM    5  O2  UNK     1      18.866  -4.962  36.714  1.00  0.00    -0.345 OA
BRANCH   5   6
HETATM    6  C4  UNK     1      19.364  -6.219  36.571  1.00  0.00     0.071 A 
HETATM    7  C6  UNK     1      18.985  -7.226  37.452  1.00  0.00     0.075 A 
HETATM    8  C2  UNK     1      19.507  -8.510  37.287  1.00  0.00     0.092 A 
HETATM    9  C1  UNK     1      20.404  -8.824  36.263  1.00  0.00     0.004 A 
HETATM   10  O1  UNK     1      19.086  -9.486  38.210  1.00  0.00    -0.275 OA
HETATM   11  C3  UNK     1      20.904 -10.202  36.164  1.00  0.00    -0.043 A 
HETATM   12  C5  UNK     1      20.773  -7.796  35.386  1.00  0.00     0.017 A 
HETATM   13  C8  UNK     1      20.485 -11.110  37.056  1.00  0.00     0.090 A 
HETATM   14  C9  UNK     1      21.868 -10.570  35.074  1.00  0.00     0.049 C 
HETATM   15  C11 UNK     1      19.540 -10.794  38.141  1.00  0.00     0.288 A 
HETATM   16  O3  UNK     1      19.180 -11.653  38.939  1.00  0.00    -0.260 OA
HETATM   17  C7  UNK     1      20.258  -6.504  35.539  1.00  0.00     0.038 A 
ENDBRANCH   5   6
ENDBRANCH   4   5
ENDBRANCH   2   4
BRANCH   1  18
HETATM   18  N1  UNK     1      19.098  -1.301  34.426  1.00  0.00    -0.276 N 
HETATM   19  H12 UNK     1      18.643  -0.631  35.028  1.00  0.00     0.189 HD
BRANCH  18  20
HETATM   20  C12 UNK     1      19.304  -0.977  33.075  1.00  0.00     0.083 A 
HETATM   21  C14 UNK     1      18.968   0.285  32.569  1.00  0.00     0.133 A 
HETATM   22  C16 UNK     1      19.181   0.582  31.222  1.00  0.00     0.074 A 
HETATM   23  C17 UNK     1      19.733  -0.379  30.375  1.00  0.00     0.105 A 
HETATM   24  C18 UNK     1      20.071  -1.637  30.874  1.00  0.00     0.038 A 
HETATM   25  C15 UNK     1      19.856  -1.935  32.219  1.00  0.00     0.036 A 
BRANCH  21  26
HETATM   26  N3  UNK     1      18.405   1.283  33.412  1.00  0.00    -0.113 N 
HETATM   27  O4  UNK     1      17.426   1.944  32.996  1.00  0.00    -0.532 OA
HETATM   28  O5  UNK     1      18.907   1.470  34.545  1.00  0.00    -0.532 OA
ENDBRANCH  21  26
BRANCH  23  29
HETATM   29  N4  UNK     1      19.951  -0.077  29.005  1.00  0.00    -0.116 N 
HETATM   30  O6  UNK     1      21.016  -0.458  28.461  1.00  0.00    -0.532 OA
HETATM   31  O7  UNK     1      19.074   0.562  28.376  1.00  0.00    -0.532 OA
ENDBRANCH  23  29
ENDBRANCH  18  20
ENDBRANCH   1  18
TORSDOF 7
ENDMDL
MODEL 4
REMARK VINA RESULT:      -9.6      5.730     11.991
REMARK  7 active torsions:
REMARK  status: ('A' for Active; 'I' for Inactive)
REMARK    1  A    between atoms: C10_21  and  O2_2 
REMARK    2  A    between atoms: C4_15  and  O2_2 
REMARK    3  A    between atoms: C12_23  and  N1_8 
REMARK    4  A    between atoms: N1_8  and  N2_9 
REMARK    5  A    between atoms: C14_25  and  N3_10 
REMARK    6  A    between atoms: C17_28  and  N4_11 
REMARK    7  A    between atoms: C10_21  and  C13_24 
ROOT
HETATM    1  N2  UNK     1      18.320   1.961  31.583  1.00  0.00    -0.182 NA
HETATM    2  C13 UNK     1      18.619   2.160  30.335  1.00  0.00     0.052 C 
HETATM    3  C19 UNK     1      19.318   1.043  29.599  1.00  0.00     0.070 C 
ENDROOT
BRANCH   2   4
HETATM    4  C10 UNK     1      18.314   3.413  29.540  1.00  0.00     0.231 C 
BRANCH   4   5
HETATM    5  O2  UNK     1      19.348   4.371  29.766  1.00  0.00    -0.345 OA
BRANCH   5   6
HETATM    6  C4  UNK     1      19.189   5.216  30.819  1.00  0.00     0.071 A 
HETATM    7  C6  UNK     1      17.919   5.480  31.319  1.00  0.00     0.075 A 
HETATM    8  C2  UNK     1      17.778   6.350  32.401  1.00  0.00     0.092 A 
HETATM    9  C1  UNK     1      18.873   6.970  33.006  1.00  0.00     0.004 A 
HETATM   10  O1  UNK     1      16.466   6.578  32.862  1.00  0.00    -0.275 OA
HETATM   11  C3  UNK     1      18.633   7.872  34.141  1.00  0.00    -0.043 A 
HETATM   12  C5  UNK     1      20.145   6.691  32.489  1.00  0.00     0.017 A 
HETATM   13  C8  UNK     1      17.375   8.070  34.558  1.00  0.00     0.090 A 
HETATM   14  C9  UNK     1      19.790   8.554  34.812  1.00  0.00     0.049 C 
HETATM   15  C11 UNK     1      16.210   7.423  33.930  1.00  0.00     0.288 A 
HETATM   16  O3  UNK     1      15.072   7.629  34.340  1.00  0.00    -0.260 OA
HETATM   17  C7  UNK     1      20.301   5.821  31.403  1.00  0.00     0.038 A 
ENDBRANCH   5   6
ENDBRANCH   4   5
ENDBRANCH   2   4
BRANCH   1  18
HETATM   18  N1  UNK     1      18.656   0.774  32.120  1.00  0.00    -0.276 N 
HETATM   19  H12 UNK     1      19.088   0.063  31.548  1.00  0.00     0.189 HD
BRANCH  18  20
HETATM   20  C12 UNK     1      18.488   0.538  33.493  1.00  0.00     0.083 A 
HETATM   21  C14 UNK     1      18.900  -0.664  34.082  1.00  0.00     0.133 A 
HETATM   22  C16 UNK     1      18.722  -0.875  35.450  1.00  0.00     0.074 A 
HETATM   23  C17 UNK     1      18.131   0.114  36.237  1.00  0.00     0.105 A 
HETATM   24  C18 UNK     1      17.719   1.314  35.656  1.00  0.00     0.038 A 
HETATM   25  C15 UNK     1      17.896   1.525  34.289  1.00  0.00     0.036 A 
BRANCH  21  26
HETATM   26  N3  UNK     1      19.506  -1.688  33.302  1.00  0.00    -0.113 N 
HETATM   27  O4  UNK     1      19.048  -1.930  32.162  1.00  0.00    -0.532 OA
HETATM   28  O5  UNK     1      20.480  -2.315  33.780  1.00  0.00    -0.532 OA
ENDBRANCH  21  26
BRANCH  23  29
HETATM   29  N4  UNK     1      17.950  -0.099  37.628  1.00  0.00    -0.116 N 
HETATM   30  O6  UNK     1      17.895   0.894  38.394  1.00  0.00    -0.532 OA
HETATM   31  O7  UNK     1      17.849  -1.275  38.056  1.00  0.00    -0.532 OA
ENDBRANCH  23  29
ENDBRANCH  18  20
ENDBRANCH   1  18
TORSDOF 7
ENDMDL
MODEL 5
REMARK VINA RESULT:      -9.5      7.039     11.154
REMARK  7 active torsions:
REMARK  status: ('A' for Active; 'I' for Inactive)
REMARK    1  A    between atoms: C10_21  and  O2_2 
REMARK    2  A    between atoms: C4_15  and  O2_2 
REMARK    3  A    between atoms: C12_23  and  N1_8 
REMARK    4  A    between atoms: N1_8  and  N2_9 
REMARK    5  A    between atoms: C14_25  and  N3_10 
REMARK    6  A    between atoms: C17_28  and  N4_11 
REMARK    7  A    between atoms: C10_21  and  C13_24 
ROOT
HETATM    1  N2  UNK     1      17.299   6.772  33.891  1.00  0.00    -0.182 NA
HETATM    2  C13 UNK     1      18.061   5.989  33.189  1.00  0.00     0.052 C 
HETATM    3  C19 UNK     1      18.974   6.632  32.173  1.00  0.00     0.070 C 
ENDROOT
BRANCH   2   4
HETATM    4  C10 UNK     1      18.131   4.481  33.309  1.00  0.00     0.231 C 
BRANCH   4   5
HETATM    5  O2  UNK     1      17.571   3.893  32.134  1.00  0.00    -0.345 OA
BRANCH   5   6
HETATM    6  C4  UNK     1      18.183   2.781  31.647  1.00  0.00     0.071 A 
HETATM    7  C6  UNK     1      18.455   1.707  32.487  1.00  0.00     0.075 A 
HETATM    8  C2  UNK     1      19.083   0.575  31.967  1.00  0.00     0.092 A 
HETATM    9  C1  UNK     1      19.452   0.479  30.623  1.00  0.00     0.004 A 
HETATM   10  O1  UNK     1      19.332  -0.479  32.867  1.00  0.00    -0.275 OA
HETATM   11  C3  UNK     1      20.110  -0.751  30.161  1.00  0.00    -0.043 A 
HETATM   12  C5  UNK     1      19.170   1.571  29.792  1.00  0.00     0.017 A 
HETATM   13  C8  UNK     1      20.334  -1.737  31.039  1.00  0.00     0.090 A 
HETATM   14  C9  UNK     1      20.519  -0.884  28.722  1.00  0.00     0.049 C 
HETATM   15  C11 UNK     1      19.950  -1.651  32.459  1.00  0.00     0.288 A 
HETATM   16  O3  UNK     1      20.172  -2.575  33.234  1.00  0.00    -0.260 OA
HETATM   17  C7  UNK     1      18.540   2.713  30.301  1.00  0.00     0.038 A 
ENDBRANCH   5   6
ENDBRANCH   4   5
ENDBRANCH   2   4
BRANCH   1  18
HETATM   18  N1  UNK     1      17.385   8.094  33.657  1.00  0.00    -0.276 N 
HETATM   19  H12 UNK     1      18.258   8.499  33.351  1.00  0.00     0.189 HD
BRANCH  18  20
HETATM   20  C12 UNK     1      16.248   8.912  33.754  1.00  0.00     0.083 A 
HETATM   21  C14 UNK     1      15.274   8.927  32.748  1.00  0.00     0.133 A 
HETATM   22  C16 UNK     1      14.152   9.749  32.867  1.00  0.00     0.074 A 
HETATM   23  C17 UNK     1      13.998  10.559  33.991  1.00  0.00     0.105 A 
HETATM   24  C18 UNK     1      14.965  10.548  34.997  1.00  0.00     0.038 A 
HETATM   25  C15 UNK     1      16.087   9.728  34.878  1.00  0.00     0.036 A 
BRANCH  21  26
HETATM   26  N3  UNK     1      15.407   8.108  31.592  1.00  0.00    -0.113 N 
HETATM   27  O4  UNK     1      16.299   8.382  30.757  1.00  0.00    -0.532 OA
HETATM   28  O5  UNK     1      14.627   7.139  31.445  1.00  0.00    -0.532 OA
ENDBRANCH  21  26
BRANCH  23  29
HETATM   29  N4  UNK     1      12.857  11.395  34.113  1.00  0.00    -0.116 N 
HETATM   30  O6  UNK     1      12.019  11.421  33.180  1.00  0.00    -0.532 OA
HETATM   31  O7  UNK     1      12.718  12.086  35.151  1.00  0.00    -0.532 OA
ENDBRANCH  23  29
ENDBRANCH  18  20
ENDBRANCH   1  18
TORSDOF 7
ENDMDL
MODEL 6
REMARK VINA RESULT:      -9.4      2.807      9.855
REMARK  7 active torsions:
REMARK  status: ('A' for Active; 'I' for Inactive)
REMARK    1  A    between atoms: C10_21  and  O2_2 
REMARK    2  A    between atoms: C4_15  and  O2_2 
REMARK    3  A    between atoms: C12_23  and  N1_8 
REMARK    4  A    between atoms: N1_8  and  N2_9 
REMARK    5  A    between atoms: C14_25  and  N3_10 
REMARK    6  A    between atoms: C17_28  and  N4_11 
REMARK    7  A    between atoms: C10_21  and  C13_24 
ROOT
HETATM    1  N2  UNK     1      20.244  -4.691  35.822  1.00  0.00    -0.182 NA
HETATM    2  C13 UNK     1      20.261  -3.520  36.384  1.00  0.00     0.052 C 
HETATM    3  C19 UNK     1      20.067  -3.462  37.880  1.00  0.00     0.070 C 
ENDROOT
BRANCH   2   4
HETATM    4  C10 UNK     1      20.476  -2.200  35.674  1.00  0.00     0.231 C 
BRANCH   4   5
HETATM    5  O2  UNK     1      19.302  -1.876  34.928  1.00  0.00    -0.345 OA
BRANCH   5   6
HETATM    6  C4  UNK     1      19.480  -1.456  33.647  1.00  0.00     0.071 A 
HETATM    7  C6  UNK     1      18.870  -0.287  33.203  1.00  0.00     0.075 A 
HETATM    8  C2  UNK     1      19.066   0.126  31.884  1.00  0.00     0.092 A 
HETATM    9  C1  UNK     1      19.857  -0.594  30.987  1.00  0.00     0.004 A 
HETATM   10  O1  UNK     1      18.421   1.316  31.494  1.00  0.00    -0.275 OA
HETATM   11  C3  UNK     1      20.007  -0.086  29.617  1.00  0.00    -0.043 A 
HETATM   12  C5  UNK     1      20.463  -1.768  31.453  1.00  0.00     0.017 A 
HETATM   13  C8  UNK     1      19.383   1.049  29.273  1.00  0.00     0.090 A 
HETATM   14  C9  UNK     1      20.852  -0.838  28.629  1.00  0.00     0.049 C 
HETATM   15  C11 UNK     1      18.546   1.820  30.208  1.00  0.00     0.288 A 
HETATM   16  O3  UNK     1      17.990   2.855  29.857  1.00  0.00    -0.260 OA
HETATM   17  C7  UNK     1      20.275  -2.195  32.773  1.00  0.00     0.038 A 
ENDBRANCH   5   6
ENDBRANCH   4   5
ENDBRANCH   2   4
BRANCH   1  18
HETATM   18  N1  UNK     1      20.056  -5.759  36.619  1.00  0.00    -0.276 N 
HETATM   19  H12 UNK     1      19.344  -5.739  37.334  1.00  0.00     0.189 HD
BRANCH  18  20
HETATM   20  C12 UNK     1      20.786  -6.940  36.414  1.00  0.00     0.083 A 
HETATM   21  C14 UNK     1      21.762  -7.361  37.326  1.00  0.00     0.133 A 
HETATM   22  C16 UNK     1      22.475  -8.539  37.099  1.00  0.00     0.074 A 
HETATM   23  C17 UNK     1      22.215  -9.303  35.962  1.00  0.00     0.105 A 
HETATM   24  C18 UNK     1      21.243  -8.890  35.051  1.00  0.00     0.038 A 
HETATM   25  C15 UNK     1      20.531  -7.712  35.276  1.00  0.00     0.036 A 
BRANCH  21  26
HETATM   26  N3  UNK     1      22.045  -6.600  38.494  1.00  0.00    -0.113 N 
HETATM   27  O4  UNK     1      22.720  -5.550  38.383  1.00  0.00    -0.532 OA
HETATM   28  O5  UNK     1      21.612  -7.004  39.598  1.00  0.00    -0.532 OA
ENDBRANCH  21  26
BRANCH  23  29
HETATM   29  N4  UNK     1      22.939 -10.503  35.732  1.00  0.00    -0.116 N 
HETATM   30  O6  UNK     1      22.390 -11.432  35.092  1.00  0.00    -0.532 OA
HETATM   31  O7  UNK     1      24.110 -10.601  36.173  1.00  0.00    -0.532 OA
ENDBRANCH  23  29
ENDBRANCH  18  20
ENDBRANCH   1  18
TORSDOF 7
ENDMDL
MODEL 7
REMARK VINA RESULT:      -9.4      5.318     12.403
REMARK  7 active torsions:
REMARK  status: ('A' for Active; 'I' for Inactive)
REMARK    1  A    between atoms: C10_21  and  O2_2 
REMARK    2  A    between atoms: C4_15  and  O2_2 
REMARK    3  A    between atoms: C12_23  and  N1_8 
REMARK    4  A    between atoms: N1_8  and  N2_9 
REMARK    5  A    between atoms: C14_25  and  N3_10 
REMARK    6  A    between atoms: C17_28  and  N4_11 
REMARK    7  A    between atoms: C10_21  and  C13_24 
ROOT
HETATM    1  N2  UNK     1      18.698   1.510  31.972  1.00  0.00    -0.182 NA
HETATM    2  C13 UNK     1      18.579   2.182  30.866  1.00  0.00     0.052 C 
HETATM    3  C19 UNK     1      18.319   1.401  29.601  1.00  0.00     0.070 C 
ENDROOT
BRANCH   2   4
HETATM    4  C10 UNK     1      18.661   3.689  30.733  1.00  0.00     0.231 C 
BRANCH   4   5
HETATM    5  O2  UNK     1      17.691   4.286  31.593  1.00  0.00    -0.345 OA
BRANCH   5   6
HETATM    6  C4  UNK     1      18.027   5.466  32.179  1.00  0.00     0.071 A 
HETATM    7  C6  UNK     1      17.068   6.457  32.357  1.00  0.00     0.075 A 
HETATM    8  C2  UNK     1      17.434   7.661  32.961  1.00  0.00     0.092 A 
HETATM    9  C1  UNK     1      18.737   7.910  33.398  1.00  0.00     0.004 A 
HETATM   10  O1  UNK     1      16.419   8.626  33.111  1.00  0.00    -0.275 OA
HETATM   11  C3  UNK     1      19.034   9.206  34.023  1.00  0.00    -0.043 A 
HETATM   12  C5  UNK     1      19.688   6.898  33.211  1.00  0.00     0.017 A 
HETATM   13  C8  UNK     1      18.048  10.104  34.154  1.00  0.00     0.090 A 
HETATM   14  C9  UNK     1      20.424   9.503  34.504  1.00  0.00     0.049 C 
HETATM   15  C11 UNK     1      16.669   9.857  33.698  1.00  0.00     0.288 A 
HETATM   16  O3  UNK     1      15.793  10.704  33.835  1.00  0.00    -0.260 OA
HETATM   17  C7  UNK     1      19.336   5.686  32.606  1.00  0.00     0.038 A 
ENDBRANCH   5   6
ENDBRANCH   4   5
ENDBRANCH   2   4
BRANCH   1  18
HETATM   18  N1  UNK     1      18.579   0.172  31.900  1.00  0.00    -0.276 N 
HETATM   19  H12 UNK     1      18.278  -0.265  31.041  1.00  0.00     0.189 HD
BRANCH  18  20
HETATM   20  C12 UNK     1      18.950  -0.637  32.986  1.00  0.00     0.083 A 
HETATM   21  C14 UNK     1      18.433  -0.417  34.268  1.00  0.00     0.133 A 
HETATM   22  C16 UNK     1      18.817  -1.235  35.331  1.00  0.00     0.074 A 
HETATM   23  C17 UNK     1      19.719  -2.278  35.118  1.00  0.00     0.105 A 
HETATM   24  C18 UNK     1      20.237  -2.503  33.842  1.00  0.00     0.038 A 
HETATM   25  C15 UNK     1      19.854  -1.684  32.779  1.00  0.00     0.036 A 
BRANCH  21  26
HETATM   26  N3  UNK     1      17.511   0.638  34.512  1.00  0.00    -0.113 N 
HETATM   27  O4  UNK     1      17.916   1.675  35.087  1.00  0.00    -0.532 OA
HETATM   28  O5  UNK     1      16.321   0.499  34.144  1.00  0.00    -0.532 OA
ENDBRANCH  21  26
BRANCH  23  29
HETATM   29  N4  UNK     1      20.110  -3.111  36.199  1.00  0.00    -0.116 N 
HETATM   30  O6  UNK     1      20.481  -4.285  35.958  1.00  0.00    -0.532 OA
HETATM   31  O7  UNK     1      20.075  -2.651  37.366  1.00  0.00    -0.532 OA
ENDBRANCH  23  29
ENDBRANCH  18  20
ENDBRANCH   1  18
TORSDOF 7
ENDMDL
MODEL 8
REMARK VINA RESULT:      -9.3     15.971     20.388
REMARK  7 active torsions:
REMARK  status: ('A' for Active; 'I' for Inactive)
REMARK    1  A    between atoms: C10_21  and  O2_2 
REMARK    2  A    between atoms: C4_15  and  O2_2 
REMARK    3  A    between atoms: C12_23  and  N1_8 
REMARK    4  A    between atoms: N1_8  and  N2_9 
REMARK    5  A    between atoms: C14_25  and  N3_10 
REMARK    6  A    between atoms: C17_28  and  N4_11 
REMARK    7  A    between atoms: C10_21  and  C13_24 
ROOT
HETATM    1  N2  UNK     1      19.628  -1.998  16.438  1.00  0.00    -0.182 NA
HETATM    2  C13 UNK     1      19.347  -2.744  15.412  1.00  0.00     0.052 C 
HETATM    3  C19 UNK     1      18.317  -2.227  14.437  1.00  0.00     0.070 C 
ENDROOT
BRANCH   2   4
HETATM    4  C10 UNK     1      19.973  -4.086  15.095  1.00  0.00     0.231 C 
BRANCH   4   5
HETATM    5  O2  UNK     1      19.303  -4.659  13.972  1.00  0.00    -0.345 OA
BRANCH   5   6
HETATM    6  C4  UNK     1      20.015  -5.525  13.203  1.00  0.00     0.071 A 
HETATM    7  C6  UNK     1      20.678  -6.599  13.788  1.00  0.00     0.075 A 
HETATM    8  C2  UNK     1      21.402  -7.476  12.979  1.00  0.00     0.092 A 
HETATM    9  C1  UNK     1      21.488  -7.316  11.595  1.00  0.00     0.004 A 
HETATM   10  O1  UNK     1      22.052  -8.543  13.630  1.00  0.00    -0.275 OA
HETATM   11  C3  UNK     1      22.273  -8.287  10.821  1.00  0.00    -0.043 A 
HETATM   12  C5  UNK     1      20.813  -6.229  11.024  1.00  0.00     0.017 A 
HETATM   13  C8  UNK     1      22.880  -9.292  11.467  1.00  0.00     0.090 A 
HETATM   14  C9  UNK     1      22.384  -8.141   9.331  1.00  0.00     0.049 C 
HETATM   15  C11 UNK     1      22.800  -9.474  12.926  1.00  0.00     0.288 A 
HETATM   16  O3  UNK     1      23.369 -10.408  13.482  1.00  0.00    -0.260 OA
HETATM   17  C7  UNK     1      20.082  -5.341  11.823  1.00  0.00     0.038 A 
ENDBRANCH   5   6
ENDBRANCH   4   5
ENDBRANCH   2   4
BRANCH   1  18
HETATM   18  N1  UNK     1      18.981  -0.824  16.547  1.00  0.00    -0.276 N 
HETATM   19  H12 UNK     1      18.316  -0.544  15.841  1.00  0.00     0.189 HD
BRANCH  18  20
HETATM   20  C12 UNK     1      19.157  -0.014  17.680  1.00  0.00     0.083 A 
HETATM   21  C14 UNK     1      19.306   1.373  17.569  1.00  0.00     0.133 A 
HETATM   22  C16 UNK     1      19.480   2.157  18.710  1.00  0.00     0.074 A 
HETATM   23  C17 UNK     1      19.504   1.558  19.970  1.00  0.00     0.105 A 
HETATM   24  C18 UNK     1      19.354   0.176  20.088  1.00  0.00     0.038 A 
HETATM   25  C15 UNK     1      19.182  -0.608  18.947  1.00  0.00     0.036 A 
BRANCH  21  26
HETATM   26  N3  UNK     1      19.284   2.009  16.296  1.00  0.00    -0.113 N 
HETATM   27  O4  UNK     1      18.572   3.029  16.143  1.00  0.00    -0.532 OA
HETATM   28  O5  UNK     1      19.977   1.531  15.369  1.00  0.00    -0.532 OA
ENDBRANCH  21  26
BRANCH  23  29
HETATM   29  N4  UNK     1      19.680   2.354  21.132  1.00  0.00    -0.116 N 
HETATM   30  O6  UNK     1      20.841   2.688  21.470  1.00  0.00    -0.532 OA
HETATM   31  O7  UNK     1      18.669   2.702  21.789  1.00  0.00    -0.532 OA
ENDBRANCH  23  29
ENDBRANCH  18  20
ENDBRANCH   1  18
TORSDOF 7
ENDMDL
MODEL 9
REMARK VINA RESULT:      -9.2      2.849      9.949
REMARK  7 active torsions:
REMARK  status: ('A' for Active; 'I' for Inactive)
REMARK    1  A    between atoms: C10_21  and  O2_2 
REMARK    2  A    between atoms: C4_15  and  O2_2 
REMARK    3  A    between atoms: C12_23  and  N1_8 
REMARK    4  A    between atoms: N1_8  and  N2_9 
REMARK    5  A    between atoms: C14_25  and  N3_10 
REMARK    6  A    between atoms: C17_28  and  N4_11 
REMARK    7  A    between atoms: C10_21  and  C13_24 
ROOT
HETATM    1  N2  UNK     1      20.289  -4.576  36.527  1.00  0.00    -0.182 NA
HETATM    2  C13 UNK     1      20.003  -3.312  36.431  1.00  0.00     0.052 C 
HETATM    3  C19 UNK     1      19.083  -2.725  37.474  1.00  0.00     0.070 C 
ENDROOT
BRANCH   2   4
HETATM    4  C10 UNK     1      20.526  -2.364  35.372  1.00  0.00     0.231 C 
BRANCH   4   5
HETATM    5  O2  UNK     1      20.552  -3.039  34.114  1.00  0.00    -0.345 OA
BRANCH   5   6
HETATM    6  C4  UNK     1      20.276  -2.298  33.009  1.00  0.00     0.071 A 
HETATM    7  C6  UNK     1      19.609  -1.083  33.129  1.00  0.00     0.075 A 
HETATM    8  C2  UNK     1      19.335  -0.338  31.981  1.00  0.00     0.092 A 
HETATM    9  C1  UNK     1      19.708  -0.768  30.706  1.00  0.00     0.004 A 
HETATM   10  O1  UNK     1      18.656   0.882  32.168  1.00  0.00    -0.275 OA
HETATM   11  C3  UNK     1      19.379   0.080  29.553  1.00  0.00    -0.043 A 
HETATM   12  C5  UNK     1      20.380  -1.994  30.606  1.00  0.00     0.017 A 
HETATM   13  C8  UNK     1      18.734   1.236  29.761  1.00  0.00     0.090 A 
HETATM   14  C9  UNK     1      19.767  -0.355  28.170  1.00  0.00     0.049 C 
HETATM   15  C11 UNK     1      18.333   1.704  31.099  1.00  0.00     0.288 A 
HETATM   16  O3  UNK     1      17.743   2.768  31.250  1.00  0.00    -0.260 OA
HETATM   17  C7  UNK     1      20.661  -2.752  31.748  1.00  0.00     0.038 A 
ENDBRANCH   5   6
ENDBRANCH   4   5
ENDBRANCH   2   4
BRANCH   1  18
HETATM   18  N1  UNK     1      19.743  -5.259  37.549  1.00  0.00    -0.276 N 
HETATM   19  H12 UNK     1      19.208  -4.775  38.254  1.00  0.00     0.189 HD
BRANCH  18  20
HETATM   20  C12 UNK     1      19.838  -6.659  37.603  1.00  0.00     0.083 A 
HETATM   21  C14 UNK     1      18.924  -7.478  36.929  1.00  0.00     0.133 A 
HETATM   22  C16 UNK     1      19.040  -8.867  36.999  1.00  0.00     0.074 A 
HETATM   23  C17 UNK     1      20.070  -9.444  37.742  1.00  0.00     0.105 A 
HETATM   24  C18 UNK     1      20.984  -8.634  38.414  1.00  0.00     0.038 A 
HETATM   25  C15 UNK     1      20.869  -7.245  38.346  1.00  0.00     0.036 A 
BRANCH  21  26
HETATM   26  N3  UNK     1      17.866  -6.915  36.164  1.00  0.00    -0.113 N 
HETATM   27  O4  UNK     1      17.712  -7.288  34.978  1.00  0.00    -0.532 OA
HETATM   28  O5  UNK     1      17.119  -6.063  36.699  1.00  0.00    -0.532 OA
ENDBRANCH  21  26
BRANCH  23  29
HETATM   29  N4  UNK     1      20.189 -10.857  37.813  1.00  0.00    -0.116 N 
HETATM   30  O6  UNK     1      19.307 -11.512  38.419  1.00  0.00    -0.532 OA
HETATM   31  O7  UNK     1      21.172 -11.413  37.266  1.00  0.00    -0.532 OA
ENDBRANCH  23  29
ENDBRANCH  18  20
ENDBRANCH   1  18
TORSDOF 7
ENDMDL
MODEL 10
REMARK VINA RESULT:      -9.1      2.052      2.551
REMARK  7 active torsions:
REMARK  status: ('A' for Active; 'I' for Inactive)
REMARK    1  A    between atoms: C10_21  and  O2_2 
REMARK    2  A    between atoms: C4_15  and  O2_2 
REMARK    3  A    between atoms: C12_23  and  N1_8 
REMARK    4  A    between atoms: N1_8  and  N2_9 
REMARK    5  A    between atoms: C14_25  and  N3_10 
REMARK    6  A    between atoms: C17_28  and  N4_11 
REMARK    7  A    between atoms: C10_21  and  C13_24 
ROOT
HETATM    1  N2  UNK     1      19.241  -0.779  35.053  1.00  0.00    -0.182 NA
HETATM    2  C13 UNK     1      18.530  -1.396  35.949  1.00  0.00     0.052 C 
HETATM    3  C19 UNK     1      17.029  -1.274  35.854  1.00  0.00     0.070 C 
ENDROOT
BRANCH   2   4
HETATM    4  C10 UNK     1      19.074  -2.249  37.077  1.00  0.00     0.231 C 
BRANCH   4   5
HETATM    5  O2  UNK     1      20.050  -3.148  36.552  1.00  0.00    -0.345 OA
BRANCH   5   6
HETATM    6  C4  UNK     1      20.018  -4.430  37.006  1.00  0.00     0.071 A 
HETATM    7  C6  UNK     1      21.033  -4.905  37.830  1.00  0.00     0.075 A 
HETATM    8  C2  UNK     1      20.980  -6.224  38.286  1.00  0.00     0.092 A 
HETATM    9  C1  UNK     1      19.939  -7.090  37.944  1.00  0.00     0.004 A 
HETATM   10  O1  UNK     1      22.036  -6.647  39.116  1.00  0.00    -0.275 OA
HETATM   11  C3  UNK     1      19.965  -8.462  38.468  1.00  0.00    -0.043 A 
HETATM   12  C5  UNK     1      18.927  -6.592  37.113  1.00  0.00     0.017 A 
HETATM   13  C8  UNK     1      20.981  -8.837  39.256  1.00  0.00     0.090 A 
HETATM   14  C9  UNK     1      18.860  -9.416  38.118  1.00  0.00     0.049 C 
HETATM   15  C11 UNK     1      22.086  -7.935  39.627  1.00  0.00     0.288 A 
HETATM   16  O3  UNK     1      23.000  -8.314  40.351  1.00  0.00    -0.260 OA
HETATM   17  C7  UNK     1      18.967  -5.272  36.648  1.00  0.00     0.038 A 
ENDBRANCH   5   6
ENDBRANCH   4   5
ENDBRANCH   2   4
BRANCH   1  18
HETATM   18  N1  UNK     1      18.580  -0.080  34.113  1.00  0.00    -0.276 N 
HETATM   19  H12 UNK     1      17.836   0.549  34.376  1.00  0.00     0.189 HD
BRANCH  18  20
HETATM   20  C12 UNK     1      18.970  -0.151  32.765  1.00  0.00     0.083 A 
HETATM   21  C14 UNK     1      18.819   0.943  31.905  1.00  0.00     0.133 A 
HETATM   22  C16 UNK     1      19.214   0.848  30.569  1.00  0.00     0.074 A 
HETATM   23  C17 UNK     1      19.763  -0.341  30.088  1.00  0.00     0.105 A 
HETATM   24  C18 UNK     1      19.917  -1.434  30.941  1.00  0.00     0.038 A 
HETATM   25  C15 UNK     1      19.521  -1.339  32.276  1.00  0.00     0.036 A 
BRANCH  21  26
HETATM   26  N3  UNK     1      18.264   2.167  32.371  1.00  0.00    -0.113 N 
HETATM   27  O4  UNK     1      18.501   2.529  33.547  1.00  0.00    -0.532 OA
HETATM   28  O5  UNK     1      17.555   2.845  31.591  1.00  0.00    -0.532 OA
ENDBRANCH  21  26
BRANCH  23  29
HETATM   29  N4  UNK     1      20.165  -0.439  28.730  1.00  0.00    -0.116 N 
HETATM   30  O6  UNK     1      19.286  -0.465  27.835  1.00  0.00    -0.532 OA
HETATM   31  O7  UNK     1      21.390  -0.496  28.462  1.00  0.00    -0.532 OA
ENDBRANCH  23  29
ENDBRANCH  18  20
ENDBRANCH   1  18
TORSDOF 7
ENDMDL
