MODEL 1
REMARK VINA RESULT:      -8.5      0.000      0.000
REMARK  4 active torsions:
REMARK  status: ('A' for Active; 'I' for Inactive)
REMARK    1  A    between atoms: C10_13  and  O2_2 
REMARK    2  A    between atoms: C13_16  and  O2_2 
REMARK    3  A    between atoms: C3_6  and  C5_8 
REMARK    4  A    between atoms: C13_16  and  C14_17 
ROOT
HETATM    1  O1  UNK     1      16.074   6.308  32.666  1.00  0.00    -0.274 OA
HETATM    2  O3  UNK     1      14.526   7.555  33.762  1.00  0.00    -0.259 OA
HETATM    3  C1  UNK     1      18.080   8.054  33.633  1.00  0.00    -0.037 A 
HETATM    4  C2  UNK     1      18.428   6.913  32.762  1.00  0.00     0.005 A 
HETATM    5  C3  UNK     1      16.787   8.285  33.940  1.00  0.00     0.024 A 
HETATM    6  C4  UNK     1      17.411   6.077  32.310  1.00  0.00     0.092 A 
HETATM    7  C6  UNK     1      19.735   6.613  32.344  1.00  0.00     0.017 A 
HETATM    8  C7  UNK     1      15.703   7.378  33.463  1.00  0.00     0.295 A 
HETATM    9  C8  UNK     1      17.653   4.976  31.485  1.00  0.00     0.075 A 
HETATM   10  C9  UNK     1      19.225   8.895  34.144  1.00  0.00     0.050 C 
HETATM   11  C10 UNK     1      18.955   4.695  31.088  1.00  0.00     0.071 A 
HETATM   12  C11 UNK     1      19.996   5.514  31.517  1.00  0.00     0.038 A 
ENDROOT
BRANCH  11  13
HETATM   13  O2  UNK     1      19.211   3.629  30.283  1.00  0.00    -0.347 OA
BRANCH  13  14
HETATM   14  C13 UNK     1      18.247   2.576  30.272  1.00  0.00     0.214 C 
BRANCH  14  15
HETATM   15  C14 UNK     1      18.979   1.316  29.931  1.00  0.00    -0.034 A 
HETATM   16  C15 UNK     1      19.784   0.703  30.887  1.00  0.00     0.009 A 
HETATM   17  C17 UNK     1      20.468  -0.471  30.568  1.00  0.00     0.001 A 
HETATM   18  C19 UNK     1      20.343  -1.026  29.295  1.00  0.00     0.000 A 
HETATM   19  C18 UNK     1      19.535  -0.409  28.341  1.00  0.00     0.001 A 
HETATM   20  C16 UNK     1      18.852   0.765  28.659  1.00  0.00     0.009 A 
ENDBRANCH  14  15
ENDBRANCH  13  14
ENDBRANCH  11  13
BRANCH   5  21
HETATM   21  C5  UNK     1      16.290   9.446  34.763  1.00  0.00     0.041 C 
HETATM   22  C12 UNK     1      16.035  10.665  33.902  1.00  0.00     0.010 C 
ENDBRANCH   5  21
TORSDOF 4
ENDMDL
MODEL 2
REMARK VINA RESULT:      -8.3      1.539      1.947
REMARK  4 active torsions:
REMARK  status: ('A' for Active; 'I' for Inactive)
REMARK    1  A    between atoms: C10_13  and  O2_2 
REMARK    2  A    between atoms: C13_16  and  O2_2 
REMARK    3  A    between atoms: C3_6  and  C5_8 
REMARK    4  A    between atoms: C13_16  and  C14_17 
ROOT
HETATM    1  O1  UNK     1      16.178   8.398  32.996  1.00  0.00    -0.274 OA
HETATM    2  O3  UNK     1      15.478  10.487  33.546  1.00  0.00    -0.259 OA
HETATM    3  C1  UNK     1      18.749   9.064  33.974  1.00  0.00    -0.037 A 
HETATM    4  C2  UNK     1      18.480   7.728  33.404  1.00  0.00     0.005 A 
HETATM    5  C3  UNK     1      17.765   9.987  33.994  1.00  0.00     0.024 A 
HETATM    6  C4  UNK     1      17.201   7.441  32.936  1.00  0.00     0.092 A 
HETATM    7  C6  UNK     1      19.445   6.714  33.292  1.00  0.00     0.017 A 
HETATM    8  C7  UNK     1      16.393   9.669  33.503  1.00  0.00     0.295 A 
HETATM    9  C8  UNK     1      16.862   6.203  32.384  1.00  0.00     0.075 A 
HETATM   10  C9  UNK     1      20.135   9.306  34.520  1.00  0.00     0.050 C 
HETATM   11  C10 UNK     1      17.832   5.212  32.287  1.00  0.00     0.071 A 
HETATM   12  C11 UNK     1      19.123   5.467  32.741  1.00  0.00     0.038 A 
ENDROOT
BRANCH  11  13
HETATM   13  O2  UNK     1      17.522   4.001  31.752  1.00  0.00    -0.347 OA
BRANCH  13  14
HETATM   14  C13 UNK     1      18.349   2.897  32.120  1.00  0.00     0.214 C 
BRANCH  14  15
HETATM   15  C14 UNK     1      18.565   2.082  30.883  1.00  0.00    -0.034 A 
HETATM   16  C15 UNK     1      19.452   1.008  30.908  1.00  0.00     0.009 A 
HETATM   17  C17 UNK     1      19.655   0.250  29.755  1.00  0.00     0.001 A 
HETATM   18  C19 UNK     1      18.970   0.567  28.583  1.00  0.00     0.000 A 
HETATM   19  C18 UNK     1      18.083   1.642  28.561  1.00  0.00     0.001 A 
HETATM   20  C16 UNK     1      17.880   2.402  29.714  1.00  0.00     0.009 A 
ENDBRANCH  14  15
ENDBRANCH  13  14
ENDBRANCH  11  13
BRANCH   5  21
HETATM   21  C5  UNK     1      17.921  11.404  34.486  1.00  0.00     0.041 C 
HETATM   22  C12 UNK     1      18.634  12.267  33.468  1.00  0.00     0.010 C 
ENDBRANCH   5  21
TORSDOF 4
ENDMDL
MODEL 3
REMARK VINA RESULT:      -8.2      5.444      8.729
REMARK  4 active torsions:
REMARK  status: ('A' for Active; 'I' for Inactive)
REMARK    1  A    between atoms: C10_13  and  O2_2 
REMARK    2  A    between atoms: C13_16  and  O2_2 
REMARK    3  A    between atoms: C3_6  and  C5_8 
REMARK    4  A    between atoms: C13_16  and  C14_17 
ROOT
HETATM    1  O1  UNK     1      18.685   0.467  32.980  1.00  0.00    -0.274 OA
HETATM    2  O3  UNK     1      17.807   2.438  32.277  1.00  0.00    -0.259 OA
HETATM    3  C1  UNK     1      19.820   0.122  30.410  1.00  0.00    -0.037 A 
HETATM    4  C2  UNK     1      20.011  -0.896  31.463  1.00  0.00     0.005 A 
HETATM    5  C3  UNK     1      19.067   1.211  30.669  1.00  0.00     0.024 A 
HETATM    6  C4  UNK     1      19.437  -0.688  32.714  1.00  0.00     0.092 A 
HETATM    7  C6  UNK     1      20.735  -2.086  31.283  1.00  0.00     0.017 A 
HETATM    8  C7  UNK     1      18.465   1.436  32.016  1.00  0.00     0.295 A 
HETATM    9  C8  UNK     1      19.569  -1.599  33.764  1.00  0.00     0.075 A 
HETATM   10  C9  UNK     1      20.510  -0.124  29.091  1.00  0.00     0.050 C 
HETATM   11  C10 UNK     1      20.295  -2.767  33.565  1.00  0.00     0.071 A 
HETATM   12  C11 UNK     1      20.877  -3.011  32.324  1.00  0.00     0.038 A 
ENDROOT
BRANCH  11  13
HETATM   13  O2  UNK     1      20.433  -3.668  34.574  1.00  0.00    -0.347 OA
BRANCH  13  14
HETATM   14  C13 UNK     1      19.945  -3.285  35.859  1.00  0.00     0.214 C 
BRANCH  14  15
HETATM   15  C14 UNK     1      19.927  -4.519  36.707  1.00  0.00    -0.034 A 
HETATM   16  C15 UNK     1      20.914  -4.712  37.670  1.00  0.00     0.009 A 
HETATM   17  C17 UNK     1      20.899  -5.863  38.458  1.00  0.00     0.001 A 
HETATM   18  C19 UNK     1      19.897  -6.815  38.280  1.00  0.00     0.000 A 
HETATM   19  C18 UNK     1      18.910  -6.619  37.315  1.00  0.00     0.001 A 
HETATM   20  C16 UNK     1      18.925  -5.468  36.526  1.00  0.00     0.009 A 
ENDBRANCH  14  15
ENDBRANCH  13  14
ENDBRANCH  11  13
BRANCH   5  21
HETATM   21  C5  UNK     1      18.741   2.291  29.670  1.00  0.00     0.041 C 
HETATM   22  C12 UNK     1      17.749   1.806  28.634  1.00  0.00     0.010 C 
ENDBRANCH   5  21
TORSDOF 4
ENDMDL
MODEL 4
REMARK VINA RESULT:      -8.2      5.339      7.407
REMARK  4 active torsions:
REMARK  status: ('A' for Active; 'I' for Inactive)
REMARK    1  A    between atoms: C10_13  and  O2_2 
REMARK    2  A    between atoms: C13_16  and  O2_2 
REMARK    3  A    between atoms: C3_6  and  C5_8 
REMARK    4  A    between atoms: C13_16  and  C14_17 
ROOT
HETATM    1  O1  UNK     1      17.306  -0.691  33.730  1.00  0.00    -0.274 OA
HETATM    2  O3  UNK     1      15.909  -0.059  35.404  1.00  0.00    -0.259 OA
HETATM    3  C1  UNK     1      19.071  -1.740  35.678  1.00  0.00    -0.037 A 
HETATM    4  C2  UNK     1      19.402  -1.814  34.241  1.00  0.00     0.005 A 
HETATM    5  C3  UNK     1      17.930  -1.133  36.066  1.00  0.00     0.024 A 
HETATM    6  C4  UNK     1      18.507  -1.287  33.315  1.00  0.00     0.092 A 
HETATM    7  C6  UNK     1      20.584  -2.379  33.735  1.00  0.00     0.017 A 
HETATM    8  C7  UNK     1      16.967  -0.583  35.069  1.00  0.00     0.295 A 
HETATM    9  C8  UNK     1      18.742  -1.316  31.939  1.00  0.00     0.075 A 
HETATM   10  C9  UNK     1      20.048  -2.377  36.637  1.00  0.00     0.050 C 
HETATM   11  C10 UNK     1      19.916  -1.886  31.460  1.00  0.00     0.071 A 
HETATM   12  C11 UNK     1      20.837  -2.417  32.359  1.00  0.00     0.038 A 
ENDROOT
BRANCH  11  13
HETATM   13  O2  UNK     1      20.164  -1.923  30.124  1.00  0.00    -0.347 OA
BRANCH  13  14
HETATM   14  C13 UNK     1      20.831  -0.796  29.555  1.00  0.00     0.214 C 
BRANCH  14  15
HETATM   15  C14 UNK     1      19.800   0.272  29.366  1.00  0.00    -0.034 A 
HETATM   16  C15 UNK     1      19.763   1.360  30.235  1.00  0.00     0.009 A 
HETATM   17  C17 UNK     1      18.801   2.355  30.060  1.00  0.00     0.001 A 
HETATM   18  C19 UNK     1      17.881   2.259  29.017  1.00  0.00     0.000 A 
HETATM   19  C18 UNK     1      17.921   1.168  28.149  1.00  0.00     0.001 A 
HETATM   20  C16 UNK     1      18.883   0.173  28.324  1.00  0.00     0.009 A 
ENDBRANCH  14  15
ENDBRANCH  13  14
ENDBRANCH  11  13
BRANCH   5  21
HETATM   21  C5  UNK     1      17.503  -0.933  37.498  1.00  0.00     0.041 C 
HETATM   22  C12 UNK     1      17.773   0.481  37.963  1.00  0.00     0.010 C 
ENDBRANCH   5  21
TORSDOF 4
ENDMDL
MODEL 5
REMARK VINA RESULT:      -8.0      2.007      8.092
REMARK  4 active torsions:
REMARK  status: ('A' for Active; 'I' for Inactive)
REMARK    1  A    between atoms: C10_13  and  O2_2 
REMARK    2  A    between atoms: C13_16  and  O2_2 
REMARK    3  A    between atoms: C3_6  and  C5_8 
REMARK    4  A    between atoms: C13_16  and  C14_17 
ROOT
HETATM    1  O1  UNK     1      18.215   1.432  33.233  1.00  0.00    -0.274 OA
HETATM    2  O3  UNK     1      18.370  -0.723  33.928  1.00  0.00    -0.259 OA
HETATM    3  C1  UNK     1      19.273   0.640  30.730  1.00  0.00    -0.037 A 
HETATM    4  C2  UNK     1      18.924   2.051  30.990  1.00  0.00     0.005 A 
HETATM    5  C3  UNK     1      19.118  -0.273  31.711  1.00  0.00     0.024 A 
HETATM    6  C4  UNK     1      18.405   2.399  32.234  1.00  0.00     0.092 A 
HETATM    7  C6  UNK     1      19.091   3.087  30.056  1.00  0.00     0.017 A 
HETATM    8  C7  UNK     1      18.549   0.102  33.038  1.00  0.00     0.295 A 
HETATM    9  C8  UNK     1      18.048   3.709  32.561  1.00  0.00     0.075 A 
HETATM   10  C9  UNK     1      19.778   0.306  29.347  1.00  0.00     0.050 C 
HETATM   11  C10 UNK     1      18.217   4.717  31.620  1.00  0.00     0.071 A 
HETATM   12  C11 UNK     1      18.739   4.406  30.367  1.00  0.00     0.038 A 
ENDROOT
BRANCH  11  13
HETATM   13  O2  UNK     1      17.877   5.999  31.920  1.00  0.00    -0.347 OA
BRANCH  13  14
HETATM   14  C13 UNK     1      17.529   6.279  33.275  1.00  0.00     0.214 C 
BRANCH  14  15
HETATM   15  C14 UNK     1      18.190   7.572  33.638  1.00  0.00    -0.034 A 
HETATM   16  C15 UNK     1      19.519   7.577  34.054  1.00  0.00     0.009 A 
HETATM   17  C17 UNK     1      20.134   8.782  34.394  1.00  0.00     0.001 A 
HETATM   18  C19 UNK     1      19.419   9.976  34.316  1.00  0.00     0.000 A 
HETATM   19  C18 UNK     1      18.088   9.967  33.900  1.00  0.00     0.001 A 
HETATM   20  C16 UNK     1      17.472   8.762  33.560  1.00  0.00     0.009 A 
ENDBRANCH  14  15
ENDBRANCH  13  14
ENDBRANCH  11  13
BRANCH   5  21
HETATM   21  C5  UNK     1      19.494  -1.729  31.601  1.00  0.00     0.041 C 
HETATM   22  C12 UNK     1      20.933  -1.961  32.008  1.00  0.00     0.010 C 
ENDBRANCH   5  21
TORSDOF 4
ENDMDL
MODEL 6
REMARK VINA RESULT:      -7.9      2.849      7.192
REMARK  4 active torsions:
REMARK  status: ('A' for Active; 'I' for Inactive)
REMARK    1  A    between atoms: C10_13  and  O2_2 
REMARK    2  A    between atoms: C13_16  and  O2_2 
REMARK    3  A    between atoms: C3_6  and  C5_8 
REMARK    4  A    between atoms: C13_16  and  C14_17 
ROOT
HETATM    1  O1  UNK     1      17.744   2.176  33.929  1.00  0.00    -0.274 OA
HETATM    2  O3  UNK     1      17.304   1.128  35.894  1.00  0.00    -0.259 OA
HETATM    3  C1  UNK     1      18.721  -0.276  32.907  1.00  0.00    -0.037 A 
HETATM    4  C2  UNK     1      18.725   0.944  32.075  1.00  0.00     0.005 A 
HETATM    5  C3  UNK     1      18.279  -0.210  34.180  1.00  0.00     0.024 A 
HETATM    6  C4  UNK     1      18.234   2.129  32.615  1.00  0.00     0.092 A 
HETATM    7  C6  UNK     1      19.207   0.995  30.757  1.00  0.00     0.017 A 
HETATM    8  C7  UNK     1      17.742   1.060  34.749  1.00  0.00     0.295 A 
HETATM    9  C8  UNK     1      18.201   3.327  31.897  1.00  0.00     0.075 A 
HETATM   10  C9  UNK     1      19.210  -1.547  32.255  1.00  0.00     0.050 C 
HETATM   11  C10 UNK     1      18.678   3.353  30.592  1.00  0.00     0.071 A 
HETATM   12  C11 UNK     1      19.182   2.186  30.022  1.00  0.00     0.038 A 
ENDROOT
BRANCH  11  13
HETATM   13  O2  UNK     1      18.656   4.509  29.877  1.00  0.00    -0.347 OA
BRANCH  13  14
HETATM   14  C13 UNK     1      19.720   5.433  30.102  1.00  0.00     0.214 C 
BRANCH  14  15
HETATM   15  C14 UNK     1      19.340   6.255  31.294  1.00  0.00    -0.034 A 
HETATM   16  C15 UNK     1      20.232   6.391  32.354  1.00  0.00     0.009 A 
HETATM   17  C17 UNK     1      19.878   7.155  33.466  1.00  0.00     0.001 A 
HETATM   18  C19 UNK     1      18.633   7.781  33.513  1.00  0.00     0.000 A 
HETATM   19  C18 UNK     1      17.742   7.644  32.449  1.00  0.00     0.001 A 
HETATM   20  C16 UNK     1      18.096   6.879  31.337  1.00  0.00     0.009 A 
ENDBRANCH  14  15
ENDBRANCH  13  14
ENDBRANCH  11  13
BRANCH   5  21
HETATM   21  C5  UNK     1      18.280  -1.361  35.154  1.00  0.00     0.041 C 
HETATM   22  C12 UNK     1      19.626  -1.513  35.829  1.00  0.00     0.010 C 
ENDBRANCH   5  21
TORSDOF 4
ENDMDL
MODEL 7
REMARK VINA RESULT:      -7.8     14.780     17.153
REMARK  4 active torsions:
REMARK  status: ('A' for Active; 'I' for Inactive)
REMARK    1  A    between atoms: C10_13  and  O2_2 
REMARK    2  A    between atoms: C13_16  and  O2_2 
REMARK    3  A    between atoms: C3_6  and  C5_8 
REMARK    4  A    between atoms: C13_16  and  C14_17 
ROOT
HETATM    1  O1  UNK     1      28.155  -5.066  39.263  1.00  0.00    -0.274 OA
HETATM    2  O3  UNK     1      29.881  -3.611  39.495  1.00  0.00    -0.259 OA
HETATM    3  C1  UNK     1      29.984  -6.988  38.276  1.00  0.00    -0.037 A 
HETATM    4  C2  UNK     1      28.545  -7.303  38.391  1.00  0.00     0.005 A 
HETATM    5  C3  UNK     1      30.422  -5.757  38.614  1.00  0.00     0.024 A 
HETATM    6  C4  UNK     1      27.679  -6.330  38.882  1.00  0.00     0.092 A 
HETATM    7  C6  UNK     1      27.979  -8.534  38.022  1.00  0.00     0.017 A 
HETATM    8  C7  UNK     1      29.492  -4.723  39.152  1.00  0.00     0.295 A 
HETATM    9  C8  UNK     1      26.307  -6.546  39.023  1.00  0.00     0.075 A 
HETATM   10  C9  UNK     1      30.888  -8.096  37.793  1.00  0.00     0.050 C 
HETATM   11  C10 UNK     1      25.769  -7.774  38.657  1.00  0.00     0.071 A 
HETATM   12  C11 UNK     1      26.605  -8.768  38.157  1.00  0.00     0.038 A 
ENDROOT
BRANCH  11  13
HETATM   13  O2  UNK     1      24.434  -8.004  38.786  1.00  0.00    -0.347 OA
BRANCH  13  14
HETATM   14  C13 UNK     1      23.620  -6.899  39.177  1.00  0.00     0.214 C 
BRANCH  14  15
HETATM   15  C14 UNK     1      22.201  -7.376  39.165  1.00  0.00    -0.034 A 
HETATM   16  C15 UNK     1      21.166  -6.466  38.969  1.00  0.00     0.009 A 
HETATM   17  C17 UNK     1      19.844  -6.911  38.959  1.00  0.00     0.001 A 
HETATM   18  C19 UNK     1      19.562  -8.263  39.145  1.00  0.00     0.000 A 
HETATM   19  C18 UNK     1      20.601  -9.172  39.342  1.00  0.00     0.001 A 
HETATM   20  C16 UNK     1      21.924  -8.728  39.352  1.00  0.00     0.009 A 
ENDBRANCH  14  15
ENDBRANCH  13  14
ENDBRANCH  11  13
BRANCH   5  21
HETATM   21  C5  UNK     1      31.848  -5.285  38.485  1.00  0.00     0.041 C 
HETATM   22  C12 UNK     1      32.118  -4.706  37.113  1.00  0.00     0.010 C 
ENDBRANCH   5  21
TORSDOF 4
ENDMDL
MODEL 8
REMARK VINA RESULT:      -7.7     22.308     24.663
REMARK  4 active torsions:
REMARK  status: ('A' for Active; 'I' for Inactive)
REMARK    1  A    between atoms: C10_13  and  O2_2 
REMARK    2  A    between atoms: C13_16  and  O2_2 
REMARK    3  A    between atoms: C3_6  and  C5_8 
REMARK    4  A    between atoms: C13_16  and  C14_17 
ROOT
HETATM    1  O1  UNK     1      13.950   5.005   8.776  1.00  0.00    -0.274 OA
HETATM    2  O3  UNK     1      15.989   4.641   9.704  1.00  0.00    -0.259 OA
HETATM    3  C1  UNK     1      14.434   7.788   8.943  1.00  0.00    -0.037 A 
HETATM    4  C2  UNK     1      13.165   7.274   8.390  1.00  0.00     0.005 A 
HETATM    5  C3  UNK     1      15.357   6.919   9.405  1.00  0.00     0.024 A 
HETATM    6  C4  UNK     1      12.967   5.898   8.324  1.00  0.00     0.092 A 
HETATM    7  C6  UNK     1      12.121   8.092   7.927  1.00  0.00     0.017 A 
HETATM    8  C7  UNK     1      15.145   5.445   9.320  1.00  0.00     0.295 A 
HETATM    9  C8  UNK     1      11.797   5.329   7.815  1.00  0.00     0.075 A 
HETATM   10  C9  UNK     1      14.623   9.286   8.939  1.00  0.00     0.050 C 
HETATM   11  C10 UNK     1      10.779   6.158   7.358  1.00  0.00     0.071 A 
HETATM   12  C11 UNK     1      10.941   7.540   7.414  1.00  0.00     0.038 A 
ENDROOT
BRANCH  11  13
HETATM   13  O2  UNK     1       9.632   5.623   6.860  1.00  0.00    -0.347 OA
BRANCH  13  14
HETATM   14  C13 UNK     1       8.458   6.433   6.921  1.00  0.00     0.214 C 
BRANCH  14  15
HETATM   15  C14 UNK     1       7.924   6.325   8.315  1.00  0.00    -0.034 A 
HETATM   16  C15 UNK     1       7.674   5.071   8.866  1.00  0.00     0.009 A 
HETATM   17  C17 UNK     1       7.175   4.971  10.164  1.00  0.00     0.001 A 
HETATM   18  C19 UNK     1       6.928   6.125  10.907  1.00  0.00     0.000 A 
HETATM   19  C18 UNK     1       7.179   7.379  10.352  1.00  0.00     0.001 A 
HETATM   20  C16 UNK     1       7.678   7.480   9.053  1.00  0.00     0.009 A 
ENDBRANCH  14  15
ENDBRANCH  13  14
ENDBRANCH  11  13
BRANCH   5  21
HETATM   21  C5  UNK     1      16.662   7.309  10.050  1.00  0.00     0.041 C 
HETATM   22  C12 UNK     1      16.459   7.767  11.478  1.00  0.00     0.010 C 
ENDBRANCH   5  21
TORSDOF 4
ENDMDL
MODEL 9
REMARK VINA RESULT:      -7.7      7.882     10.169
REMARK  4 active torsions:
REMARK  status: ('A' for Active; 'I' for Inactive)
REMARK    1  A    between atoms: C10_13  and  O2_2 
REMARK    2  A    between atoms: C13_16  and  O2_2 
REMARK    3  A    between atoms: C3_6  and  C5_8 
REMARK    4  A    between atoms: C13_16  and  C14_17 
ROOT
HETATM    1  O1  UNK     1      19.476  -1.481  33.787  1.00  0.00    -0.274 OA
HETATM    2  O3  UNK     1      18.831   0.146  32.341  1.00  0.00    -0.259 OA
HETATM    3  C1  UNK     1      18.221  -0.041  35.876  1.00  0.00    -0.037 A 
HETATM    4  C2  UNK     1      18.914  -1.317  36.148  1.00  0.00     0.005 A 
HETATM    5  C3  UNK     1      18.218   0.458  34.622  1.00  0.00     0.024 A 
HETATM    6  C4  UNK     1      19.518  -1.994  35.092  1.00  0.00     0.092 A 
HETATM    7  C6  UNK     1      19.018  -1.898  37.422  1.00  0.00     0.017 A 
HETATM    8  C7  UNK     1      18.855  -0.279  33.492  1.00  0.00     0.295 A 
HETATM    9  C8  UNK     1      20.192  -3.205  35.262  1.00  0.00     0.075 A 
HETATM   10  C9  UNK     1      17.534   0.624  37.044  1.00  0.00     0.050 C 
HETATM   11  C10 UNK     1      20.277  -3.766  36.531  1.00  0.00     0.071 A 
HETATM   12  C11 UNK     1      19.690  -3.112  37.611  1.00  0.00     0.038 A 
ENDROOT
BRANCH  11  13
HETATM   13  O2  UNK     1      20.931  -4.943  36.718  1.00  0.00    -0.347 OA
BRANCH  13  14
HETATM   14  C13 UNK     1      21.568  -5.140  37.980  1.00  0.00     0.214 C 
BRANCH  14  15
HETATM   15  C14 UNK     1      21.154  -6.491  38.473  1.00  0.00    -0.034 A 
HETATM   16  C15 UNK     1      22.053  -7.271  39.196  1.00  0.00     0.009 A 
HETATM   17  C17 UNK     1      21.668  -8.530  39.654  1.00  0.00     0.001 A 
HETATM   18  C19 UNK     1      20.383  -9.005  39.389  1.00  0.00     0.000 A 
HETATM   19  C18 UNK     1      19.485  -8.222  38.666  1.00  0.00     0.001 A 
HETATM   20  C16 UNK     1      19.871  -6.962  38.207  1.00  0.00     0.009 A 
ENDBRANCH  14  15
ENDBRANCH  13  14
ENDBRANCH  11  13
BRANCH   5  21
HETATM   21  C5  UNK     1      17.606   1.776  34.221  1.00  0.00     0.041 C 
HETATM   22  C12 UNK     1      18.518   2.935  34.557  1.00  0.00     0.010 C 
ENDBRANCH   5  21
TORSDOF 4
ENDMDL
MODEL 10
REMARK VINA RESULT:      -7.7     14.879     20.165
REMARK  4 active torsions:
REMARK  status: ('A' for Active; 'I' for Inactive)
REMARK    1  A    between atoms: C10_13  and  O2_2 
REMARK    2  A    between atoms: C13_16  and  O2_2 
REMARK    3  A    between atoms: C3_6  and  C5_8 
REMARK    4  A    between atoms: C13_16  and  C14_17 
ROOT
HETATM    1  O1  UNK     1      20.234  -1.389  12.454  1.00  0.00    -0.274 OA
HETATM    2  O3  UNK     1      21.285  -1.359  10.442  1.00  0.00    -0.259 OA
HETATM    3  C1  UNK     1      19.598  -4.112  12.016  1.00  0.00    -0.037 A 
HETATM    4  C2  UNK     1      19.166  -3.424  13.250  1.00  0.00     0.005 A 
HETATM    5  C3  UNK     1      20.273  -3.422  11.074  1.00  0.00     0.024 A 
HETATM    6  C4  UNK     1      19.501  -2.085  13.427  1.00  0.00     0.092 A 
HETATM    7  C6  UNK     1      18.419  -4.036  14.270  1.00  0.00     0.017 A 
HETATM    8  C7  UNK     1      20.641  -1.990  11.275  1.00  0.00     0.295 A 
HETATM    9  C8  UNK     1      19.133  -1.361  14.563  1.00  0.00     0.075 A 
HETATM   10  C9  UNK     1      19.260  -5.578  11.899  1.00  0.00     0.050 C 
HETATM   11  C10 UNK     1      18.399  -1.988  15.563  1.00  0.00     0.071 A 
HETATM   12  C11 UNK     1      18.041  -3.325  15.416  1.00  0.00     0.038 A 
ENDROOT
BRANCH  11  13
HETATM   13  O2  UNK     1      18.029  -1.300  16.676  1.00  0.00    -0.347 OA
BRANCH  13  14
HETATM   14  C13 UNK     1      19.020  -1.121  17.688  1.00  0.00     0.214 C 
BRANCH  14  15
HETATM   15  C14 UNK     1      19.005   0.328  18.063  1.00  0.00    -0.034 A 
HETATM   16  C15 UNK     1      19.155   1.300  17.078  1.00  0.00     0.009 A 
HETATM   17  C17 UNK     1      19.143   2.651  17.428  1.00  0.00     0.001 A 
HETATM   18  C19 UNK     1      18.980   3.023  18.761  1.00  0.00     0.000 A 
HETATM   19  C18 UNK     1      18.829   2.047  19.745  1.00  0.00     0.001 A 
HETATM   20  C16 UNK     1      18.842   0.696  19.396  1.00  0.00     0.009 A 
ENDBRANCH  14  15
ENDBRANCH  13  14
ENDBRANCH  11  13
BRANCH   5  21
HETATM   21  C5  UNK     1      20.716  -3.983   9.746  1.00  0.00     0.041 C 
HETATM   22  C12 UNK     1      19.651  -3.800   8.686  1.00  0.00     0.010 C 
ENDBRANCH   5  21
TORSDOF 4
ENDMDL
