MODEL 1
REMARK VINA RESULT:      -8.0      0.000      0.000
REMARK  1 active torsions:
REMARK  status: ('A' for Active; 'I' for Inactive)
REMARK    1  A    between atoms: C1_4  and  C2_5 
ROOT
HETATM    1 Br1  UNK     1      13.566  12.237  36.231  1.00  0.00    -0.051 Br
HETATM    2  O1  UNK     1      17.579   8.947  33.121  1.00  0.00    -0.309 OA
HETATM    3  O2  UNK     1      14.006   7.214  34.031  1.00  0.00    -0.287 OA
HETATM    4  C1  UNK     1      17.286   7.645  32.746  1.00  0.00     0.090 A 
HETATM    5  C3  UNK     1      15.396   9.121  34.171  1.00  0.00     0.049 A 
HETATM    6  C4  UNK     1      16.637   9.652  33.825  1.00  0.00     0.090 A 
HETATM    7  C5  UNK     1      16.125   7.024  33.013  1.00  0.00     0.093 A 
HETATM    8  C6  UNK     1      15.077   7.743  33.765  1.00  0.00     0.187 A 
HETATM    9  C10 UNK     1      14.474   9.886  34.888  1.00  0.00     0.037 A 
HETATM   10  C11 UNK     1      16.964  10.957  34.196  1.00  0.00     0.039 A 
HETATM   11  C14 UNK     1      14.803  11.190  35.258  1.00  0.00     0.012 A 
HETATM   12  C15 UNK     1      16.046  11.724  34.913  1.00  0.00     0.022 A 
ENDROOT
BRANCH   4  13
HETATM   13  C2  UNK     1      18.366   6.980  31.990  1.00  0.00    -0.002 A 
HETATM   14  C7  UNK     1      19.619   6.788  32.577  1.00  0.00     0.021 A 
HETATM   15  C8  UNK     1      20.639   6.158  31.863  1.00  0.00    -0.061 A 
HETATM   16  C12 UNK     1      20.409   5.721  30.558  1.00  0.00     0.007 A 
HETATM   17  C16 UNK     1      21.975   5.953  32.494  1.00  0.00     0.048 C 
HETATM   18  C13 UNK     1      19.159   5.911  29.969  1.00  0.00     0.001 A 
HETATM   19  C9  UNK     1      18.140   6.540  30.683  1.00  0.00     0.014 A 
ENDBRANCH   4  13
TORSDOF 1
ENDMDL
MODEL 2
REMARK VINA RESULT:      -7.8      4.084      6.813
REMARK  1 active torsions:
REMARK  status: ('A' for Active; 'I' for Inactive)
REMARK    1  A    between atoms: C1_4  and  C2_5 
ROOT
HETATM    1 Br1  UNK     1      18.294   1.226  28.867  1.00  0.00    -0.051 Br
HETATM    2  O1  UNK     1      18.945   6.551  31.664  1.00  0.00    -0.309 OA
HETATM    3  O2  UNK     1      17.914   3.330  33.936  1.00  0.00    -0.287 OA
HETATM    4  C1  UNK     1      18.737   6.661  33.031  1.00  0.00     0.090 A 
HETATM    5  C3  UNK     1      18.433   4.181  31.793  1.00  0.00     0.049 A 
HETATM    6  C4  UNK     1      18.785   5.322  31.076  1.00  0.00     0.090 A 
HETATM    7  C5  UNK     1      18.402   5.635  33.830  1.00  0.00     0.093 A 
HETATM    8  C6  UNK     1      18.222   4.291  33.244  1.00  0.00     0.187 A 
HETATM    9  C10 UNK     1      18.285   2.955  31.141  1.00  0.00     0.037 A 
HETATM   10  C11 UNK     1      18.993   5.245  29.699  1.00  0.00     0.039 A 
HETATM   11  C14 UNK     1      18.492   2.879  29.763  1.00  0.00     0.012 A 
HETATM   12  C15 UNK     1      18.845   4.022  29.044  1.00  0.00     0.022 A 
ENDROOT
BRANCH   4  13
HETATM   13  C2  UNK     1      18.940   8.024  33.561  1.00  0.00    -0.002 A 
HETATM   14  C7  UNK     1      17.880   8.934  33.584  1.00  0.00     0.021 A 
HETATM   15  C8  UNK     1      18.072  10.222  34.086  1.00  0.00    -0.061 A 
HETATM   16  C12 UNK     1      19.325  10.603  34.566  1.00  0.00     0.007 A 
HETATM   17  C16 UNK     1      16.938  11.190  34.112  1.00  0.00     0.048 C 
HETATM   18  C13 UNK     1      20.386   9.698  34.544  1.00  0.00     0.001 A 
HETATM   19  C9  UNK     1      20.194   8.411  34.042  1.00  0.00     0.014 A 
ENDBRANCH   4  13
TORSDOF 1
ENDMDL
MODEL 3
REMARK VINA RESULT:      -7.7      6.141      7.794
REMARK  1 active torsions:
REMARK  status: ('A' for Active; 'I' for Inactive)
REMARK    1  A    between atoms: C1_4  and  C2_5 
ROOT
HETATM    1 Br1  UNK     1      18.092  -1.983  37.245  1.00  0.00    -0.051 Br
HETATM    2  O1  UNK     1      18.145   3.065  33.910  1.00  0.00    -0.309 OA
HETATM    3  O2  UNK     1      18.759  -0.478  31.995  1.00  0.00    -0.287 OA
HETATM    4  C1  UNK     1      18.370   3.006  32.543  1.00  0.00     0.090 A 
HETATM    5  C3  UNK     1      18.347   0.648  34.032  1.00  0.00     0.049 A 
HETATM    6  C4  UNK     1      18.143   1.893  34.623  1.00  0.00     0.090 A 
HETATM    7  C5  UNK     1      18.573   1.869  31.859  1.00  0.00     0.093 A 
HETATM    8  C6  UNK     1      18.576   0.580  32.581  1.00  0.00     0.187 A 
HETATM    9  C10 UNK     1      18.333  -0.513  34.808  1.00  0.00     0.037 A 
HETATM   10  C11 UNK     1      17.922   1.985  35.998  1.00  0.00     0.039 A 
HETATM   11  C14 UNK     1      18.112  -0.419  36.182  1.00  0.00     0.012 A 
HETATM   12  C15 UNK     1      17.908   0.827  36.776  1.00  0.00     0.022 A 
ENDROOT
BRANCH   4  13
HETATM   13  C2  UNK     1      18.348   4.322  31.874  1.00  0.00    -0.002 A 
HETATM   14  C7  UNK     1      17.587   5.367  32.403  1.00  0.00     0.021 A 
HETATM   15  C8  UNK     1      17.566   6.610  31.771  1.00  0.00    -0.061 A 
HETATM   16  C12 UNK     1      18.307   6.812  30.607  1.00  0.00     0.007 A 
HETATM   17  C16 UNK     1      16.754   7.724  32.341  1.00  0.00     0.048 C 
HETATM   18  C13 UNK     1      19.068   5.771  30.075  1.00  0.00     0.001 A 
HETATM   19  C9  UNK     1      19.088   4.529  30.707  1.00  0.00     0.014 A 
ENDBRANCH   4  13
TORSDOF 1
ENDMDL
MODEL 4
REMARK VINA RESULT:      -7.7      6.065      7.664
REMARK  1 active torsions:
REMARK  status: ('A' for Active; 'I' for Inactive)
REMARK    1  A    between atoms: C1_4  and  C2_5 
ROOT
HETATM    1 Br1  UNK     1      18.476  -2.347  36.484  1.00  0.00    -0.051 Br
HETATM    2  O1  UNK     1      18.164   3.453  34.793  1.00  0.00    -0.309 OA
HETATM    3  O2  UNK     1      18.486   0.639  31.864  1.00  0.00    -0.287 OA
HETATM    4  C1  UNK     1      18.212   3.801  33.451  1.00  0.00     0.090 A 
HETATM    5  C3  UNK     1      18.351   1.112  34.176  1.00  0.00     0.049 A 
HETATM    6  C4  UNK     1      18.239   2.125  35.126  1.00  0.00     0.090 A 
HETATM    7  C5  UNK     1      18.312   2.919  32.444  1.00  0.00     0.093 A 
HETATM    8  C6  UNK     1      18.392   1.476  32.751  1.00  0.00     0.187 A 
HETATM    9  C10 UNK     1      18.422  -0.225  34.573  1.00  0.00     0.037 A 
HETATM   10  C11 UNK     1      18.196   1.806  36.484  1.00  0.00     0.039 A 
HETATM   11  C14 UNK     1      18.380  -0.542  35.931  1.00  0.00     0.012 A 
HETATM   12  C15 UNK     1      18.268   0.471  36.884  1.00  0.00     0.022 A 
ENDROOT
BRANCH   4  13
HETATM   13  C2  UNK     1      18.120   5.254  33.205  1.00  0.00    -0.002 A 
HETATM   14  C7  UNK     1      18.966   6.137  33.881  1.00  0.00     0.021 A 
HETATM   15  C8  UNK     1      18.879   7.509  33.647  1.00  0.00    -0.061 A 
HETATM   16  C12 UNK     1      17.945   8.004  32.736  1.00  0.00     0.007 A 
HETATM   17  C16 UNK     1      19.786   8.449  34.369  1.00  0.00     0.048 C 
HETATM   18  C13 UNK     1      17.099   7.125  32.060  1.00  0.00     0.001 A 
HETATM   19  C9  UNK     1      17.186   5.754  32.293  1.00  0.00     0.014 A 
ENDBRANCH   4  13
TORSDOF 1
ENDMDL
MODEL 5
REMARK VINA RESULT:      -7.6     12.683     14.741
REMARK  1 active torsions:
REMARK  status: ('A' for Active; 'I' for Inactive)
REMARK    1  A    between atoms: C1_4  and  C2_5 
ROOT
HETATM    1 Br1  UNK     1      20.627 -10.323  37.011  1.00  0.00    -0.051 Br
HETATM    2  O1  UNK     1      18.702  -4.606  36.555  1.00  0.00    -0.309 OA
HETATM    3  O2  UNK     1      22.470  -5.230  37.973  1.00  0.00    -0.287 OA
HETATM    4  C1  UNK     1      19.521  -3.552  36.933  1.00  0.00     0.090 A 
HETATM    5  C3  UNK     1      20.461  -6.169  37.155  1.00  0.00     0.049 A 
HETATM    6  C4  UNK     1      19.184  -5.884  36.677  1.00  0.00     0.090 A 
HETATM    7  C5  UNK     1      20.771  -3.697  37.402  1.00  0.00     0.093 A 
HETATM    8  C6  UNK     1      21.337  -5.054  37.548  1.00  0.00     0.187 A 
HETATM    9  C10 UNK     1      20.899  -7.491  37.258  1.00  0.00     0.037 A 
HETATM   10  C11 UNK     1      18.334  -6.923  36.296  1.00  0.00     0.039 A 
HETATM   11  C14 UNK     1      20.048  -8.528  36.877  1.00  0.00     0.012 A 
HETATM   12  C15 UNK     1      18.768  -8.245  36.397  1.00  0.00     0.022 A 
ENDROOT
BRANCH   4  13
HETATM   13  C2  UNK     1      18.907  -2.222  36.757  1.00  0.00    -0.002 A 
HETATM   14  C7  UNK     1      18.896  -1.613  35.499  1.00  0.00     0.021 A 
HETATM   15  C8  UNK     1      18.315  -0.356  35.333  1.00  0.00    -0.061 A 
HETATM   16  C12 UNK     1      17.743   0.297  36.425  1.00  0.00     0.007 A 
HETATM   17  C16 UNK     1      18.303   0.289  33.988  1.00  0.00     0.048 C 
HETATM   18  C13 UNK     1      17.752  -0.306  37.682  1.00  0.00     0.001 A 
HETATM   19  C9  UNK     1      18.333  -1.563  37.848  1.00  0.00     0.014 A 
ENDBRANCH   4  13
TORSDOF 1
ENDMDL
MODEL 6
REMARK VINA RESULT:      -7.6      4.685      6.361
REMARK  1 active torsions:
REMARK  status: ('A' for Active; 'I' for Inactive)
REMARK    1  A    between atoms: C1_4  and  C2_5 
ROOT
HETATM    1 Br1  UNK     1      17.490   8.244  34.246  1.00  0.00    -0.051 Br
HETATM    2  O1  UNK     1      18.686   2.843  31.796  1.00  0.00    -0.309 OA
HETATM    3  O2  UNK     1      18.759   6.095  29.343  1.00  0.00    -0.287 OA
HETATM    4  C1  UNK     1      18.963   2.727  30.442  1.00  0.00     0.090 A 
HETATM    5  C3  UNK     1      18.428   5.243  31.522  1.00  0.00     0.049 A 
HETATM    6  C4  UNK     1      18.421   4.089  32.304  1.00  0.00     0.090 A 
HETATM    7  C5  UNK     1      19.006   3.763  29.588  1.00  0.00     0.093 A 
HETATM    8  C6  UNK     1      18.732   5.126  30.088  1.00  0.00     0.187 A 
HETATM    9  C10 UNK     1      18.151   6.486  32.094  1.00  0.00     0.037 A 
HETATM   10  C11 UNK     1      18.137   4.173  33.668  1.00  0.00     0.039 A 
HETATM   11  C14 UNK     1      17.867   6.567  33.458  1.00  0.00     0.012 A 
HETATM   12  C15 UNK     1      17.860   5.413  34.243  1.00  0.00     0.022 A 
ENDROOT
BRANCH   4  13
HETATM   13  C2  UNK     1      19.238   1.345  30.002  1.00  0.00    -0.002 A 
HETATM   14  C7  UNK     1      19.793   0.422  30.890  1.00  0.00     0.021 A 
HETATM   15  C8  UNK     1      20.051  -0.885  30.474  1.00  0.00    -0.061 A 
HETATM   16  C12 UNK     1      19.755  -1.271  29.166  1.00  0.00     0.007 A 
HETATM   17  C16 UNK     1      20.641  -1.869  31.427  1.00  0.00     0.048 C 
HETATM   18  C13 UNK     1      19.202  -0.351  28.276  1.00  0.00     0.001 A 
HETATM   19  C9  UNK     1      18.943   0.954  28.693  1.00  0.00     0.014 A 
ENDBRANCH   4  13
TORSDOF 1
ENDMDL
MODEL 7
REMARK VINA RESULT:      -7.6     17.693     21.013
REMARK  1 active torsions:
REMARK  status: ('A' for Active; 'I' for Inactive)
REMARK    1  A    between atoms: C1_4  and  C2_5 
ROOT
HETATM    1 Br1  UNK     1      19.572  -4.990  10.777  1.00  0.00    -0.051 Br
HETATM    2  O1  UNK     1      19.561  -0.450  14.777  1.00  0.00    -0.309 OA
HETATM    3  O2  UNK     1      17.658  -3.899  15.818  1.00  0.00    -0.287 OA
HETATM    4  C1  UNK     1      18.920  -0.587  15.999  1.00  0.00     0.090 A 
HETATM    5  C3  UNK     1      18.903  -2.715  14.195  1.00  0.00     0.049 A 
HETATM    6  C4  UNK     1      19.536  -1.508  13.904  1.00  0.00     0.090 A 
HETATM    7  C5  UNK     1      18.282  -1.700  16.398  1.00  0.00     0.093 A 
HETATM    8  C6  UNK     1      18.230  -2.868  15.494  1.00  0.00     0.187 A 
HETATM    9  C10 UNK     1      18.909  -3.758  13.268  1.00  0.00     0.037 A 
HETATM   10  C11 UNK     1      20.182  -1.338  12.679  1.00  0.00     0.039 A 
HETATM   11  C14 UNK     1      19.556  -3.586  12.043  1.00  0.00     0.012 A 
HETATM   12  C15 UNK     1      20.191  -2.378  11.750  1.00  0.00     0.022 A 
ENDROOT
BRANCH   4  13
HETATM   13  C2  UNK     1      19.012   0.607  16.862  1.00  0.00    -0.002 A 
HETATM   14  C7  UNK     1      18.829   0.492  18.242  1.00  0.00     0.021 A 
HETATM   15  C8  UNK     1      18.918   1.621  19.058  1.00  0.00    -0.061 A 
HETATM   16  C12 UNK     1      19.189   2.868  18.495  1.00  0.00     0.007 A 
HETATM   17  C16 UNK     1      18.723   1.495  20.531  1.00  0.00     0.048 C 
HETATM   18  C13 UNK     1      19.373   2.986  17.118  1.00  0.00     0.001 A 
HETATM   19  C9  UNK     1      19.284   1.858  16.303  1.00  0.00     0.014 A 
ENDBRANCH   4  13
TORSDOF 1
ENDMDL
MODEL 8
REMARK VINA RESULT:      -7.5     23.295     25.443
REMARK  1 active torsions:
REMARK  status: ('A' for Active; 'I' for Inactive)
REMARK    1  A    between atoms: C1_4  and  C2_5 
ROOT
HETATM    1 Br1  UNK     1      18.406  11.051  10.207  1.00  0.00    -0.051 Br
HETATM    2  O1  UNK     1      13.311   8.680   7.966  1.00  0.00    -0.309 OA
HETATM    3  O2  UNK     1      15.132   6.707  11.030  1.00  0.00    -0.287 OA
HETATM    4  C1  UNK     1      12.796   7.499   8.480  1.00  0.00     0.090 A 
HETATM    5  C3  UNK     1      15.143   8.554   9.555  1.00  0.00     0.049 A 
HETATM    6  C4  UNK     1      14.469   9.177   8.508  1.00  0.00     0.090 A 
HETATM    7  C5  UNK     1      13.349   6.809   9.490  1.00  0.00     0.093 A 
HETATM    8  C6  UNK     1      14.595   7.306  10.109  1.00  0.00     0.187 A 
HETATM    9  C10 UNK     1      16.318   9.106  10.068  1.00  0.00     0.037 A 
HETATM   10  C11 UNK     1      14.967  10.363   7.966  1.00  0.00     0.039 A 
HETATM   11  C14 UNK     1      16.815  10.291   9.524  1.00  0.00     0.012 A 
HETATM   12  C15 UNK     1      16.141  10.918   8.474  1.00  0.00     0.022 A 
ENDROOT
BRANCH   4  13
HETATM   13  C2  UNK     1      11.547   7.056   7.829  1.00  0.00    -0.002 A 
HETATM   14  C7  UNK     1      10.334   7.119   8.518  1.00  0.00     0.021 A 
HETATM   15  C8  UNK     1       9.154   6.701   7.903  1.00  0.00    -0.061 A 
HETATM   16  C12 UNK     1       9.184   6.218   6.594  1.00  0.00     0.007 A 
HETATM   17  C16 UNK     1       7.860   6.772   8.642  1.00  0.00     0.048 C 
HETATM   18  C13 UNK     1      10.393   6.153   5.902  1.00  0.00     0.001 A 
HETATM   19  C9  UNK     1      11.572   6.571   6.518  1.00  0.00     0.014 A 
ENDBRANCH   4  13
TORSDOF 1
ENDMDL
MODEL 9
REMARK VINA RESULT:      -7.5      0.674      1.566
REMARK  1 active torsions:
REMARK  status: ('A' for Active; 'I' for Inactive)
REMARK    1  A    between atoms: C1_4  and  C2_5 
ROOT
HETATM    1 Br1  UNK     1      13.207  12.696  35.898  1.00  0.00    -0.051 Br
HETATM    2  O1  UNK     1      17.604   9.234  33.600  1.00  0.00    -0.309 OA
HETATM    3  O2  UNK     1      13.919   7.559  34.064  1.00  0.00    -0.287 OA
HETATM    4  C1  UNK     1      17.357   7.913  33.257  1.00  0.00     0.090 A 
HETATM    5  C3  UNK     1      15.291   9.468  34.304  1.00  0.00     0.049 A 
HETATM    6  C4  UNK     1      16.575   9.978  34.117  1.00  0.00     0.090 A 
HETATM    7  C5  UNK     1      16.163   7.310  33.382  1.00  0.00     0.093 A 
HETATM    8  C6  UNK     1      15.022   8.071  33.931  1.00  0.00     0.187 A 
HETATM    9  C10 UNK     1      14.281  10.273  34.834  1.00  0.00     0.037 A 
HETATM   10  C11 UNK     1      16.856  11.301  34.461  1.00  0.00     0.039 A 
HETATM   11  C14 UNK     1      14.565  11.595  35.177  1.00  0.00     0.012 A 
HETATM   12  C15 UNK     1      15.850  12.108  34.992  1.00  0.00     0.022 A 
ENDROOT
BRANCH   4  13
HETATM   13  C2  UNK     1      18.530   7.206  32.707  1.00  0.00    -0.002 A 
HETATM   14  C7  UNK     1      18.420   6.480  31.518  1.00  0.00     0.021 A 
HETATM   15  C8  UNK     1      19.530   5.813  30.998  1.00  0.00    -0.061 A 
HETATM   16  C12 UNK     1      20.753   5.870  31.666  1.00  0.00     0.007 A 
HETATM   17  C16 UNK     1      19.409   5.042  29.728  1.00  0.00     0.048 C 
HETATM   18  C13 UNK     1      20.867   6.593  32.853  1.00  0.00     0.001 A 
HETATM   19  C9  UNK     1      19.758   7.260  33.373  1.00  0.00     0.014 A 
ENDBRANCH   4  13
TORSDOF 1
ENDMDL
MODEL 10
REMARK VINA RESULT:      -7.4      8.323     10.500
REMARK  1 active torsions:
REMARK  status: ('A' for Active; 'I' for Inactive)
REMARK    1  A    between atoms: C1_4  and  C2_5 
ROOT
HETATM    1 Br1  UNK     1      20.208  -4.172  37.449  1.00  0.00    -0.051 Br
HETATM    2  O1  UNK     1      18.936  -0.224  33.046  1.00  0.00    -0.309 OA
HETATM    3  O2  UNK     1      21.392  -3.346  32.141  1.00  0.00    -0.287 OA
HETATM    4  C1  UNK     1      19.477  -0.381  31.778  1.00  0.00     0.090 A 
HETATM    5  C3  UNK     1      20.089  -2.235  33.770  1.00  0.00     0.049 A 
HETATM    6  C4  UNK     1      19.255  -1.146  34.010  1.00  0.00     0.090 A 
HETATM    7  C5  UNK     1      20.286  -1.391  31.421  1.00  0.00     0.093 A 
HETATM    8  C6  UNK     1      20.656  -2.411  32.424  1.00  0.00     0.187 A 
HETATM    9  C10 UNK     1      20.378  -3.143  34.790  1.00  0.00     0.037 A 
HETATM   10  C11 UNK     1      18.702  -0.957  35.278  1.00  0.00     0.039 A 
HETATM   11  C14 UNK     1      19.825  -2.952  36.057  1.00  0.00     0.012 A 
HETATM   12  C15 UNK     1      18.989  -1.861  36.300  1.00  0.00     0.022 A 
ENDROOT
BRANCH   4  13
HETATM   13  C2  UNK     1      19.066   0.662  30.817  1.00  0.00    -0.002 A 
HETATM   14  C7  UNK     1      19.029   2.003  31.208  1.00  0.00     0.021 A 
HETATM   15  C8  UNK     1      18.642   2.988  30.300  1.00  0.00    -0.061 A 
HETATM   16  C12 UNK     1      18.290   2.635  28.997  1.00  0.00     0.007 A 
HETATM   17  C16 UNK     1      18.606   4.419  30.720  1.00  0.00     0.048 C 
HETATM   18  C13 UNK     1      18.326   1.298  28.603  1.00  0.00     0.001 A 
HETATM   19  C9  UNK     1      18.713   0.313  29.511  1.00  0.00     0.014 A 
ENDBRANCH   4  13
TORSDOF 1
ENDMDL
