MODEL 1
REMARK VINA RESULT:     -10.2      0.000      0.000
REMARK  8 active torsions:
REMARK  status: ('A' for Active; 'I' for Inactive)
REMARK    1  A    between atoms: C10_16  and  O1_1 
REMARK    2  A    between atoms: C2_8  and  O1_1 
REMARK    3  A    between atoms: C12_18  and  O3_3 
REMARK    4  A    between atoms: C5_11  and  O3_3 
REMARK    5  A    between atoms: C10_16  and  C13_19 
REMARK    6  A    between atoms: C12_18  and  C15_21 
REMARK    7  A    between atoms: C13_19  and  C14_20 
REMARK    8  A    between atoms: C15_21  and  C16_22 
ROOT
HETATM    1  O2  UNK     1      20.034  -1.060  30.489  1.00  0.00    -0.275 OA
HETATM    2  O4  UNK     1      20.595  -0.913  28.278  1.00  0.00    -0.260 OA
HETATM    3  C1  UNK     1      18.854   0.798  31.549  1.00  0.00     0.037 A 
HETATM    4  C2  UNK     1      18.275   1.315  32.717  1.00  0.00     0.085 A 
HETATM    5  C3  UNK     1      19.433  -0.470  31.620  1.00  0.00     0.095 A 
HETATM    6  C4  UNK     1      18.882   1.515  30.267  1.00  0.00    -0.040 A 
HETATM    7  C5  UNK     1      18.869  -0.688  33.947  1.00  0.00     0.074 A 
HETATM    8  C6  UNK     1      18.284   0.576  33.906  1.00  0.00     0.074 A 
HETATM    9  C7  UNK     1      19.449  -1.218  32.798  1.00  0.00     0.075 A 
HETATM   10  C8  UNK     1      19.461   0.929  29.209  1.00  0.00     0.090 A 
HETATM   11  C9  UNK     1      18.284   2.883  30.100  1.00  0.00     0.049 C 
HETATM   12  C11 UNK     1      20.076  -0.407  29.267  1.00  0.00     0.288 A 
ENDROOT
BRANCH   4  13
HETATM   13  O1  UNK     1      17.680   2.540  32.778  1.00  0.00    -0.343 OA
BRANCH  13  14
HETATM   14  C10 UNK     1      18.407   3.580  33.427  1.00  0.00     0.259 C 
BRANCH  14  15
HETATM   15  C13 UNK     1      17.911   4.933  32.956  1.00  0.00     0.183 C 
HETATM   16  O5  UNK     1      16.922   5.043  32.235  1.00  0.00    -0.290 OA
BRANCH  15  17
HETATM   17  C14 UNK     1      18.651   6.156  33.382  1.00  0.00     0.012 A 
HETATM   18  C17 UNK     1      19.994   6.248  33.094  1.00  0.00     0.016 A 
HETATM   19  C23 UNK     1      20.686   7.394  33.490  1.00  0.00     0.007 A 
HETATM   20  C19 UNK     1      20.016   8.414  34.164  1.00  0.00    -0.062 A 
HETATM   21  C24 UNK     1      18.655   8.292  34.442  1.00  0.00     0.007 A 
HETATM   22  C27 UNK     1      20.757   9.637  34.590  1.00  0.00     0.048 C 
HETATM   23  C18 UNK     1      17.963   7.148  34.045  1.00  0.00     0.016 A 
ENDBRANCH  15  17
ENDBRANCH  14  15
ENDBRANCH  13  14
ENDBRANCH   4  13
BRANCH   7  24
HETATM   24  O3  UNK     1      18.875  -1.401  35.105  1.00  0.00    -0.343 OA
BRANCH  24  25
HETATM   25  C12 UNK     1      20.073  -2.106  35.429  1.00  0.00     0.259 C 
BRANCH  25  26
HETATM   26  C15 UNK     1      19.894  -2.867  36.727  1.00  0.00     0.183 C 
HETATM   27  O6  UNK     1      19.451  -2.325  37.737  1.00  0.00    -0.290 OA
BRANCH  26  28
HETATM   28  C16 UNK     1      20.269  -4.310  36.770  1.00  0.00     0.012 A 
HETATM   29  C20 UNK     1      21.030  -4.763  37.824  1.00  0.00     0.016 A 
HETATM   30  C25 UNK     1      21.380  -6.112  37.865  1.00  0.00     0.007 A 
HETATM   31  C22 UNK     1      20.960  -6.974  36.850  1.00  0.00    -0.062 A 
HETATM   32  C28 UNK     1      21.337  -8.416  36.894  1.00  0.00     0.048 C 
HETATM   33  C26 UNK     1      20.190  -6.484  35.795  1.00  0.00     0.007 A 
HETATM   34  C21 UNK     1      19.841  -5.134  35.754  1.00  0.00     0.016 A 
ENDBRANCH  26  28
ENDBRANCH  25  26
ENDBRANCH  24  25
ENDBRANCH   7  24
TORSDOF 8
ENDMDL
MODEL 2
REMARK VINA RESULT:     -10.0      5.144      9.794
REMARK  8 active torsions:
REMARK  status: ('A' for Active; 'I' for Inactive)
REMARK    1  A    between atoms: C10_16  and  O1_1 
REMARK    2  A    between atoms: C2_8  and  O1_1 
REMARK    3  A    between atoms: C12_18  and  O3_3 
REMARK    4  A    between atoms: C5_11  and  O3_3 
REMARK    5  A    between atoms: C10_16  and  C13_19 
REMARK    6  A    between atoms: C12_18  and  C15_21 
REMARK    7  A    between atoms: C13_19  and  C14_20 
REMARK    8  A    between atoms: C15_21  and  C16_22 
ROOT
HETATM    1  O2  UNK     1      20.967  -9.746  38.602  1.00  0.00    -0.275 OA
HETATM    2  O4  UNK     1      19.439 -11.410  38.255  1.00  0.00    -0.260 OA
HETATM    3  C1  UNK     1      20.437  -7.469  37.896  1.00  0.00     0.037 A 
HETATM    4  C2  UNK     1      20.853  -6.133  37.812  1.00  0.00     0.085 A 
HETATM    5  C3  UNK     1      21.313  -8.385  38.479  1.00  0.00     0.095 A 
HETATM    6  C4  UNK     1      19.137  -7.950  37.408  1.00  0.00    -0.040 A 
HETATM    7  C5  UNK     1      22.961  -6.681  38.876  1.00  0.00     0.074 A 
HETATM    8  C6  UNK     1      22.108  -5.744  38.298  1.00  0.00     0.074 A 
HETATM    9  C7  UNK     1      22.566  -8.012  38.968  1.00  0.00     0.075 A 
HETATM   10  C8  UNK     1      18.835  -9.250  37.537  1.00  0.00     0.090 A 
HETATM   11  C9  UNK     1      18.133  -7.034  36.766  1.00  0.00     0.049 C 
HETATM   12  C11 UNK     1      19.749 -10.228  38.150  1.00  0.00     0.288 A 
ENDROOT
BRANCH   4  13
HETATM   13  O1  UNK     1      20.091  -5.144  37.264  1.00  0.00    -0.343 OA
BRANCH  13  14
HETATM   14  C10 UNK     1      20.627  -3.824  37.292  1.00  0.00     0.259 C 
BRANCH  14  15
HETATM   15  C13 UNK     1      20.086  -3.018  36.127  1.00  0.00     0.183 C 
HETATM   16  O5  UNK     1      20.344  -3.315  34.962  1.00  0.00    -0.290 OA
BRANCH  15  17
HETATM   17  C14 UNK     1      19.223  -1.836  36.411  1.00  0.00     0.012 A 
HETATM   18  C17 UNK     1      18.566  -1.775  37.620  1.00  0.00     0.016 A 
HETATM   19  C23 UNK     1      17.760  -0.667  37.888  1.00  0.00     0.007 A 
HETATM   20  C19 UNK     1      17.633   0.347  36.939  1.00  0.00    -0.062 A 
HETATM   21  C24 UNK     1      18.311   0.256  35.724  1.00  0.00     0.007 A 
HETATM   22  C27 UNK     1      16.769   1.530  37.224  1.00  0.00     0.048 C 
HETATM   23  C18 UNK     1      19.117  -0.850  35.456  1.00  0.00     0.016 A 
ENDBRANCH  15  17
ENDBRANCH  14  15
ENDBRANCH  13  14
ENDBRANCH   4  13
BRANCH   7  24
HETATM   24  O3  UNK     1      24.179  -6.296  39.346  1.00  0.00    -0.343 OA
BRANCH  24  25
HETATM   25  C12 UNK     1      25.320  -6.984  38.834  1.00  0.00     0.259 C 
BRANCH  25  26
HETATM   26  C15 UNK     1      26.479  -6.020  38.673  1.00  0.00     0.183 C 
HETATM   27  O6  UNK     1      26.308  -4.803  38.657  1.00  0.00    -0.290 OA
BRANCH  26  28
HETATM   28  C16 UNK     1      27.856  -6.572  38.530  1.00  0.00     0.012 A 
HETATM   29  C20 UNK     1      28.004  -7.915  38.263  1.00  0.00     0.016 A 
HETATM   30  C25 UNK     1      29.292  -8.432  38.128  1.00  0.00     0.007 A 
HETATM   31  C22 UNK     1      30.399  -7.593  38.262  1.00  0.00    -0.062 A 
HETATM   32  C28 UNK     1      31.776  -8.148  38.119  1.00  0.00     0.048 C 
HETATM   33  C26 UNK     1      30.217  -6.237  38.533  1.00  0.00     0.007 A 
HETATM   34  C21 UNK     1      28.928  -5.720  38.669  1.00  0.00     0.016 A 
ENDBRANCH  26  28
ENDBRANCH  25  26
ENDBRANCH  24  25
ENDBRANCH   7  24
TORSDOF 8
ENDMDL
MODEL 3
REMARK VINA RESULT:     -10.0      2.186      6.456
REMARK  8 active torsions:
REMARK  status: ('A' for Active; 'I' for Inactive)
REMARK    1  A    between atoms: C10_16  and  O1_1 
REMARK    2  A    between atoms: C2_8  and  O1_1 
REMARK    3  A    between atoms: C12_18  and  O3_3 
REMARK    4  A    between atoms: C5_11  and  O3_3 
REMARK    5  A    between atoms: C10_16  and  C13_19 
REMARK    6  A    between atoms: C12_18  and  C15_21 
REMARK    7  A    between atoms: C13_19  and  C14_20 
REMARK    8  A    between atoms: C15_21  and  C16_22 
ROOT
HETATM    1  O2  UNK     1      19.024   6.450  34.670  1.00  0.00    -0.275 OA
HETATM    2  O4  UNK     1      19.279   8.715  34.506  1.00  0.00    -0.260 OA
HETATM    3  C1  UNK     1      18.446   5.164  32.675  1.00  0.00     0.037 A 
HETATM    4  C2  UNK     1      18.172   3.906  32.122  1.00  0.00     0.085 A 
HETATM    5  C3  UNK     1      18.737   5.223  34.039  1.00  0.00     0.095 A 
HETATM    6  C4  UNK     1      18.443   6.413  31.901  1.00  0.00    -0.040 A 
HETATM    7  C5  UNK     1      18.486   2.844  34.279  1.00  0.00     0.074 A 
HETATM    8  C6  UNK     1      18.191   2.755  32.920  1.00  0.00     0.074 A 
HETATM    9  C7  UNK     1      18.760   4.084  34.846  1.00  0.00     0.075 A 
HETATM   10  C8  UNK     1      18.719   7.566  32.528  1.00  0.00     0.090 A 
HETATM   11  C9  UNK     1      18.140   6.444  30.430  1.00  0.00     0.049 C 
HETATM   12  C11 UNK     1      19.029   7.644  33.966  1.00  0.00     0.288 A 
ENDROOT
BRANCH   4  13
HETATM   13  O1  UNK     1      17.872   3.716  30.806  1.00  0.00    -0.343 OA
BRANCH  13  14
HETATM   14  C10 UNK     1      18.949   3.356  29.943  1.00  0.00     0.259 C 
BRANCH  14  15
HETATM   15  C13 UNK     1      18.590   2.112  29.155  1.00  0.00     0.183 C 
HETATM   16  O5  UNK     1      17.825   2.155  28.193  1.00  0.00    -0.290 OA
BRANCH  15  17
HETATM   17  C14 UNK     1      19.182   0.807  29.565  1.00  0.00     0.012 A 
HETATM   18  C17 UNK     1      19.307   0.533  30.909  1.00  0.00     0.016 A 
HETATM   19  C23 UNK     1      19.860  -0.690  31.293  1.00  0.00     0.007 A 
HETATM   20  C19 UNK     1      20.273  -1.604  30.324  1.00  0.00    -0.062 A 
HETATM   21  C24 UNK     1      20.133  -1.297  28.971  1.00  0.00     0.007 A 
HETATM   22  C27 UNK     1      20.866  -2.909  30.736  1.00  0.00     0.048 C 
HETATM   23  C18 UNK     1      19.580  -0.076  28.586  1.00  0.00     0.016 A 
ENDBRANCH  15  17
ENDBRANCH  14  15
ENDBRANCH  13  14
ENDBRANCH   4  13
BRANCH   7  24
HETATM   24  O3  UNK     1      18.504   1.722  35.048  1.00  0.00    -0.343 OA
BRANCH  24  25
HETATM   25  C12 UNK     1      17.315   0.931  35.071  1.00  0.00     0.259 C 
BRANCH  25  26
HETATM   26  C15 UNK     1      17.608  -0.461  34.546  1.00  0.00     0.183 C 
HETATM   27  O6  UNK     1      17.149  -0.857  33.477  1.00  0.00    -0.290 OA
BRANCH  26  28
HETATM   28  C16 UNK     1      18.474  -1.365  35.356  1.00  0.00     0.012 A 
HETATM   29  C20 UNK     1      19.533  -1.991  34.739  1.00  0.00     0.016 A 
HETATM   30  C25 UNK     1      20.344  -2.836  35.497  1.00  0.00     0.007 A 
HETATM   31  C22 UNK     1      20.075  -3.033  36.852  1.00  0.00    -0.062 A 
HETATM   32  C28 UNK     1      20.941  -3.938  37.660  1.00  0.00     0.048 C 
HETATM   33  C26 UNK     1      18.993  -2.384  37.448  1.00  0.00     0.007 A 
HETATM   34  C21 UNK     1      18.182  -1.539  36.690  1.00  0.00     0.016 A 
ENDBRANCH  26  28
ENDBRANCH  25  26
ENDBRANCH  24  25
ENDBRANCH   7  24
TORSDOF 8
ENDMDL
MODEL 4
REMARK VINA RESULT:      -9.9     12.420     15.156
REMARK  8 active torsions:
REMARK  status: ('A' for Active; 'I' for Inactive)
REMARK    1  A    between atoms: C10_16  and  O1_1 
REMARK    2  A    between atoms: C2_8  and  O1_1 
REMARK    3  A    between atoms: C12_18  and  O3_3 
REMARK    4  A    between atoms: C5_11  and  O3_3 
REMARK    5  A    between atoms: C10_16  and  C13_19 
REMARK    6  A    between atoms: C12_18  and  C15_21 
REMARK    7  A    between atoms: C13_19  and  C14_20 
REMARK    8  A    between atoms: C15_21  and  C16_22 
ROOT
HETATM    1  O2  UNK     1      35.515  -6.213  35.492  1.00  0.00    -0.275 OA
HETATM    2  O4  UNK     1      37.358  -7.124  34.494  1.00  0.00    -0.260 OA
HETATM    3  C1  UNK     1      33.332  -6.460  34.424  1.00  0.00     0.037 A 
HETATM    4  C2  UNK     1      31.957  -6.191  34.475  1.00  0.00     0.085 A 
HETATM    5  C3  UNK     1      34.125  -5.983  35.469  1.00  0.00     0.095 A 
HETATM    6  C4  UNK     1      33.976  -7.212  33.338  1.00  0.00    -0.040 A 
HETATM    7  C5  UNK     1      32.226  -5.004  36.571  1.00  0.00     0.074 A 
HETATM    8  C6  UNK     1      31.409  -5.467  35.541  1.00  0.00     0.074 A 
HETATM    9  C7  UNK     1      33.593  -5.260  36.538  1.00  0.00     0.075 A 
HETATM   10  C8  UNK     1      35.300  -7.415  33.386  1.00  0.00     0.090 A 
HETATM   11  C9  UNK     1      33.201  -7.762  32.174  1.00  0.00     0.049 C 
HETATM   12  C11 UNK     1      36.150  -6.918  34.481  1.00  0.00     0.288 A 
ENDROOT
BRANCH   4  13
HETATM   13  O1  UNK     1      31.078  -6.601  33.517  1.00  0.00    -0.343 OA
BRANCH  13  14
HETATM   14  C10 UNK     1      29.867  -5.860  33.390  1.00  0.00     0.259 C 
BRANCH  14  15
HETATM   15  C13 UNK     1      29.581  -5.576  31.929  1.00  0.00     0.183 C 
HETATM   16  O5  UNK     1      29.670  -4.443  31.462  1.00  0.00    -0.290 OA
BRANCH  15  17
HETATM   17  C14 UNK     1      29.181  -6.707  31.043  1.00  0.00     0.012 A 
HETATM   18  C17 UNK     1      29.964  -6.997  29.948  1.00  0.00     0.016 A 
HETATM   19  C23 UNK     1      29.590  -8.057  29.120  1.00  0.00     0.007 A 
HETATM   20  C19 UNK     1      28.445  -8.797  29.410  1.00  0.00    -0.062 A 
HETATM   21  C24 UNK     1      27.672  -8.480  30.527  1.00  0.00     0.007 A 
HETATM   22  C27 UNK     1      28.045  -9.928  28.524  1.00  0.00     0.048 C 
HETATM   23  C18 UNK     1      28.045  -7.421  31.355  1.00  0.00     0.016 A 
ENDBRANCH  15  17
ENDBRANCH  14  15
ENDBRANCH  13  14
ENDBRANCH   4  13
BRANCH   7  24
HETATM   24  O3  UNK     1      31.688  -4.301  37.605  1.00  0.00    -0.343 OA
BRANCH  24  25
HETATM   25  C12 UNK     1      30.281  -4.057  37.562  1.00  0.00     0.259 C 
BRANCH  25  26
HETATM   26  C15 UNK     1      29.623  -4.596  38.817  1.00  0.00     0.183 C 
HETATM   27  O6  UNK     1      29.568  -3.935  39.852  1.00  0.00    -0.290 OA
BRANCH  26  28
HETATM   28  C16 UNK     1      29.031  -5.964  38.785  1.00  0.00     0.012 A 
HETATM   29  C20 UNK     1      29.854  -7.033  38.506  1.00  0.00     0.016 A 
HETATM   30  C25 UNK     1      29.302  -8.313  38.477  1.00  0.00     0.007 A 
HETATM   31  C22 UNK     1      27.941  -8.492  38.727  1.00  0.00    -0.062 A 
HETATM   32  C28 UNK     1      27.351  -9.861  38.693  1.00  0.00     0.048 C 
HETATM   33  C26 UNK     1      27.133  -7.389  39.006  1.00  0.00     0.007 A 
HETATM   34  C21 UNK     1      27.685  -6.108  39.035  1.00  0.00     0.016 A 
ENDBRANCH  26  28
ENDBRANCH  25  26
ENDBRANCH  24  25
ENDBRANCH   7  24
TORSDOF 8
ENDMDL
MODEL 5
REMARK VINA RESULT:      -9.9     12.973     16.428
REMARK  8 active torsions:
REMARK  status: ('A' for Active; 'I' for Inactive)
REMARK    1  A    between atoms: C10_16  and  O1_1 
REMARK    2  A    between atoms: C2_8  and  O1_1 
REMARK    3  A    between atoms: C12_18  and  O3_3 
REMARK    4  A    between atoms: C5_11  and  O3_3 
REMARK    5  A    between atoms: C10_16  and  C13_19 
REMARK    6  A    between atoms: C12_18  and  C15_21 
REMARK    7  A    between atoms: C13_19  and  C14_20 
REMARK    8  A    between atoms: C15_21  and  C16_22 
ROOT
HETATM    1  O2  UNK     1      31.130  -4.577  38.926  1.00  0.00    -0.275 OA
HETATM    2  O4  UNK     1      29.347  -3.504  39.872  1.00  0.00    -0.260 OA
HETATM    3  C1  UNK     1      30.840  -6.843  38.061  1.00  0.00     0.037 A 
HETATM    4  C2  UNK     1      31.428  -7.950  37.434  1.00  0.00     0.085 A 
HETATM    5  C3  UNK     1      31.647  -5.729  38.301  1.00  0.00     0.095 A 
HETATM    6  C4  UNK     1      29.431  -6.794  38.476  1.00  0.00    -0.040 A 
HETATM    7  C5  UNK     1      33.560  -6.802  37.316  1.00  0.00     0.074 A 
HETATM    8  C6  UNK     1      32.779  -7.928  37.065  1.00  0.00     0.074 A 
HETATM    9  C7  UNK     1      32.994  -5.694  37.939  1.00  0.00     0.075 A 
HETATM   10  C8  UNK     1      28.967  -5.685  39.070  1.00  0.00     0.090 A 
HETATM   11  C9  UNK     1      28.491  -7.946  38.259  1.00  0.00     0.049 C 
HETATM   12  C11 UNK     1      29.806  -4.503  39.329  1.00  0.00     0.288 A 
ENDROOT
BRANCH   4  13
HETATM   13  O1  UNK     1      30.748  -9.096  37.147  1.00  0.00    -0.343 OA
BRANCH  13  14
HETATM   14  C10 UNK     1      30.850  -9.592  35.814  1.00  0.00     0.259 C 
BRANCH  14  15
HETATM   15  C13 UNK     1      29.586  -9.269  35.041  1.00  0.00     0.183 C 
HETATM   16  O5  UNK     1      28.533  -9.868  35.247  1.00  0.00    -0.290 OA
BRANCH  15  17
HETATM   17  C14 UNK     1      29.633  -8.198  34.005  1.00  0.00     0.012 A 
HETATM   18  C17 UNK     1      29.915  -6.910  34.401  1.00  0.00     0.016 A 
HETATM   19  C23 UNK     1      29.961  -5.907  33.431  1.00  0.00     0.007 A 
HETATM   20  C19 UNK     1      29.724  -6.220  32.093  1.00  0.00    -0.062 A 
HETATM   21  C24 UNK     1      29.441  -7.535  31.723  1.00  0.00     0.007 A 
HETATM   22  C27 UNK     1      29.771  -5.148  31.057  1.00  0.00     0.048 C 
HETATM   23  C18 UNK     1      29.395  -8.538  32.692  1.00  0.00     0.016 A 
ENDBRANCH  15  17
ENDBRANCH  14  15
ENDBRANCH  13  14
ENDBRANCH   4  13
BRANCH   7  24
HETATM   24  O3  UNK     1      34.872  -6.787  36.956  1.00  0.00    -0.343 OA
BRANCH  24  25
HETATM   25  C12 UNK     1      35.241  -5.918  35.884  1.00  0.00     0.259 C 
BRANCH  25  26
HETATM   26  C15 UNK     1      35.902  -6.714  34.775  1.00  0.00     0.183 C 
HETATM   27  O6  UNK     1      37.054  -7.128  34.877  1.00  0.00    -0.290 OA
BRANCH  26  28
HETATM   28  C16 UNK     1      35.125  -6.993  33.533  1.00  0.00     0.012 A 
HETATM   29  C20 UNK     1      33.812  -7.389  33.651  1.00  0.00     0.016 A 
HETATM   30  C25 UNK     1      33.085  -7.649  32.490  1.00  0.00     0.007 A 
HETATM   31  C22 UNK     1      33.690  -7.507  31.240  1.00  0.00    -0.062 A 
HETATM   32  C28 UNK     1      32.913  -7.788  29.999  1.00  0.00     0.048 C 
HETATM   33  C26 UNK     1      35.023  -7.104  31.154  1.00  0.00     0.007 A 
HETATM   34  C21 UNK     1      35.751  -6.845  32.316  1.00  0.00     0.016 A 
ENDBRANCH  26  28
ENDBRANCH  25  26
ENDBRANCH  24  25
ENDBRANCH   7  24
TORSDOF 8
ENDMDL
MODEL 6
REMARK VINA RESULT:      -9.9      3.832      6.268
REMARK  8 active torsions:
REMARK  status: ('A' for Active; 'I' for Inactive)
REMARK    1  A    between atoms: C10_16  and  O1_1 
REMARK    2  A    between atoms: C2_8  and  O1_1 
REMARK    3  A    between atoms: C12_18  and  O3_3 
REMARK    4  A    between atoms: C5_11  and  O3_3 
REMARK    5  A    between atoms: C10_16  and  C13_19 
REMARK    6  A    between atoms: C12_18  and  C15_21 
REMARK    7  A    between atoms: C13_19  and  C14_20 
REMARK    8  A    between atoms: C15_21  and  C16_22 
ROOT
HETATM    1  O2  UNK     1      18.278  -0.609  37.766  1.00  0.00    -0.275 OA
HETATM    2  O4  UNK     1      17.130   1.286  38.327  1.00  0.00    -0.260 OA
HETATM    3  C1  UNK     1      18.921  -0.973  35.438  1.00  0.00     0.037 A 
HETATM    4  C2  UNK     1      19.557  -1.805  34.507  1.00  0.00     0.085 A 
HETATM    5  C3  UNK     1      18.897  -1.390  36.770  1.00  0.00     0.095 A 
HETATM    6  C4  UNK     1      18.284   0.304  35.089  1.00  0.00    -0.040 A 
HETATM    7  C5  UNK     1      20.105  -3.402  36.247  1.00  0.00     0.074 A 
HETATM    8  C6  UNK     1      20.144  -3.011  34.909  1.00  0.00     0.074 A 
HETATM    9  C7  UNK     1      19.478  -2.589  37.186  1.00  0.00     0.075 A 
HETATM   10  C8  UNK     1      17.702   1.026  36.057  1.00  0.00     0.090 A 
HETATM   11  C9  UNK     1      18.261   0.830  33.681  1.00  0.00     0.049 C 
HETATM   12  C11 UNK     1      17.669   0.599  37.466  1.00  0.00     0.288 A 
ENDROOT
BRANCH   4  13
HETATM   13  O1  UNK     1      19.646  -1.511  33.178  1.00  0.00    -0.343 OA
BRANCH  13  14
HETATM   14  C10 UNK     1      20.849  -1.887  32.512  1.00  0.00     0.259 C 
BRANCH  14  15
HETATM   15  C13 UNK     1      20.606  -1.990  31.019  1.00  0.00     0.183 C 
HETATM   16  O5  UNK     1      20.953  -2.977  30.375  1.00  0.00    -0.290 OA
BRANCH  15  17
HETATM   17  C14 UNK     1      19.930  -0.858  30.322  1.00  0.00     0.012 A 
HETATM   18  C17 UNK     1      19.651   0.285  31.038  1.00  0.00     0.016 A 
HETATM   19  C23 UNK     1      19.021   1.346  30.386  1.00  0.00     0.007 A 
HETATM   20  C19 UNK     1      18.687   1.234  29.037  1.00  0.00    -0.062 A 
HETATM   21  C24 UNK     1      18.982   0.064  28.338  1.00  0.00     0.007 A 
HETATM   22  C27 UNK     1      18.010   2.367  28.341  1.00  0.00     0.048 C 
HETATM   23  C18 UNK     1      19.613  -0.996  28.990  1.00  0.00     0.016 A 
ENDBRANCH  15  17
ENDBRANCH  14  15
ENDBRANCH  13  14
ENDBRANCH   4  13
BRANCH   7  24
HETATM   24  O3  UNK     1      20.678  -4.574  36.632  1.00  0.00    -0.343 OA
BRANCH  24  25
HETATM   25  C12 UNK     1      20.968  -4.730  38.021  1.00  0.00     0.259 C 
BRANCH  25  26
HETATM   26  C15 UNK     1      21.894  -5.912  38.229  1.00  0.00     0.183 C 
HETATM   27  O6  UNK     1      23.097  -5.762  38.428  1.00  0.00    -0.290 OA
BRANCH  26  28
HETATM   28  C16 UNK     1      21.320  -7.288  38.187  1.00  0.00     0.012 A 
HETATM   29  C20 UNK     1      20.341  -7.623  39.096  1.00  0.00     0.016 A 
HETATM   30  C25 UNK     1      19.803  -8.909  39.056  1.00  0.00     0.007 A 
HETATM   31  C22 UNK     1      20.257  -9.827  38.109  1.00  0.00    -0.062 A 
HETATM   32  C28 UNK     1      19.683 -11.202  38.069  1.00  0.00     0.048 C 
HETATM   33  C26 UNK     1      21.251  -9.457  37.201  1.00  0.00     0.007 A 
HETATM   34  C21 UNK     1      21.789  -8.171  37.241  1.00  0.00     0.016 A 
ENDBRANCH  26  28
ENDBRANCH  25  26
ENDBRANCH  24  25
ENDBRANCH   7  24
TORSDOF 8
ENDMDL
MODEL 7
REMARK VINA RESULT:      -9.9     12.936     14.990
REMARK  8 active torsions:
REMARK  status: ('A' for Active; 'I' for Inactive)
REMARK    1  A    between atoms: C10_16  and  O1_1 
REMARK    2  A    between atoms: C2_8  and  O1_1 
REMARK    3  A    between atoms: C12_18  and  O3_3 
REMARK    4  A    between atoms: C5_11  and  O3_3 
REMARK    5  A    between atoms: C10_16  and  C13_19 
REMARK    6  A    between atoms: C12_18  and  C15_21 
REMARK    7  A    between atoms: C13_19  and  C14_20 
REMARK    8  A    between atoms: C15_21  and  C16_22 
ROOT
HETATM    1  O2  UNK     1      30.697 -10.467  29.892  1.00  0.00    -0.275 OA
HETATM    2  O4  UNK     1      30.693 -10.279  27.614  1.00  0.00    -0.260 OA
HETATM    3  C1  UNK     1      29.577  -8.762  31.234  1.00  0.00     0.037 A 
HETATM    4  C2  UNK     1      29.232  -8.308  32.515  1.00  0.00     0.085 A 
HETATM    5  C3  UNK     1      30.312  -9.945  31.143  1.00  0.00     0.095 A 
HETATM    6  C4  UNK     1      29.208  -8.064  29.995  1.00  0.00    -0.040 A 
HETATM    7  C5  UNK     1      30.350 -10.202  33.533  1.00  0.00     0.074 A 
HETATM    8  C6  UNK     1      29.617  -9.024  33.655  1.00  0.00     0.074 A 
HETATM    9  C7  UNK     1      30.703 -10.669  32.270  1.00  0.00     0.075 A 
HETATM   10  C8  UNK     1      29.589  -8.584  28.819  1.00  0.00     0.090 A 
HETATM   11  C9  UNK     1      28.420  -6.785  29.999  1.00  0.00     0.049 C 
HETATM   12  C11 UNK     1      30.364  -9.831  28.707  1.00  0.00     0.288 A 
ENDROOT
BRANCH   4  13
HETATM   13  O1  UNK     1      28.518  -7.167  32.737  1.00  0.00    -0.343 OA
BRANCH  13  14
HETATM   14  C10 UNK     1      29.033  -6.262  33.710  1.00  0.00     0.259 C 
BRANCH  14  15
HETATM   15  C13 UNK     1      30.283  -5.586  33.180  1.00  0.00     0.183 C 
HETATM   16  O5  UNK     1      30.281  -4.964  32.120  1.00  0.00    -0.290 OA
BRANCH  15  17
HETATM   17  C14 UNK     1      31.543  -5.686  33.972  1.00  0.00     0.012 A 
HETATM   18  C17 UNK     1      32.251  -6.866  33.937  1.00  0.00     0.016 A 
HETATM   19  C23 UNK     1      33.432  -6.959  34.676  1.00  0.00     0.007 A 
HETATM   20  C19 UNK     1      33.870  -5.871  35.430  1.00  0.00    -0.062 A 
HETATM   21  C24 UNK     1      33.130  -4.689  35.445  1.00  0.00     0.007 A 
HETATM   22  C27 UNK     1      35.129  -5.971  36.222  1.00  0.00     0.048 C 
HETATM   23  C18 UNK     1      31.950  -4.595  34.706  1.00  0.00     0.016 A 
ENDBRANCH  15  17
ENDBRANCH  14  15
ENDBRANCH  13  14
ENDBRANCH   4  13
BRANCH   7  24
HETATM   24  O3  UNK     1      30.721 -10.894  34.644  1.00  0.00    -0.343 OA
BRANCH  24  25
HETATM   25  C12 UNK     1      31.839 -10.394  35.377  1.00  0.00     0.259 C 
BRANCH  25  26
HETATM   26  C15 UNK     1      31.436 -10.111  36.811  1.00  0.00     0.183 C 
HETATM   27  O6  UNK     1      31.253 -11.017  37.620  1.00  0.00    -0.290 OA
BRANCH  26  28
HETATM   28  C16 UNK     1      31.259  -8.694  37.239  1.00  0.00     0.012 A 
HETATM   29  C20 UNK     1      32.232  -8.115  38.024  1.00  0.00     0.016 A 
HETATM   30  C25 UNK     1      32.067  -6.789  38.424  1.00  0.00     0.007 A 
HETATM   31  C22 UNK     1      30.935  -6.076  38.028  1.00  0.00    -0.062 A 
HETATM   32  C28 UNK     1      30.759  -4.659  38.458  1.00  0.00     0.048 C 
HETATM   33  C26 UNK     1      29.968  -6.690  37.233  1.00  0.00     0.007 A 
HETATM   34  C21 UNK     1      30.132  -8.017  36.833  1.00  0.00     0.016 A 
ENDBRANCH  26  28
ENDBRANCH  25  26
ENDBRANCH  24  25
ENDBRANCH   7  24
TORSDOF 8
ENDMDL
MODEL 8
REMARK VINA RESULT:      -9.9     12.755     16.123
REMARK  8 active torsions:
REMARK  status: ('A' for Active; 'I' for Inactive)
REMARK    1  A    between atoms: C10_16  and  O1_1 
REMARK    2  A    between atoms: C2_8  and  O1_1 
REMARK    3  A    between atoms: C12_18  and  O3_3 
REMARK    4  A    between atoms: C5_11  and  O3_3 
REMARK    5  A    between atoms: C10_16  and  C13_19 
REMARK    6  A    between atoms: C12_18  and  C15_21 
REMARK    7  A    between atoms: C13_19  and  C14_20 
REMARK    8  A    between atoms: C15_21  and  C16_22 
ROOT
HETATM    1  O2  UNK     1      35.586  -7.128  30.201  1.00  0.00    -0.275 OA
HETATM    2  O4  UNK     1      35.720  -7.633  27.976  1.00  0.00    -0.260 OA
HETATM    3  C1  UNK     1      33.449  -7.375  31.358  1.00  0.00     0.037 A 
HETATM    4  C2  UNK     1      32.739  -7.261  32.561  1.00  0.00     0.085 A 
HETATM    5  C3  UNK     1      34.803  -7.039  31.370  1.00  0.00     0.095 A 
HETATM    6  C4  UNK     1      32.847  -7.828  30.095  1.00  0.00    -0.040 A 
HETATM    7  C5  UNK     1      34.730  -6.494  33.710  1.00  0.00     0.074 A 
HETATM    8  C6  UNK     1      33.376  -6.823  33.728  1.00  0.00     0.074 A 
HETATM    9  C7  UNK     1      35.452  -6.601  32.525  1.00  0.00     0.075 A 
HETATM   10  C8  UNK     1      33.616  -7.902  29.000  1.00  0.00     0.090 A 
HETATM   11  C9  UNK     1      31.397  -8.209  29.990  1.00  0.00     0.049 C 
HETATM   12  C11 UNK     1      35.046  -7.551  28.997  1.00  0.00     0.288 A 
ENDROOT
BRANCH   4  13
HETATM   13  O1  UNK     1      31.413  -7.558  32.679  1.00  0.00    -0.343 OA
BRANCH  13  14
HETATM   14  C10 UNK     1      30.987  -8.135  33.910  1.00  0.00     0.259 C 
BRANCH  14  15
HETATM   15  C13 UNK     1      30.060  -7.182  34.638  1.00  0.00     0.183 C 
HETATM   16  O5  UNK     1      29.810  -6.062  34.198  1.00  0.00    -0.290 OA
BRANCH  15  17
HETATM   17  C14 UNK     1      29.443  -7.622  35.922  1.00  0.00     0.012 A 
HETATM   18  C17 UNK     1      28.241  -7.067  36.301  1.00  0.00     0.016 A 
HETATM   19  C23 UNK     1      27.662  -7.481  37.502  1.00  0.00     0.007 A 
HETATM   20  C19 UNK     1      28.301  -8.436  38.291  1.00  0.00    -0.062 A 
HETATM   21  C24 UNK     1      29.518  -8.980  37.881  1.00  0.00     0.007 A 
HETATM   22  C27 UNK     1      27.684  -8.876  39.575  1.00  0.00     0.048 C 
HETATM   23  C18 UNK     1      30.097  -8.568  36.680  1.00  0.00     0.016 A 
ENDBRANCH  15  17
ENDBRANCH  14  15
ENDBRANCH  13  14
ENDBRANCH   4  13
BRANCH   7  24
HETATM   24  O3  UNK     1      35.344  -6.069  34.848  1.00  0.00    -0.343 OA
BRANCH  24  25
HETATM   25  C12 UNK     1      34.670  -5.073  35.616  1.00  0.00     0.259 C 
BRANCH  25  26
HETATM   26  C15 UNK     1      34.149  -5.676  36.906  1.00  0.00     0.183 C 
HETATM   27  O6  UNK     1      34.825  -6.457  37.572  1.00  0.00    -0.290 OA
BRANCH  26  28
HETATM   28  C16 UNK     1      32.780  -5.308  37.367  1.00  0.00     0.012 A 
HETATM   29  C20 UNK     1      32.149  -4.237  36.774  1.00  0.00     0.016 A 
HETATM   30  C25 UNK     1      30.868  -3.893  37.205  1.00  0.00     0.007 A 
HETATM   31  C22 UNK     1      30.251  -4.628  38.217  1.00  0.00    -0.062 A 
HETATM   32  C28 UNK     1      28.882  -4.258  38.679  1.00  0.00     0.048 C 
HETATM   33  C26 UNK     1      30.916  -5.708  38.799  1.00  0.00     0.007 A 
HETATM   34  C21 UNK     1      32.198  -6.052  38.369  1.00  0.00     0.016 A 
ENDBRANCH  26  28
ENDBRANCH  25  26
ENDBRANCH  24  25
ENDBRANCH   7  24
TORSDOF 8
ENDMDL
MODEL 9
REMARK VINA RESULT:      -9.8      1.887      9.433
REMARK  8 active torsions:
REMARK  status: ('A' for Active; 'I' for Inactive)
REMARK    1  A    between atoms: C10_16  and  O1_1 
REMARK    2  A    between atoms: C2_8  and  O1_1 
REMARK    3  A    between atoms: C12_18  and  O3_3 
REMARK    4  A    between atoms: C5_11  and  O3_3 
REMARK    5  A    between atoms: C10_16  and  C13_19 
REMARK    6  A    between atoms: C12_18  and  C15_21 
REMARK    7  A    between atoms: C13_19  and  C14_20 
REMARK    8  A    between atoms: C15_21  and  C16_22 
ROOT
HETATM    1  O2  UNK     1      19.469   1.009  29.120  1.00  0.00    -0.275 OA
HETATM    2  O4  UNK     1      20.253  -0.771  27.921  1.00  0.00    -0.260 OA
HETATM    3  C1  UNK     1      19.076   0.756  31.518  1.00  0.00     0.037 A 
HETATM    4  C2  UNK     1      18.658   1.356  32.714  1.00  0.00     0.085 A 
HETATM    5  C3  UNK     1      19.063   1.539  30.362  1.00  0.00     0.095 A 
HETATM    6  C4  UNK     1      19.525  -0.640  31.418  1.00  0.00    -0.040 A 
HETATM    7  C5  UNK     1      18.240   3.450  31.566  1.00  0.00     0.074 A 
HETATM    8  C6  UNK     1      18.243   2.693  32.736  1.00  0.00     0.074 A 
HETATM    9  C7  UNK     1      18.651   2.872  30.369  1.00  0.00     0.075 A 
HETATM   10  C8  UNK     1      19.905  -1.116  30.224  1.00  0.00     0.090 A 
HETATM   11  C9  UNK     1      19.571  -1.553  32.610  1.00  0.00     0.049 C 
HETATM   12  C11 UNK     1      19.896  -0.303  28.996  1.00  0.00     0.288 A 
ENDROOT
BRANCH   4  13
HETATM   13  O1  UNK     1      18.624   0.699  33.908  1.00  0.00    -0.343 OA
BRANCH  13  14
HETATM   14  C10 UNK     1      17.867   1.300  34.955  1.00  0.00     0.259 C 
BRANCH  14  15
HETATM   15  C13 UNK     1      18.288   0.729  36.296  1.00  0.00     0.183 C 
HETATM   16  O5  UNK     1      18.327   1.423  37.309  1.00  0.00    -0.290 OA
BRANCH  15  17
HETATM   17  C14 UNK     1      18.665  -0.711  36.375  1.00  0.00     0.012 A 
HETATM   18  C17 UNK     1      17.687  -1.634  36.671  1.00  0.00     0.016 A 
HETATM   19  C23 UNK     1      18.039  -2.983  36.743  1.00  0.00     0.007 A 
HETATM   20  C19 UNK     1      19.359  -3.371  36.518  1.00  0.00    -0.062 A 
HETATM   21  C24 UNK     1      20.328  -2.413  36.221  1.00  0.00     0.007 A 
HETATM   22  C27 UNK     1      19.736  -4.812  36.598  1.00  0.00     0.048 C 
HETATM   23  C18 UNK     1      19.976  -1.065  36.148  1.00  0.00     0.016 A 
ENDBRANCH  15  17
ENDBRANCH  14  15
ENDBRANCH  13  14
ENDBRANCH   4  13
BRANCH   7  24
HETATM   24  O3  UNK     1      17.836   4.748  31.594  1.00  0.00    -0.343 OA
BRANCH  24  25
HETATM   25  C12 UNK     1      18.804   5.738  31.245  1.00  0.00     0.259 C 
BRANCH  25  26
HETATM   26  C15 UNK     1      19.041   6.669  32.417  1.00  0.00     0.183 C 
HETATM   27  O6  UNK     1      20.160   6.827  32.900  1.00  0.00    -0.290 OA
BRANCH  26  28
HETATM   28  C16 UNK     1      17.879   7.406  32.993  1.00  0.00     0.012 A 
HETATM   29  C20 UNK     1      17.774   7.505  34.363  1.00  0.00     0.016 A 
HETATM   30  C25 UNK     1      16.689   8.195  34.902  1.00  0.00     0.007 A 
HETATM   31  C22 UNK     1      15.737   8.769  34.058  1.00  0.00    -0.062 A 
HETATM   32  C28 UNK     1      14.576   9.505  34.636  1.00  0.00     0.048 C 
HETATM   33  C26 UNK     1      15.872   8.651  32.675  1.00  0.00     0.007 A 
HETATM   34  C21 UNK     1      16.957   7.961  32.135  1.00  0.00     0.016 A 
ENDBRANCH  26  28
ENDBRANCH  25  26
ENDBRANCH  24  25
ENDBRANCH   7  24
TORSDOF 8
ENDMDL
MODEL 10
REMARK VINA RESULT:      -9.8      5.172      9.427
REMARK  8 active torsions:
REMARK  status: ('A' for Active; 'I' for Inactive)
REMARK    1  A    between atoms: C10_16  and  O1_1 
REMARK    2  A    between atoms: C2_8  and  O1_1 
REMARK    3  A    between atoms: C12_18  and  O3_3 
REMARK    4  A    between atoms: C5_11  and  O3_3 
REMARK    5  A    between atoms: C10_16  and  C13_19 
REMARK    6  A    between atoms: C12_18  and  C15_21 
REMARK    7  A    between atoms: C13_19  and  C14_20 
REMARK    8  A    between atoms: C15_21  and  C16_22 
ROOT
HETATM    1  O2  UNK     1      20.811  -9.166  38.071  1.00  0.00    -0.275 OA
HETATM    2  O4  UNK     1      19.368 -10.886  37.644  1.00  0.00    -0.260 OA
HETATM    3  C1  UNK     1      20.150  -6.883  37.511  1.00  0.00     0.037 A 
HETATM    4  C2  UNK     1      20.494  -5.524  37.502  1.00  0.00     0.085 A 
HETATM    5  C3  UNK     1      21.083  -7.784  38.027  1.00  0.00     0.095 A 
HETATM    6  C4  UNK     1      18.869  -7.403  37.011  1.00  0.00    -0.040 A 
HETATM    7  C5  UNK     1      22.645  -6.020  38.504  1.00  0.00     0.074 A 
HETATM    8  C6  UNK     1      21.733  -5.097  37.994  1.00  0.00     0.074 A 
HETATM    9  C7  UNK     1      22.321  -7.373  38.521  1.00  0.00     0.075 A 
HETATM   10  C8  UNK     1      18.639  -8.722  37.066  1.00  0.00     0.090 A 
HETATM   11  C9  UNK     1      17.809  -6.506  36.438  1.00  0.00     0.049 C 
HETATM   12  C11 UNK     1      19.613  -9.685  37.607  1.00  0.00     0.288 A 
ENDROOT
BRANCH   4  13
HETATM   13  O1  UNK     1      19.672  -4.547  37.024  1.00  0.00    -0.343 OA
BRANCH  13  14
HETATM   14  C10 UNK     1      20.207  -3.227  36.957  1.00  0.00     0.259 C 
BRANCH  14  15
HETATM   15  C13 UNK     1      19.256  -2.318  36.203  1.00  0.00     0.183 C 
HETATM   16  O5  UNK     1      18.300  -1.781  36.758  1.00  0.00    -0.290 OA
BRANCH  15  17
HETATM   17  C14 UNK     1      19.493  -2.078  34.751  1.00  0.00     0.012 A 
HETATM   18  C17 UNK     1      20.534  -2.736  34.135  1.00  0.00     0.016 A 
HETATM   19  C23 UNK     1      20.755  -2.513  32.775  1.00  0.00     0.007 A 
HETATM   20  C19 UNK     1      19.930  -1.638  32.069  1.00  0.00    -0.062 A 
HETATM   21  C24 UNK     1      18.884  -0.986  32.721  1.00  0.00     0.007 A 
HETATM   22  C27 UNK     1      20.169  -1.398  30.616  1.00  0.00     0.048 C 
HETATM   23  C18 UNK     1      18.662  -1.209  34.080  1.00  0.00     0.016 A 
ENDBRANCH  15  17
ENDBRANCH  14  15
ENDBRANCH  13  14
ENDBRANCH   4  13
BRANCH   7  24
HETATM   24  O3  UNK     1      23.847  -5.599  38.982  1.00  0.00    -0.343 OA
BRANCH  24  25
HETATM   25  C12 UNK     1      24.895  -6.567  39.045  1.00  0.00     0.259 C 
BRANCH  25  26
HETATM   26  C15 UNK     1      26.239  -5.888  38.865  1.00  0.00     0.183 C 
HETATM   27  O6  UNK     1      26.353  -4.665  38.888  1.00  0.00    -0.290 OA
BRANCH  26  28
HETATM   28  C16 UNK     1      27.448  -6.737  38.654  1.00  0.00     0.012 A 
HETATM   29  C20 UNK     1      27.281  -8.095  38.498  1.00  0.00     0.016 A 
HETATM   30  C25 UNK     1      28.410  -8.888  38.299  1.00  0.00     0.007 A 
HETATM   31  C22 UNK     1      29.677  -8.304  38.262  1.00  0.00    -0.062 A 
HETATM   32  C28 UNK     1      30.884  -9.154  38.052  1.00  0.00     0.048 C 
HETATM   33  C26 UNK     1      29.813  -6.925  38.424  1.00  0.00     0.007 A 
HETATM   34  C21 UNK     1      28.683  -6.131  38.623  1.00  0.00     0.016 A 
ENDBRANCH  26  28
ENDBRANCH  25  26
ENDBRANCH  24  25
ENDBRANCH   7  24
TORSDOF 8
ENDMDL
