MODEL 1
REMARK VINA RESULT:      -9.3      0.000      0.000
REMARK  7 active torsions:
REMARK  status: ('A' for Active; 'I' for Inactive)
REMARK    1  A    between atoms: C4_10  and  O1_1 
REMARK    2  A    between atoms: C21_27  and  O3_3 
REMARK    3  A    between atoms: C1_7  and  N1_4 
REMARK    4  A    between atoms: C1_7  and  C2_8 
REMARK    5  A    between atoms: C12_18  and  C7_13 
REMARK    6  A    between atoms: C15_21  and  C16_22 
REMARK    7  A    between atoms: C16_22  and  C17_23 
ROOT
HETATM    1  C2  UNK     1      19.425  -2.469  15.726  1.00  0.00    -0.005 A 
HETATM    2  C4  UNK     1      20.682  -2.929  16.115  1.00  0.00     0.076 A 
HETATM    3  C5  UNK     1      18.899  -2.838  14.489  1.00  0.00     0.023 A 
HETATM    4  C7  UNK     1      19.631  -3.669  13.640  1.00  0.00    -0.035 A 
HETATM    5  C8  UNK     1      21.415  -3.758  15.267  1.00  0.00     0.038 A 
HETATM    6  C10 UNK     1      20.890  -4.128  14.028  1.00  0.00     0.014 A 
ENDROOT
BRANCH   4   7
HETATM    7  C12 UNK     1      19.083  -4.053  12.349  1.00  0.00     0.015 C 
HETATM    8  C15 UNK     1      18.791  -5.318  11.971  1.00  0.00     0.056 C 
BRANCH   8   9
HETATM    9  C16 UNK     1      19.026  -6.455  12.904  1.00  0.00     0.182 C 
HETATM   10  O2  UNK     1      19.973  -7.225  12.782  1.00  0.00    -0.288 OA
BRANCH   9  11
HETATM   11  C17 UNK     1      18.081  -6.625  14.034  1.00  0.00     0.014 A 
HETATM   12  C19 UNK     1      16.769  -7.032  13.792  1.00  0.00     0.018 A 
HETATM   13  C22 UNK     1      15.881  -7.189  14.855  1.00  0.00     0.037 A 
HETATM   14  C21 UNK     1      16.303  -6.940  16.161  1.00  0.00     0.068 A 
HETATM   15  C23 UNK     1      17.616  -6.532  16.403  1.00  0.00     0.037 A 
HETATM   16  C20 UNK     1      18.504  -6.375  15.339  1.00  0.00     0.018 A 
BRANCH  14  17
HETATM   17  O3  UNK     1      15.435  -7.094  17.197  1.00  0.00    -0.356 OA
HETATM   18  C24 UNK     1      15.902  -6.723  18.494  1.00  0.00     0.210 C 
ENDBRANCH  14  17
ENDBRANCH   9  11
ENDBRANCH   8   9
ENDBRANCH   4   7
BRANCH   1  19
HETATM   19  C1  UNK     1      18.619  -1.571  16.632  1.00  0.00     0.188 C 
BRANCH  19  20
HETATM   20  N1  UNK     1      18.929  -0.172  16.472  1.00  0.00    -0.268 N 
HETATM   21  C3  UNK     1      18.997   0.789  17.438  1.00  0.00     0.079 A 
HETATM   22  C6  UNK     1      19.328   1.933  16.725  1.00  0.00     0.102 A 
HETATM   23  C9  UNK     1      18.806   0.770  18.818  1.00  0.00     0.033 A 
HETATM   24  C11 UNK     1      19.486   3.149  17.406  1.00  0.00     0.035 A 
HETATM   25  N3  UNK     1      19.444   1.622  15.396  1.00  0.00    -0.158 NA
HETATM   26  C14 UNK     1      19.300   3.158  18.794  1.00  0.00     0.002 A 
HETATM   27  C13 UNK     1      18.967   1.989  19.485  1.00  0.00     0.002 A 
HETATM   28  N2  UNK     1      19.196   0.325  15.253  1.00  0.00     0.006 NA
ENDBRANCH  19  20
ENDBRANCH   1  19
BRANCH   2  29
HETATM   29  O1  UNK     1      21.211  -2.577  17.321  1.00  0.00    -0.355 OA
HETATM   30  C18 UNK     1      22.400  -3.252  17.729  1.00  0.00     0.210 C 
ENDBRANCH   2  29
TORSDOF 7
ENDMDL
MODEL 2
REMARK VINA RESULT:      -8.7     12.287     16.119
REMARK  7 active torsions:
REMARK  status: ('A' for Active; 'I' for Inactive)
REMARK    1  A    between atoms: C4_10  and  O1_1 
REMARK    2  A    between atoms: C21_27  and  O3_3 
REMARK    3  A    between atoms: C1_7  and  N1_4 
REMARK    4  A    between atoms: C1_7  and  C2_8 
REMARK    5  A    between atoms: C12_18  and  C7_13 
REMARK    6  A    between atoms: C15_21  and  C16_22 
REMARK    7  A    between atoms: C16_22  and  C17_23 
ROOT
HETATM    1  C2  UNK     1      14.558   6.893   9.007  1.00  0.00    -0.005 A 
HETATM    2  C4  UNK     1      15.675   6.345   9.637  1.00  0.00     0.076 A 
HETATM    3  C5  UNK     1      14.170   8.201   9.289  1.00  0.00     0.023 A 
HETATM    4  C7  UNK     1      14.899   8.964  10.202  1.00  0.00    -0.035 A 
HETATM    5  C8  UNK     1      16.404   7.106  10.550  1.00  0.00     0.038 A 
HETATM    6  C10 UNK     1      16.016   8.416  10.833  1.00  0.00     0.014 A 
ENDROOT
BRANCH   4   7
HETATM    7  C12 UNK     1      14.494  10.329  10.497  1.00  0.00     0.015 C 
HETATM    8  C15 UNK     1      14.868  11.422   9.795  1.00  0.00     0.056 C 
BRANCH   8   9
HETATM    9  C16 UNK     1      15.767  11.288   8.614  1.00  0.00     0.182 C 
HETATM   10  O2  UNK     1      15.348  11.029   7.491  1.00  0.00    -0.288 OA
BRANCH   9  11
HETATM   11  C17 UNK     1      17.217  11.510   8.825  1.00  0.00     0.014 A 
HETATM   12  C19 UNK     1      17.724  11.630  10.119  1.00  0.00     0.018 A 
HETATM   13  C22 UNK     1      19.088  11.841  10.317  1.00  0.00     0.037 A 
HETATM   14  C21 UNK     1      19.947  11.930   9.221  1.00  0.00     0.068 A 
HETATM   15  C23 UNK     1      19.440  11.810   7.926  1.00  0.00     0.037 A 
HETATM   16  C20 UNK     1      18.075  11.599   7.729  1.00  0.00     0.018 A 
BRANCH  14  17
HETATM   17  O3  UNK     1      21.278  12.136   9.415  1.00  0.00    -0.356 OA
HETATM   18  C24 UNK     1      22.139  11.909   8.298  1.00  0.00     0.210 C 
ENDBRANCH  14  17
ENDBRANCH   9  11
ENDBRANCH   8   9
ENDBRANCH   4   7
BRANCH   1  19
HETATM   19  C1  UNK     1      13.757   6.083   8.017  1.00  0.00     0.188 C 
BRANCH  19  20
HETATM   20  N1  UNK     1      12.363   5.971   8.366  1.00  0.00    -0.268 N 
HETATM   21  C3  UNK     1      11.278   6.121   7.552  1.00  0.00     0.079 A 
HETATM   22  C6  UNK     1      10.207   5.907   8.407  1.00  0.00     0.102 A 
HETATM   23  C9  UNK     1      11.136   6.416   6.197  1.00  0.00     0.033 A 
HETATM   24  C11 UNK     1       8.899   5.984   7.908  1.00  0.00     0.035 A 
HETATM   25  N3  UNK     1      10.677   5.642   9.667  1.00  0.00    -0.158 NA
HETATM   26  C14 UNK     1       8.727   6.278   6.549  1.00  0.00     0.002 A 
HETATM   27  C13 UNK     1       9.826   6.489   5.711  1.00  0.00     0.002 A 
HETATM   28  N2  UNK     1      12.004   5.685   9.628  1.00  0.00     0.006 NA
ENDBRANCH  19  20
ENDBRANCH   1  19
BRANCH   2  29
HETATM   29  O1  UNK     1      16.068   5.067   9.373  1.00  0.00    -0.355 OA
HETATM   30  C18 UNK     1      15.440   4.027  10.122  1.00  0.00     0.210 C 
ENDBRANCH   2  29
TORSDOF 7
ENDMDL
MODEL 3
REMARK VINA RESULT:      -8.5     15.443     21.062
REMARK  7 active torsions:
REMARK  status: ('A' for Active; 'I' for Inactive)
REMARK    1  A    between atoms: C4_10  and  O1_1 
REMARK    2  A    between atoms: C21_27  and  O3_3 
REMARK    3  A    between atoms: C1_7  and  N1_4 
REMARK    4  A    between atoms: C1_7  and  C2_8 
REMARK    5  A    between atoms: C12_18  and  C7_13 
REMARK    6  A    between atoms: C15_21  and  C16_22 
REMARK    7  A    between atoms: C16_22  and  C17_23 
ROOT
HETATM    1  C2  UNK     1      18.432   5.021  31.778  1.00  0.00    -0.005 A 
HETATM    2  C4  UNK     1      19.657   5.686  31.737  1.00  0.00     0.076 A 
HETATM    3  C5  UNK     1      17.466   5.394  32.711  1.00  0.00     0.023 A 
HETATM    4  C7  UNK     1      17.726   6.433  33.606  1.00  0.00    -0.035 A 
HETATM    5  C8  UNK     1      19.918   6.724  32.632  1.00  0.00     0.038 A 
HETATM    6  C10 UNK     1      18.952   7.098  33.567  1.00  0.00     0.014 A 
ENDROOT
BRANCH   4   7
HETATM    7  C12 UNK     1      16.718   6.822  34.580  1.00  0.00     0.015 C 
HETATM    8  C15 UNK     1      15.989   7.960  34.537  1.00  0.00     0.056 C 
BRANCH   8   9
HETATM    9  C16 UNK     1      16.185   8.937  33.429  1.00  0.00     0.182 C 
HETATM   10  O2  UNK     1      15.863   8.696  32.271  1.00  0.00    -0.288 OA
BRANCH   9  11
HETATM   11  C17 UNK     1      16.765  10.258  33.771  1.00  0.00     0.014 A 
HETATM   12  C19 UNK     1      18.149  10.420  33.823  1.00  0.00     0.018 A 
HETATM   13  C22 UNK     1      18.694  11.662  34.147  1.00  0.00     0.037 A 
HETATM   14  C21 UNK     1      17.855  12.743  34.419  1.00  0.00     0.068 A 
HETATM   15  C23 UNK     1      16.470  12.581  34.367  1.00  0.00     0.037 A 
HETATM   16  C20 UNK     1      15.926  11.338  34.043  1.00  0.00     0.018 A 
BRANCH  14  17
HETATM   17  O3  UNK     1      18.387  13.955  34.735  1.00  0.00    -0.356 OA
HETATM   18  C24 UNK     1      18.741  14.811  33.649  1.00  0.00     0.210 C 
ENDBRANCH  14  17
ENDBRANCH   9  11
ENDBRANCH   8   9
ENDBRANCH   4   7
BRANCH   1  19
HETATM   19  C1  UNK     1      18.134   3.896  30.818  1.00  0.00     0.188 C 
BRANCH  19  20
HETATM   20  N1  UNK     1      18.428   2.592  31.358  1.00  0.00    -0.268 N 
HETATM   21  C3  UNK     1      19.016   1.534  30.727  1.00  0.00     0.079 A 
HETATM   22  C6  UNK     1      19.047   0.556  31.710  1.00  0.00     0.102 A 
HETATM   23  C9  UNK     1      19.505   1.346  29.435  1.00  0.00     0.033 A 
HETATM   24  C11 UNK     1      19.596  -0.701  31.415  1.00  0.00     0.035 A 
HETATM   25  N3  UNK     1      18.494   1.050  32.862  1.00  0.00    -0.158 NA
HETATM   26  C14 UNK     1      20.095  -0.918  30.124  1.00  0.00     0.002 A 
HETATM   27  C13 UNK     1      20.050   0.088  29.155  1.00  0.00     0.002 A 
HETATM   28  N2  UNK     1      18.116   2.303  32.632  1.00  0.00     0.006 NA
ENDBRANCH  19  20
ENDBRANCH   1  19
BRANCH   2  29
HETATM   29  O1  UNK     1      20.613   5.333  30.832  1.00  0.00    -0.355 OA
HETATM   30  C18 UNK     1      21.944   5.776  31.088  1.00  0.00     0.210 C 
ENDBRANCH   2  29
TORSDOF 7
ENDMDL
MODEL 4
REMARK VINA RESULT:      -8.4     18.006     21.390
REMARK  7 active torsions:
REMARK  status: ('A' for Active; 'I' for Inactive)
REMARK    1  A    between atoms: C4_10  and  O1_1 
REMARK    2  A    between atoms: C21_27  and  O3_3 
REMARK    3  A    between atoms: C1_7  and  N1_4 
REMARK    4  A    between atoms: C1_7  and  C2_8 
REMARK    5  A    between atoms: C12_18  and  C7_13 
REMARK    6  A    between atoms: C15_21  and  C16_22 
REMARK    7  A    between atoms: C16_22  and  C17_23 
ROOT
HETATM    1  C2  UNK     1      32.445  -6.300  33.938  1.00  0.00    -0.005 A 
HETATM    2  C4  UNK     1      33.028  -5.149  34.465  1.00  0.00     0.076 A 
HETATM    3  C5  UNK     1      33.237  -7.256  33.304  1.00  0.00     0.023 A 
HETATM    4  C7  UNK     1      34.615  -7.061  33.198  1.00  0.00    -0.035 A 
HETATM    5  C8  UNK     1      34.405  -4.952  34.359  1.00  0.00     0.038 A 
HETATM    6  C10 UNK     1      35.198  -5.908  33.724  1.00  0.00     0.014 A 
ENDROOT
BRANCH   4   7
HETATM    7  C12 UNK     1      35.441  -8.057  32.536  1.00  0.00     0.015 C 
HETATM    8  C15 UNK     1      35.605  -8.172  31.199  1.00  0.00     0.056 C 
BRANCH   8   9
HETATM    9  C16 UNK     1      34.912  -7.233  30.273  1.00  0.00     0.182 C 
HETATM   10  O2  UNK     1      35.414  -6.177  29.903  1.00  0.00    -0.288 OA
BRANCH   9  11
HETATM   11  C17 UNK     1      33.575  -7.628  29.768  1.00  0.00     0.014 A 
HETATM   12  C19 UNK     1      32.651  -6.651  29.398  1.00  0.00     0.018 A 
HETATM   13  C22 UNK     1      31.394  -7.023  28.924  1.00  0.00     0.037 A 
HETATM   14  C21 UNK     1      31.059  -8.373  28.820  1.00  0.00     0.068 A 
HETATM   15  C23 UNK     1      31.982  -9.352  29.190  1.00  0.00     0.037 A 
HETATM   16  C20 UNK     1      33.240  -8.978  29.663  1.00  0.00     0.018 A 
BRANCH  14  17
HETATM   17  O3  UNK     1      29.831  -8.736  28.358  1.00  0.00    -0.356 OA
HETATM   18  C24 UNK     1      29.533 -10.132  28.335  1.00  0.00     0.210 C 
ENDBRANCH  14  17
ENDBRANCH   9  11
ENDBRANCH   8   9
ENDBRANCH   4   7
BRANCH   1  19
HETATM   19  C1  UNK     1      30.957  -6.529  34.045  1.00  0.00     0.188 C 
BRANCH  19  20
HETATM   20  N1  UNK     1      30.225  -6.071  32.890  1.00  0.00    -0.268 N 
HETATM   21  C3  UNK     1      29.305  -6.756  32.152  1.00  0.00     0.079 A 
HETATM   22  C6  UNK     1      28.933  -5.841  31.178  1.00  0.00     0.102 A 
HETATM   23  C9  UNK     1      28.782  -8.045  32.239  1.00  0.00     0.033 A 
HETATM   24  C11 UNK     1      27.980  -6.206  30.216  1.00  0.00     0.035 A 
HETATM   25  N3  UNK     1      29.624  -4.673  31.364  1.00  0.00    -0.158 NA
HETATM   26  C14 UNK     1      27.437  -7.496  30.280  1.00  0.00     0.002 A 
HETATM   27  C13 UNK     1      27.832  -8.397  31.274  1.00  0.00     0.002 A 
HETATM   28  N2  UNK     1      30.415  -4.827  32.420  1.00  0.00     0.006 NA
ENDBRANCH  19  20
ENDBRANCH   1  19
BRANCH   2  29
HETATM   29  O1  UNK     1      32.268  -4.204  35.088  1.00  0.00    -0.355 OA
HETATM   30  C18 UNK     1      32.394  -4.100  36.505  1.00  0.00     0.210 C 
ENDBRANCH   2  29
TORSDOF 7
ENDMDL
MODEL 5
REMARK VINA RESULT:      -8.3     18.984     22.723
REMARK  7 active torsions:
REMARK  status: ('A' for Active; 'I' for Inactive)
REMARK    1  A    between atoms: C4_10  and  O1_1 
REMARK    2  A    between atoms: C21_27  and  O3_3 
REMARK    3  A    between atoms: C1_7  and  N1_4 
REMARK    4  A    between atoms: C1_7  and  C2_8 
REMARK    5  A    between atoms: C12_18  and  C7_13 
REMARK    6  A    between atoms: C15_21  and  C16_22 
REMARK    7  A    between atoms: C16_22  and  C17_23 
ROOT
HETATM    1  C2  UNK     1      31.080  -6.597  31.671  1.00  0.00    -0.005 A 
HETATM    2  C4  UNK     1      29.968  -6.394  32.487  1.00  0.00     0.076 A 
HETATM    3  C5  UNK     1      32.248  -7.139  32.206  1.00  0.00     0.023 A 
HETATM    4  C7  UNK     1      32.303  -7.478  33.558  1.00  0.00    -0.035 A 
HETATM    5  C8  UNK     1      30.023  -6.732  33.839  1.00  0.00     0.038 A 
HETATM    6  C10 UNK     1      31.191  -7.274  34.375  1.00  0.00     0.014 A 
ENDROOT
BRANCH   4   7
HETATM    7  C12 UNK     1      33.522  -8.043  34.117  1.00  0.00     0.015 C 
HETATM    8  C15 UNK     1      34.456  -7.353  34.808  1.00  0.00     0.056 C 
BRANCH   8   9
HETATM    9  C16 UNK     1      34.285  -5.893  35.052  1.00  0.00     0.182 C 
HETATM   10  O2  UNK     1      34.878  -5.040  34.400  1.00  0.00    -0.288 OA
BRANCH   9  11
HETATM   11  C17 UNK     1      33.333  -5.479  36.110  1.00  0.00     0.014 A 
HETATM   12  C19 UNK     1      33.229  -6.223  37.286  1.00  0.00     0.018 A 
HETATM   13  C22 UNK     1      32.332  -5.835  38.280  1.00  0.00     0.037 A 
HETATM   14  C21 UNK     1      31.539  -4.701  38.100  1.00  0.00     0.068 A 
HETATM   15  C23 UNK     1      31.642  -3.957  36.925  1.00  0.00     0.037 A 
HETATM   16  C20 UNK     1      32.540  -4.346  35.931  1.00  0.00     0.018 A 
BRANCH  14  17
HETATM   17  O3  UNK     1      30.664  -4.323  39.071  1.00  0.00    -0.356 OA
HETATM   18  C24 UNK     1      29.275  -4.350  38.740  1.00  0.00     0.210 C 
ENDBRANCH  14  17
ENDBRANCH   9  11
ENDBRANCH   8   9
ENDBRANCH   4   7
BRANCH   1  19
HETATM   19  C1  UNK     1      31.038  -6.236  30.207  1.00  0.00     0.188 C 
BRANCH  19  20
HETATM   20  N1  UNK     1      30.993  -7.385  29.337  1.00  0.00    -0.268 N 
HETATM   21  C3  UNK     1      29.946  -8.232  29.115  1.00  0.00     0.079 A 
HETATM   22  C6  UNK     1      30.459  -9.140  28.201  1.00  0.00     0.102 A 
HETATM   23  C9  UNK     1      28.644  -8.289  29.612  1.00  0.00     0.033 A 
HETATM   24  C11 UNK     1      29.646 -10.183  27.733  1.00  0.00     0.035 A 
HETATM   25  N3  UNK     1      31.758  -8.813  27.915  1.00  0.00    -0.158 NA
HETATM   26  C14 UNK     1      28.332 -10.263  28.215  1.00  0.00     0.002 A 
HETATM   27  C13 UNK     1      27.843  -9.332  29.136  1.00  0.00     0.002 A 
HETATM   28  N2  UNK     1      32.075  -7.733  28.620  1.00  0.00     0.006 NA
ENDBRANCH  19  20
ENDBRANCH   1  19
BRANCH   2  29
HETATM   29  O1  UNK     1      28.818  -5.865  31.980  1.00  0.00    -0.355 OA
HETATM   30  C18 UNK     1      27.618  -6.099  32.714  1.00  0.00     0.210 C 
ENDBRANCH   2  29
TORSDOF 7
ENDMDL
MODEL 6
REMARK VINA RESULT:      -8.3     18.632     22.181
REMARK  7 active torsions:
REMARK  status: ('A' for Active; 'I' for Inactive)
REMARK    1  A    between atoms: C4_10  and  O1_1 
REMARK    2  A    between atoms: C21_27  and  O3_3 
REMARK    3  A    between atoms: C1_7  and  N1_4 
REMARK    4  A    between atoms: C1_7  and  C2_8 
REMARK    5  A    between atoms: C12_18  and  C7_13 
REMARK    6  A    between atoms: C15_21  and  C16_22 
REMARK    7  A    between atoms: C16_22  and  C17_23 
ROOT
HETATM    1  C2  UNK     1      31.796  -7.796  29.148  1.00  0.00    -0.005 A 
HETATM    2  C4  UNK     1      30.749  -8.669  28.857  1.00  0.00     0.076 A 
HETATM    3  C5  UNK     1      31.534  -6.569  29.755  1.00  0.00     0.023 A 
HETATM    4  C7  UNK     1      30.222  -6.214  30.072  1.00  0.00    -0.035 A 
HETATM    5  C8  UNK     1      29.437  -8.315  29.173  1.00  0.00     0.038 A 
HETATM    6  C10 UNK     1      29.174  -7.087  29.781  1.00  0.00     0.014 A 
ENDROOT
BRANCH   4   7
HETATM    7  C12 UNK     1      29.948  -4.934  30.705  1.00  0.00     0.015 C 
HETATM    8  C15 UNK     1      29.678  -4.754  32.017  1.00  0.00     0.056 C 
BRANCH   8   9
HETATM    9  C16 UNK     1      29.641  -5.920  32.945  1.00  0.00     0.182 C 
HETATM   10  O2  UNK     1      28.721  -6.731  32.950  1.00  0.00    -0.288 OA
BRANCH   9  11
HETATM   11  C17 UNK     1      30.787  -6.101  33.867  1.00  0.00     0.014 A 
HETATM   12  C19 UNK     1      30.869  -7.245  34.662  1.00  0.00     0.018 A 
HETATM   13  C22 UNK     1      31.947  -7.414  35.531  1.00  0.00     0.037 A 
HETATM   14  C21 UNK     1      32.943  -6.441  35.604  1.00  0.00     0.068 A 
HETATM   15  C23 UNK     1      32.862  -5.297  34.809  1.00  0.00     0.037 A 
HETATM   16  C20 UNK     1      31.784  -5.128  33.940  1.00  0.00     0.018 A 
BRANCH  14  17
HETATM   17  O3  UNK     1      33.995  -6.607  36.452  1.00  0.00    -0.356 OA
HETATM   18  C24 UNK     1      35.010  -5.603  36.432  1.00  0.00     0.210 C 
ENDBRANCH  14  17
ENDBRANCH   9  11
ENDBRANCH   8   9
ENDBRANCH   4   7
BRANCH   1  19
HETATM   19  C1  UNK     1      33.221  -8.163  28.812  1.00  0.00     0.188 C 
BRANCH  19  20
HETATM   20  N1  UNK     1      34.192  -7.512  29.656  1.00  0.00    -0.268 N 
HETATM   21  C3  UNK     1      34.482  -7.777  30.963  1.00  0.00     0.079 A 
HETATM   22  C6  UNK     1      35.480  -6.859  31.259  1.00  0.00     0.102 A 
HETATM   23  C9  UNK     1      33.984  -8.697  31.883  1.00  0.00     0.033 A 
HETATM   24  C11 UNK     1      36.035  -6.835  32.546  1.00  0.00     0.035 A 
HETATM   25  N3  UNK     1      35.744  -6.100  30.149  1.00  0.00    -0.158 NA
HETATM   26  C14 UNK     1      35.553  -7.750  33.491  1.00  0.00     0.002 A 
HETATM   27  C13 UNK     1      34.547  -8.664  33.163  1.00  0.00     0.002 A 
HETATM   28  N2  UNK     1      34.945  -6.511  29.170  1.00  0.00     0.006 NA
ENDBRANCH  19  20
ENDBRANCH   1  19
BRANCH   2  29
HETATM   29  O1  UNK     1      30.988  -9.872  28.263  1.00  0.00    -0.355 OA
HETATM   30  C18 UNK     1      30.445 -11.028  28.899  1.00  0.00     0.210 C 
ENDBRANCH   2  29
TORSDOF 7
ENDMDL
MODEL 7
REMARK VINA RESULT:      -8.2     12.203     16.443
REMARK  7 active torsions:
REMARK  status: ('A' for Active; 'I' for Inactive)
REMARK    1  A    between atoms: C4_10  and  O1_1 
REMARK    2  A    between atoms: C21_27  and  O3_3 
REMARK    3  A    between atoms: C1_7  and  N1_4 
REMARK    4  A    between atoms: C1_7  and  C2_8 
REMARK    5  A    between atoms: C12_18  and  C7_13 
REMARK    6  A    between atoms: C15_21  and  C16_22 
REMARK    7  A    between atoms: C16_22  and  C17_23 
ROOT
HETATM    1  C2  UNK     1      14.381   8.504   9.640  1.00  0.00    -0.005 A 
HETATM    2  C4  UNK     1      15.324   7.700  10.280  1.00  0.00     0.076 A 
HETATM    3  C5  UNK     1      14.783   9.676   9.001  1.00  0.00     0.023 A 
HETATM    4  C7  UNK     1      16.128  10.045   9.002  1.00  0.00    -0.035 A 
HETATM    5  C8  UNK     1      16.669   8.069  10.282  1.00  0.00     0.038 A 
HETATM    6  C10 UNK     1      17.072   9.242   9.643  1.00  0.00     0.014 A 
ENDROOT
BRANCH   4   7
HETATM    7  C12 UNK     1      16.547  11.268   8.336  1.00  0.00     0.015 C 
HETATM    8  C15 UNK     1      17.042  12.364   8.955  1.00  0.00     0.056 C 
BRANCH   8   9
HETATM    9  C16 UNK     1      17.195  12.385  10.437  1.00  0.00     0.182 C 
HETATM   10  O2  UNK     1      16.236  12.394  11.201  1.00  0.00    -0.288 OA
BRANCH   9  11
HETATM   11  C17 UNK     1      18.572  12.365  10.986  1.00  0.00     0.014 A 
HETATM   12  C19 UNK     1      18.834  12.926  12.236  1.00  0.00     0.018 A 
HETATM   13  C22 UNK     1      20.130  12.908  12.751  1.00  0.00     0.037 A 
HETATM   14  C21 UNK     1      21.164  12.328  12.017  1.00  0.00     0.068 A 
HETATM   15  C23 UNK     1      20.903  11.767  10.767  1.00  0.00     0.037 A 
HETATM   16  C20 UNK     1      19.607  11.785  10.252  1.00  0.00     0.018 A 
BRANCH  14  17
HETATM   17  O3  UNK     1      22.429  12.311  12.521  1.00  0.00    -0.356 OA
HETATM   18  C24 UNK     1      23.496  12.142  11.588  1.00  0.00     0.210 C 
ENDBRANCH  14  17
ENDBRANCH   9  11
ENDBRANCH   8   9
ENDBRANCH   4   7
BRANCH   1  19
HETATM   19  C1  UNK     1      12.922   8.120   9.628  1.00  0.00     0.188 C 
BRANCH  19  20
HETATM   20  N1  UNK     1      12.505   7.500   8.396  1.00  0.00    -0.268 N 
HETATM   21  C3  UNK     1      11.239   7.172   8.006  1.00  0.00     0.079 A 
HETATM   22  C6  UNK     1      11.427   6.611   6.752  1.00  0.00     0.102 A 
HETATM   23  C9  UNK     1       9.990   7.306   8.611  1.00  0.00     0.033 A 
HETATM   24  C11 UNK     1      10.319   6.145   6.030  1.00  0.00     0.035 A 
HETATM   25  N3  UNK     1      12.762   6.624   6.444  1.00  0.00    -0.158 NA
HETATM   26  C14 UNK     1       9.051   6.268   6.614  1.00  0.00     0.002 A 
HETATM   27  C13 UNK     1       8.892   6.839   7.881  1.00  0.00     0.002 A 
HETATM   28  N2  UNK     1      13.414   7.172   7.463  1.00  0.00     0.006 NA
ENDBRANCH  19  20
ENDBRANCH   1  19
BRANCH   2  29
HETATM   29  O1  UNK     1      14.948   6.551  10.910  1.00  0.00    -0.355 OA
HETATM   30  C18 UNK     1      15.104   5.333  10.185  1.00  0.00     0.210 C 
ENDBRANCH   2  29
TORSDOF 7
ENDMDL
MODEL 8
REMARK VINA RESULT:      -8.2     19.098     22.215
REMARK  7 active torsions:
REMARK  status: ('A' for Active; 'I' for Inactive)
REMARK    1  A    between atoms: C4_10  and  O1_1 
REMARK    2  A    between atoms: C21_27  and  O3_3 
REMARK    3  A    between atoms: C1_7  and  N1_4 
REMARK    4  A    between atoms: C1_7  and  C2_8 
REMARK    5  A    between atoms: C12_18  and  C7_13 
REMARK    6  A    between atoms: C15_21  and  C16_22 
REMARK    7  A    between atoms: C16_22  and  C17_23 
ROOT
HETATM    1  C2  UNK     1      29.048  -8.069  34.382  1.00  0.00    -0.005 A 
HETATM    2  C4  UNK     1      29.367  -9.395  34.091  1.00  0.00     0.076 A 
HETATM    3  C5  UNK     1      28.436  -7.271  33.417  1.00  0.00     0.023 A 
HETATM    4  C7  UNK     1      28.142  -7.798  32.159  1.00  0.00    -0.035 A 
HETATM    5  C8  UNK     1      29.074  -9.923  32.833  1.00  0.00     0.038 A 
HETATM    6  C10 UNK     1      28.462  -9.124  31.867  1.00  0.00     0.014 A 
ENDROOT
BRANCH   4   7
HETATM    7  C12 UNK     1      27.504  -6.965  31.152  1.00  0.00     0.015 C 
HETATM    8  C15 UNK     1      28.130  -6.031  30.402  1.00  0.00     0.056 C 
BRANCH   8   9
HETATM    9  C16 UNK     1      29.590  -5.784  30.571  1.00  0.00     0.182 C 
HETATM   10  O2  UNK     1      30.036  -4.720  30.987  1.00  0.00    -0.288 OA
BRANCH   9  11
HETATM   11  C17 UNK     1      30.517  -6.895  30.246  1.00  0.00     0.014 A 
HETATM   12  C19 UNK     1      31.534  -7.238  31.136  1.00  0.00     0.018 A 
HETATM   13  C22 UNK     1      32.407  -8.281  30.829  1.00  0.00     0.037 A 
HETATM   14  C21 UNK     1      32.262  -8.982  29.632  1.00  0.00     0.068 A 
HETATM   15  C23 UNK     1      31.244  -8.640  28.742  1.00  0.00     0.037 A 
HETATM   16  C20 UNK     1      30.372  -7.596  29.049  1.00  0.00     0.018 A 
BRANCH  14  17
HETATM   17  O3  UNK     1      33.114 -10.001  29.333  1.00  0.00    -0.356 OA
HETATM   18  C24 UNK     1      32.958 -11.214  30.068  1.00  0.00     0.210 C 
ENDBRANCH  14  17
ENDBRANCH   9  11
ENDBRANCH   8   9
ENDBRANCH   4   7
BRANCH   1  19
HETATM   19  C1  UNK     1      29.358  -7.482  35.737  1.00  0.00     0.188 C 
BRANCH  19  20
HETATM   20  N1  UNK     1      28.305  -7.684  36.701  1.00  0.00    -0.268 N 
HETATM   21  C3  UNK     1      28.307  -8.512  37.786  1.00  0.00     0.079 A 
HETATM   22  C6  UNK     1      27.054  -8.305  38.345  1.00  0.00     0.102 A 
HETATM   23  C9  UNK     1      29.250  -9.393  38.313  1.00  0.00     0.033 A 
HETATM   24  C11 UNK     1      26.691  -9.006  39.504  1.00  0.00     0.035 A 
HETATM   25  N3  UNK     1      26.368  -7.386  37.596  1.00  0.00    -0.158 NA
HETATM   26  C14 UNK     1      27.621  -9.898  40.055  1.00  0.00     0.002 A 
HETATM   27  C13 UNK     1      28.876 -10.085  39.469  1.00  0.00     0.002 A 
HETATM   28  N2  UNK     1      27.148  -7.012  36.588  1.00  0.00     0.006 NA
ENDBRANCH  19  20
ENDBRANCH   1  19
BRANCH   2  29
HETATM   29  O1  UNK     1      29.966 -10.190  35.022  1.00  0.00    -0.355 OA
HETATM   30  C18 UNK     1      31.322 -10.560  34.782  1.00  0.00     0.210 C 
ENDBRANCH   2  29
TORSDOF 7
ENDMDL
MODEL 9
REMARK VINA RESULT:      -8.2     12.796     16.527
REMARK  7 active torsions:
REMARK  status: ('A' for Active; 'I' for Inactive)
REMARK    1  A    between atoms: C4_10  and  O1_1 
REMARK    2  A    between atoms: C21_27  and  O3_3 
REMARK    3  A    between atoms: C1_7  and  N1_4 
REMARK    4  A    between atoms: C1_7  and  C2_8 
REMARK    5  A    between atoms: C12_18  and  C7_13 
REMARK    6  A    between atoms: C15_21  and  C16_22 
REMARK    7  A    between atoms: C16_22  and  C17_23 
ROOT
HETATM    1  C2  UNK     1      14.327   6.858   9.869  1.00  0.00    -0.005 A 
HETATM    2  C4  UNK     1      15.527   6.192   9.622  1.00  0.00     0.076 A 
HETATM    3  C5  UNK     1      14.340   8.185  10.295  1.00  0.00     0.023 A 
HETATM    4  C7  UNK     1      15.555   8.848  10.475  1.00  0.00    -0.035 A 
HETATM    5  C8  UNK     1      16.742   6.853   9.802  1.00  0.00     0.038 A 
HETATM    6  C10 UNK     1      16.756   8.181  10.229  1.00  0.00     0.014 A 
ENDROOT
BRANCH   4   7
HETATM    7  C12 UNK     1      15.569  10.232  10.920  1.00  0.00     0.015 C 
HETATM    8  C15 UNK     1      15.715  11.309  10.116  1.00  0.00     0.056 C 
BRANCH   8   9
HETATM    9  C16 UNK     1      15.879  11.133   8.645  1.00  0.00     0.182 C 
HETATM   10  O2  UNK     1      15.048  10.557   7.952  1.00  0.00    -0.288 OA
BRANCH   9  11
HETATM   11  C17 UNK     1      17.090  11.712   8.015  1.00  0.00     0.014 A 
HETATM   12  C19 UNK     1      18.345  11.168   8.284  1.00  0.00     0.018 A 
HETATM   13  C22 UNK     1      19.484  11.714   7.692  1.00  0.00     0.037 A 
HETATM   14  C21 UNK     1      19.367  12.804   6.829  1.00  0.00     0.068 A 
HETATM   15  C23 UNK     1      18.111  13.349   6.560  1.00  0.00     0.037 A 
HETATM   16  C20 UNK     1      16.973  12.802   7.153  1.00  0.00     0.018 A 
BRANCH  14  17
HETATM   17  O3  UNK     1      20.478  13.337   6.252  1.00  0.00    -0.356 OA
HETATM   18  C24 UNK     1      20.339  13.847   4.926  1.00  0.00     0.210 C 
ENDBRANCH  14  17
ENDBRANCH   9  11
ENDBRANCH   8   9
ENDBRANCH   4   7
BRANCH   1  19
HETATM   19  C1  UNK     1      13.004   6.158   9.679  1.00  0.00     0.188 C 
BRANCH  19  20
HETATM   20  N1  UNK     1      12.459   6.316   8.354  1.00  0.00    -0.268 N 
HETATM   21  C3  UNK     1      11.150   6.262   7.971  1.00  0.00     0.079 A 
HETATM   22  C6  UNK     1      11.209   6.479   6.602  1.00  0.00     0.102 A 
HETATM   23  C9  UNK     1       9.961   6.047   8.667  1.00  0.00     0.033 A 
HETATM   24  C11 UNK     1      10.024   6.491   5.853  1.00  0.00     0.035 A 
HETATM   25  N3  UNK     1      12.515   6.653   6.226  1.00  0.00    -0.158 NA
HETATM   26  C14 UNK     1       8.814   6.279   6.527  1.00  0.00     0.002 A 
HETATM   27  C13 UNK     1       8.786   6.062   7.908  1.00  0.00     0.002 A 
HETATM   28  N2  UNK     1      13.274   6.550   7.312  1.00  0.00     0.006 NA
ENDBRANCH  19  20
ENDBRANCH   1  19
BRANCH   2  29
HETATM   29  O1  UNK     1      15.532   4.894   9.206  1.00  0.00    -0.355 OA
HETATM   30  C18 UNK     1      15.483   3.888  10.216  1.00  0.00     0.210 C 
ENDBRANCH   2  29
TORSDOF 7
ENDMDL
MODEL 10
REMARK VINA RESULT:      -8.1     13.137     17.008
REMARK  7 active torsions:
REMARK  status: ('A' for Active; 'I' for Inactive)
REMARK    1  A    between atoms: C4_10  and  O1_1 
REMARK    2  A    between atoms: C21_27  and  O3_3 
REMARK    3  A    between atoms: C1_7  and  N1_4 
REMARK    4  A    between atoms: C1_7  and  C2_8 
REMARK    5  A    between atoms: C12_18  and  C7_13 
REMARK    6  A    between atoms: C15_21  and  C16_22 
REMARK    7  A    between atoms: C16_22  and  C17_23 
ROOT
HETATM    1  C2  UNK     1      14.328   8.081   9.170  1.00  0.00    -0.005 A 
HETATM    2  C4  UNK     1      14.788   6.946   9.837  1.00  0.00     0.076 A 
HETATM    3  C5  UNK     1      14.686   9.350   9.623  1.00  0.00     0.023 A 
HETATM    4  C7  UNK     1      15.506   9.485  10.744  1.00  0.00    -0.035 A 
HETATM    5  C8  UNK     1      15.607   7.080  10.958  1.00  0.00     0.038 A 
HETATM    6  C10 UNK     1      15.966   8.350  11.412  1.00  0.00     0.014 A 
ENDROOT
BRANCH   4   7
HETATM    7  C12 UNK     1      15.879  10.809  11.217  1.00  0.00     0.015 C 
HETATM    8  C15 UNK     1      16.891  11.557  10.723  1.00  0.00     0.056 C 
BRANCH   8   9
HETATM    9  C16 UNK     1      17.731  11.042   9.605  1.00  0.00     0.182 C 
HETATM   10  O2  UNK     1      18.273   9.943   9.638  1.00  0.00    -0.288 OA
BRANCH   9  11
HETATM   11  C17 UNK     1      17.877  11.899   8.405  1.00  0.00     0.014 A 
HETATM   12  C19 UNK     1      19.020  11.800   7.611  1.00  0.00     0.018 A 
HETATM   13  C22 UNK     1      19.158  12.608   6.483  1.00  0.00     0.037 A 
HETATM   14  C21 UNK     1      18.153  13.515   6.146  1.00  0.00     0.068 A 
HETATM   15  C23 UNK     1      17.009  13.614   6.940  1.00  0.00     0.037 A 
HETATM   16  C20 UNK     1      16.872  12.806   8.069  1.00  0.00     0.018 A 
BRANCH  14  17
HETATM   17  O3  UNK     1      18.288  14.302   5.045  1.00  0.00    -0.356 OA
HETATM   18  C24 UNK     1      18.426  15.706   5.264  1.00  0.00     0.210 C 
ENDBRANCH  14  17
ENDBRANCH   9  11
ENDBRANCH   8   9
ENDBRANCH   4   7
BRANCH   1  19
HETATM   19  C1  UNK     1      13.441   7.954   7.956  1.00  0.00     0.188 C 
BRANCH  19  20
HETATM   20  N1  UNK     1      12.057   7.716   8.283  1.00  0.00    -0.268 N 
HETATM   21  C3  UNK     1      11.093   7.151   7.499  1.00  0.00     0.079 A 
HETATM   22  C6  UNK     1       9.969   7.175   8.310  1.00  0.00     0.102 A 
HETATM   23  C9  UNK     1      11.097   6.642   6.201  1.00  0.00     0.033 A 
HETATM   24  C11 UNK     1       8.756   6.664   7.825  1.00  0.00     0.035 A 
HETATM   25  N3  UNK     1      10.291   7.737   9.518  1.00  0.00    -0.158 NA
HETATM   26  C14 UNK     1       8.732   6.145   6.524  1.00  0.00     0.002 A 
HETATM   27  C13 UNK     1       9.882   6.134   5.730  1.00  0.00     0.002 A 
HETATM   28  N2  UNK     1      11.578   8.066   9.488  1.00  0.00     0.006 NA
ENDBRANCH  19  20
ENDBRANCH   1  19
BRANCH   2  29
HETATM   29  O1  UNK     1      14.448   5.698   9.408  1.00  0.00    -0.355 OA
HETATM   30  C18 UNK     1      15.229   4.609   9.895  1.00  0.00     0.210 C 
ENDBRANCH   2  29
TORSDOF 7
ENDMDL
