MODEL 1
REMARK VINA RESULT:     -10.4      0.000      0.000
REMARK  5 active torsions:
REMARK  status: ('A' for Active; 'I' for Inactive)
REMARK    1  A    between atoms: C5_12  and  N1_5 
REMARK    2  A    between atoms: C6_13  and  N2_6 
REMARK    3  A    between atoms: C17_24  and  N3_7 
REMARK       I    between atoms: C9_16  and  N3_7 
REMARK    4  A    between atoms: C5_12  and  C7_14 
REMARK    5  A    between atoms: C6_13  and  C9_16 
ROOT
HETATM    1  N1  UNK     1      19.278  -3.140  36.114  1.00  0.00     0.096 N 
HETATM    2  N2  UNK     1      18.303  -0.537  35.319  1.00  0.00     0.100 N 
HETATM    3  C1  UNK     1      18.441  -2.332  37.010  1.00  0.00     0.303 C 
HETATM    4  C2  UNK     1      20.058  -2.273  35.222  1.00  0.00     0.303 C 
HETATM    5  C3  UNK     1      17.522  -1.402  36.210  1.00  0.00     0.303 C 
HETATM    6  C4  UNK     1      19.139  -1.344  34.422  1.00  0.00     0.303 C 
ENDROOT
BRANCH   1   7
HETATM    7  C5  UNK     1      20.155  -4.022  36.879  1.00  0.00     0.312 C 
BRANCH   7   8
HETATM    8  C7  UNK     1      20.174  -5.408  36.333  1.00  0.00    -0.011 A 
HETATM    9  C10 UNK     1      20.270  -5.632  35.015  1.00  0.00     0.092 A 
HETATM   10  C13 UNK     1      20.292  -6.984  34.429  1.00  0.00     0.288 A 
HETATM   11  O1  UNK     1      20.207  -8.047  35.314  1.00  0.00    -0.275 OA
HETATM   12  O3  UNK     1      20.382  -7.149  33.218  1.00  0.00    -0.260 OA
HETATM   13  C11 UNK     1      20.106  -7.843  36.705  1.00  0.00     0.090 A 
HETATM   14  C14 UNK     1      20.025  -8.987  37.500  1.00  0.00     0.045 A 
HETATM   15  C8  UNK     1      20.085  -6.556  37.245  1.00  0.00     0.006 A 
HETATM   16  C15 UNK     1      19.923  -8.849  38.881  1.00  0.00    -0.059 A 
HETATM   17  C16 UNK     1      19.900  -7.576  39.448  1.00  0.00     0.007 A 
HETATM   18  C18 UNK     1      19.837 -10.057  39.750  1.00  0.00     0.048 C 
HETATM   19  C12 UNK     1      19.981  -6.438  38.638  1.00  0.00     0.015 A 
ENDBRANCH   7   8
ENDBRANCH   1   7
BRANCH   2  20
HETATM   20  C6  UNK     1      17.427   0.349  34.554  1.00  0.00     0.375 C 
BRANCH  20  21
HETATM   21  C9  UNK     1      18.164   1.637  34.233  1.00  0.00     0.250 C 
HETATM   22  O2  UNK     1      19.009   2.120  34.980  1.00  0.00    -0.271 OA
HETATM   23  N3  UNK     1      17.741   2.140  33.004  1.00  0.00    -0.324 N 
HETATM   24  H15 UNK     1      17.031   1.621  32.492  1.00  0.00     0.169 HD
BRANCH  23  25
HETATM   25  C17 UNK     1      18.184   3.317  32.354  1.00  0.00     0.056 A 
HETATM   26  C19 UNK     1      18.594   3.301  31.021  1.00  0.00     0.060 A 
HETATM   27  C21 UNK     1      19.026   4.479  30.410  1.00  0.00     0.026 A 
HETATM   28 Cl1  UNK     1      18.582   1.847  30.089  1.00  0.00    -0.082 Cl
HETATM   29  C23 UNK     1      19.050   5.671  31.133  1.00  0.00     0.002 A 
HETATM   30  C22 UNK     1      18.640   5.687  32.466  1.00  0.00     0.002 A 
HETATM   31  C20 UNK     1      18.208   4.510  33.077  1.00  0.00     0.031 A 
ENDBRANCH  23  25
ENDBRANCH  20  21
ENDBRANCH   2  20
TORSDOF 5
ENDMDL
MODEL 2
REMARK VINA RESULT:     -10.3      1.547      1.776
REMARK  5 active torsions:
REMARK  status: ('A' for Active; 'I' for Inactive)
REMARK    1  A    between atoms: C5_12  and  N1_5 
REMARK    2  A    between atoms: C6_13  and  N2_6 
REMARK    3  A    between atoms: C17_24  and  N3_7 
REMARK       I    between atoms: C9_16  and  N3_7 
REMARK    4  A    between atoms: C5_12  and  C7_14 
REMARK    5  A    between atoms: C6_13  and  C9_16 
ROOT
HETATM    1  N1  UNK     1      19.304  -2.582  35.904  1.00  0.00     0.096 N 
HETATM    2  N2  UNK     1      18.395   0.004  34.986  1.00  0.00     0.100 N 
HETATM    3  C1  UNK     1      18.903  -1.534  36.851  1.00  0.00     0.303 C 
HETATM    4  C2  UNK     1      19.826  -1.984  34.669  1.00  0.00     0.303 C 
HETATM    5  C3  UNK     1      17.871  -0.592  36.220  1.00  0.00     0.303 C 
HETATM    6  C4  UNK     1      18.794  -1.044  34.039  1.00  0.00     0.303 C 
ENDROOT
BRANCH   1   7
HETATM    7  C5  UNK     1      20.291  -3.476  36.506  1.00  0.00     0.312 C 
BRANCH   7   8
HETATM    8  C7  UNK     1      19.697  -4.783  36.903  1.00  0.00    -0.011 A 
HETATM    9  C10 UNK     1      18.466  -5.134  36.505  1.00  0.00     0.092 A 
HETATM   10  C13 UNK     1      17.839  -6.416  36.873  1.00  0.00     0.288 A 
HETATM   11  O1  UNK     1      18.586  -7.270  37.667  1.00  0.00    -0.275 OA
HETATM   12  O3  UNK     1      16.710  -6.702  36.489  1.00  0.00    -0.260 OA
HETATM   13  C11 UNK     1      19.884  -6.928  38.100  1.00  0.00     0.090 A 
HETATM   14  C14 UNK     1      20.543  -7.866  38.897  1.00  0.00     0.045 A 
HETATM   15  C8  UNK     1      20.465  -5.711  37.745  1.00  0.00     0.006 A 
HETATM   16  C15 UNK     1      21.826  -7.585  39.355  1.00  0.00    -0.059 A 
HETATM   17  C16 UNK     1      22.432  -6.376  39.016  1.00  0.00     0.007 A 
HETATM   18  C18 UNK     1      22.550  -8.571  40.206  1.00  0.00     0.048 C 
HETATM   19  C12 UNK     1      21.757  -5.446  38.217  1.00  0.00     0.015 A 
ENDBRANCH   7   8
ENDBRANCH   1   7
BRANCH   2  20
HETATM   20  C6  UNK     1      17.410   0.900  34.383  1.00  0.00     0.375 C 
BRANCH  20  21
HETATM   21  C9  UNK     1      18.074   2.220  34.031  1.00  0.00     0.250 C 
HETATM   22  O2  UNK     1      18.783   2.835  34.822  1.00  0.00    -0.271 OA
HETATM   23  N3  UNK     1      17.760   2.583  32.724  1.00  0.00    -0.324 N 
HETATM   24  H15 UNK     1      17.160   1.963  32.184  1.00  0.00     0.169 HD
BRANCH  23  25
HETATM   25  C17 UNK     1      18.181   3.740  32.024  1.00  0.00     0.056 A 
HETATM   26  C19 UNK     1      18.720   3.657  30.740  1.00  0.00     0.060 A 
HETATM   27  C21 UNK     1      19.126   4.816  30.078  1.00  0.00     0.026 A 
HETATM   28 Cl1  UNK     1      18.901   2.141  29.932  1.00  0.00    -0.082 Cl
HETATM   29  C23 UNK     1      18.995   6.057  30.701  1.00  0.00     0.002 A 
HETATM   30  C22 UNK     1      18.457   6.140  31.985  1.00  0.00     0.002 A 
HETATM   31  C20 UNK     1      18.050   4.981  32.646  1.00  0.00     0.031 A 
ENDBRANCH  23  25
ENDBRANCH  20  21
ENDBRANCH   2  20
TORSDOF 5
ENDMDL
MODEL 3
REMARK VINA RESULT:     -10.3      2.162      2.765
REMARK  5 active torsions:
REMARK  status: ('A' for Active; 'I' for Inactive)
REMARK    1  A    between atoms: C5_12  and  N1_5 
REMARK    2  A    between atoms: C6_13  and  N2_6 
REMARK    3  A    between atoms: C17_24  and  N3_7 
REMARK       I    between atoms: C9_16  and  N3_7 
REMARK    4  A    between atoms: C5_12  and  C7_14 
REMARK    5  A    between atoms: C6_13  and  C9_16 
ROOT
HETATM    1  N1  UNK     1      19.421  -3.694  36.345  1.00  0.00     0.096 N 
HETATM    2  N2  UNK     1      18.928  -0.915  35.721  1.00  0.00     0.100 N 
HETATM    3  C1  UNK     1      18.445  -2.903  37.106  1.00  0.00     0.303 C 
HETATM    4  C2  UNK     1      20.486  -2.829  35.823  1.00  0.00     0.303 C 
HETATM    5  C3  UNK     1      17.863  -1.778  36.243  1.00  0.00     0.303 C 
HETATM    6  C4  UNK     1      19.903  -1.705  34.960  1.00  0.00     0.303 C 
ENDROOT
BRANCH   1   7
HETATM    7  C5  UNK     1      19.979  -4.763  37.171  1.00  0.00     0.312 C 
BRANCH   7   8
HETATM    8  C7  UNK     1      20.092  -6.048  36.425  1.00  0.00    -0.011 A 
HETATM    9  C10 UNK     1      20.361  -6.066  35.112  1.00  0.00     0.092 A 
HETATM   10  C13 UNK     1      20.482  -7.311  34.334  1.00  0.00     0.288 A 
HETATM   11  O1  UNK     1      20.304  -8.498  35.026  1.00  0.00    -0.275 OA
HETATM   12  O3  UNK     1      20.730  -7.287  33.134  1.00  0.00    -0.260 OA
HETATM   13  C11 UNK     1      20.020  -8.511  36.407  1.00  0.00     0.090 A 
HETATM   14  C14 UNK     1      19.860  -9.764  37.000  1.00  0.00     0.045 A 
HETATM   15  C8  UNK     1      19.908  -7.323  37.131  1.00  0.00     0.006 A 
HETATM   16  C15 UNK     1      19.579  -9.841  38.360  1.00  0.00    -0.059 A 
HETATM   17  C16 UNK     1      19.460  -8.671  39.109  1.00  0.00     0.007 A 
HETATM   18  C18 UNK     1      19.404 -11.168  39.015  1.00  0.00     0.048 C 
HETATM   19  C12 UNK     1      19.623  -7.421  38.500  1.00  0.00     0.015 A 
ENDBRANCH   7   8
ENDBRANCH   1   7
BRANCH   2  20
HETATM   20  C6  UNK     1      18.372   0.157  34.897  1.00  0.00     0.375 C 
BRANCH  20  21
HETATM   21  C9  UNK     1      18.223  -0.330  33.466  1.00  0.00     0.250 C 
HETATM   22  O2  UNK     1      17.305  -1.061  33.109  1.00  0.00    -0.271 OA
HETATM   23  N3  UNK     1      19.250   0.180  32.675  1.00  0.00    -0.324 N 
HETATM   24  H15 UNK     1      19.940   0.784  33.115  1.00  0.00     0.169 HD
BRANCH  23  25
HETATM   25  C17 UNK     1      19.464  -0.038  31.293  1.00  0.00     0.056 A 
HETATM   26  C19 UNK     1      19.116   0.920  30.342  1.00  0.00     0.060 A 
HETATM   27  C21 UNK     1      19.340   0.673  28.988  1.00  0.00     0.026 A 
HETATM   28 Cl1  UNK     1      18.405   2.428  30.797  1.00  0.00    -0.082 Cl
HETATM   29  C23 UNK     1      19.911  -0.533  28.584  1.00  0.00     0.002 A 
HETATM   30  C22 UNK     1      20.260  -1.492  29.535  1.00  0.00     0.002 A 
HETATM   31  C20 UNK     1      20.036  -1.245  30.889  1.00  0.00     0.031 A 
ENDBRANCH  23  25
ENDBRANCH  20  21
ENDBRANCH   2  20
TORSDOF 5
ENDMDL
MODEL 4
REMARK VINA RESULT:     -10.1      6.391     12.548
REMARK  5 active torsions:
REMARK  status: ('A' for Active; 'I' for Inactive)
REMARK    1  A    between atoms: C5_12  and  N1_5 
REMARK    2  A    between atoms: C6_13  and  N2_6 
REMARK    3  A    between atoms: C17_24  and  N3_7 
REMARK       I    between atoms: C9_16  and  N3_7 
REMARK    4  A    between atoms: C5_12  and  C7_14 
REMARK    5  A    between atoms: C6_13  and  C9_16 
ROOT
HETATM    1  N1  UNK     1      18.206   5.749  32.891  1.00  0.00     0.096 N 
HETATM    2  N2  UNK     1      18.902   4.137  30.594  1.00  0.00     0.100 N 
HETATM    3  C1  UNK     1      19.225   6.190  31.930  1.00  0.00     0.303 C 
HETATM    4  C2  UNK     1      18.152   4.282  32.943  1.00  0.00     0.303 C 
HETATM    5  C3  UNK     1      18.956   5.602  30.540  1.00  0.00     0.303 C 
HETATM    6  C4  UNK     1      17.882   3.696  31.554  1.00  0.00     0.303 C 
ENDROOT
BRANCH   1   7
HETATM    7  C5  UNK     1      18.466   6.306  34.216  1.00  0.00     0.312 C 
BRANCH   7   8
HETATM    8  C7  UNK     1      18.433   7.795  34.216  1.00  0.00    -0.011 A 
HETATM    9  C10 UNK     1      19.553   8.513  34.383  1.00  0.00     0.092 A 
HETATM   10  C13 UNK     1      19.569   9.986  34.390  1.00  0.00     0.288 A 
HETATM   11  O1  UNK     1      18.351  10.623  34.214  1.00  0.00    -0.275 OA
HETATM   12  O3  UNK     1      20.614  10.608  34.544  1.00  0.00    -0.260 OA
HETATM   13  C11 UNK     1      17.157   9.895  34.036  1.00  0.00     0.090 A 
HETATM   14  C14 UNK     1      15.990  10.642  33.869  1.00  0.00     0.045 A 
HETATM   15  C8  UNK     1      17.157   8.500  34.033  1.00  0.00     0.006 A 
HETATM   16  C15 UNK     1      14.780   9.979  33.689  1.00  0.00    -0.059 A 
HETATM   17  C16 UNK     1      14.749   8.585  33.681  1.00  0.00     0.007 A 
HETATM   18  C18 UNK     1      13.520  10.755  33.508  1.00  0.00     0.048 C 
HETATM   19  C12 UNK     1      15.929   7.850  33.851  1.00  0.00     0.015 A 
ENDBRANCH   7   8
ENDBRANCH   1   7
BRANCH   2  20
HETATM   20  C6  UNK     1      18.644   3.577  29.269  1.00  0.00     0.375 C 
BRANCH  20  21
HETATM   21  C9  UNK     1      18.506   2.068  29.374  1.00  0.00     0.250 C 
HETATM   22  O2  UNK     1      17.513   1.466  28.980  1.00  0.00    -0.271 OA
HETATM   23  N3  UNK     1      19.647   1.521  29.957  1.00  0.00    -0.324 N 
HETATM   24  H15 UNK     1      20.398   2.152  30.228  1.00  0.00     0.169 HD
BRANCH  23  25
HETATM   25  C17 UNK     1      19.908   0.156  30.228  1.00  0.00     0.056 A 
HETATM   26  C19 UNK     1      19.562  -0.422  31.449  1.00  0.00     0.060 A 
HETATM   27  C21 UNK     1      19.835  -1.769  31.685  1.00  0.00     0.026 A 
HETATM   28 Cl1  UNK     1      18.795   0.494  32.698  1.00  0.00    -0.082 Cl
HETATM   29  C23 UNK     1      20.454  -2.539  30.700  1.00  0.00     0.002 A 
HETATM   30  C22 UNK     1      20.800  -1.961  29.479  1.00  0.00     0.002 A 
HETATM   31  C20 UNK     1      20.527  -0.613  29.243  1.00  0.00     0.031 A 
ENDBRANCH  23  25
ENDBRANCH  20  21
ENDBRANCH   2  20
TORSDOF 5
ENDMDL
MODEL 5
REMARK VINA RESULT:     -10.1      6.267     12.932
REMARK  5 active torsions:
REMARK  status: ('A' for Active; 'I' for Inactive)
REMARK    1  A    between atoms: C5_12  and  N1_5 
REMARK    2  A    between atoms: C6_13  and  N2_6 
REMARK    3  A    between atoms: C17_24  and  N3_7 
REMARK       I    between atoms: C9_16  and  N3_7 
REMARK    4  A    between atoms: C5_12  and  C7_14 
REMARK    5  A    between atoms: C6_13  and  C9_16 
ROOT
HETATM    1  N1  UNK     1      18.281   6.219  32.254  1.00  0.00     0.096 N 
HETATM    2  N2  UNK     1      18.998   4.183  30.330  1.00  0.00     0.100 N 
HETATM    3  C1  UNK     1      19.427   6.391  31.352  1.00  0.00     0.303 C 
HETATM    4  C2  UNK     1      18.057   4.795  32.531  1.00  0.00     0.303 C 
HETATM    5  C3  UNK     1      19.222   5.606  30.051  1.00  0.00     0.303 C 
HETATM    6  C4  UNK     1      17.852   4.011  31.231  1.00  0.00     0.303 C 
ENDROOT
BRANCH   1   7
HETATM    7  C5  UNK     1      18.480   6.965  33.494  1.00  0.00     0.312 C 
BRANCH   7   8
HETATM    8  C7  UNK     1      17.367   7.918  33.762  1.00  0.00    -0.011 A 
HETATM    9  C10 UNK     1      16.096   7.499  33.822  1.00  0.00     0.092 A 
HETATM   10  C13 UNK     1      14.963   8.405  34.083  1.00  0.00     0.288 A 
HETATM   11  O1  UNK     1      15.267   9.744  34.271  1.00  0.00    -0.275 OA
HETATM   12  O3  UNK     1      13.813   7.984  34.131  1.00  0.00    -0.260 OA
HETATM   13  C11 UNK     1      16.595  10.213  34.214  1.00  0.00     0.090 A 
HETATM   14  C14 UNK     1      16.782  11.582  34.418  1.00  0.00     0.045 A 
HETATM   15  C8  UNK     1      17.657   9.344  33.964  1.00  0.00     0.006 A 
HETATM   16  C15 UNK     1      18.071  12.104  34.373  1.00  0.00    -0.059 A 
HETATM   17  C16 UNK     1      19.151  11.260  34.126  1.00  0.00     0.007 A 
HETATM   18  C18 UNK     1      18.295  13.562  34.588  1.00  0.00     0.048 C 
HETATM   19  C12 UNK     1      18.947   9.890  33.923  1.00  0.00     0.015 A 
ENDBRANCH   7   8
ENDBRANCH   1   7
BRANCH   2  20
HETATM   20  C6  UNK     1      18.801   3.435  29.090  1.00  0.00     0.375 C 
BRANCH  20  21
HETATM   21  C9  UNK     1      18.574   1.968  29.414  1.00  0.00     0.250 C 
HETATM   22  O2  UNK     1      17.499   1.409  29.225  1.00  0.00    -0.271 OA
HETATM   23  N3  UNK     1      19.739   1.402  29.927  1.00  0.00    -0.324 N 
HETATM   24  H15 UNK     1      20.560   1.996  30.020  1.00  0.00     0.169 HD
BRANCH  23  25
HETATM   25  C17 UNK     1      19.937   0.065  30.348  1.00  0.00     0.056 A 
HETATM   26  C19 UNK     1      19.516  -0.372  31.603  1.00  0.00     0.060 A 
HETATM   27  C21 UNK     1      19.728  -1.696  31.988  1.00  0.00     0.026 A 
HETATM   28 Cl1  UNK     1      18.729   0.692  32.714  1.00  0.00    -0.082 Cl
HETATM   29  C23 UNK     1      20.361  -2.583  31.117  1.00  0.00     0.002 A 
HETATM   30  C22 UNK     1      20.782  -2.145  29.861  1.00  0.00     0.002 A 
HETATM   31  C20 UNK     1      20.570  -0.821  29.477  1.00  0.00     0.031 A 
ENDBRANCH  23  25
ENDBRANCH  20  21
ENDBRANCH   2  20
TORSDOF 5
ENDMDL
MODEL 6
REMARK VINA RESULT:      -9.4      4.423     10.515
REMARK  5 active torsions:
REMARK  status: ('A' for Active; 'I' for Inactive)
REMARK    1  A    between atoms: C5_12  and  N1_5 
REMARK    2  A    between atoms: C6_13  and  N2_6 
REMARK    3  A    between atoms: C17_24  and  N3_7 
REMARK       I    between atoms: C9_16  and  N3_7 
REMARK    4  A    between atoms: C5_12  and  C7_14 
REMARK    5  A    between atoms: C6_13  and  C9_16 
ROOT
HETATM    1  N1  UNK     1      20.001  -3.933  36.781  1.00  0.00     0.096 N 
HETATM    2  N2  UNK     1      20.172  -6.788  37.206  1.00  0.00     0.100 N 
HETATM    3  C1  UNK     1      19.792  -4.882  35.680  1.00  0.00     0.303 C 
HETATM    4  C2  UNK     1      20.912  -4.503  37.782  1.00  0.00     0.303 C 
HETATM    5  C3  UNK     1      19.261  -6.221  36.205  1.00  0.00     0.303 C 
HETATM    6  C4  UNK     1      20.379  -5.840  38.307  1.00  0.00     0.303 C 
ENDROOT
BRANCH   1   7
HETATM    7  C5  UNK     1      20.512  -2.660  36.279  1.00  0.00     0.312 C 
BRANCH   7   8
HETATM    8  C7  UNK     1      19.529  -1.967  35.399  1.00  0.00    -0.011 A 
HETATM    9  C10 UNK     1      18.432  -1.388  35.907  1.00  0.00     0.092 A 
HETATM   10  C13 UNK     1      17.433  -0.693  35.076  1.00  0.00     0.288 A 
HETATM   11  O1  UNK     1      17.674  -0.658  33.712  1.00  0.00    -0.275 OA
HETATM   12  O3  UNK     1      16.442  -0.174  35.577  1.00  0.00    -0.260 OA
HETATM   13  C11 UNK     1      18.819  -1.258  33.149  1.00  0.00     0.090 A 
HETATM   14  C14 UNK     1      18.957  -1.161  31.763  1.00  0.00     0.045 A 
HETATM   15  C8  UNK     1      19.756  -1.914  33.949  1.00  0.00     0.006 A 
HETATM   16  C15 UNK     1      20.067  -1.734  31.151  1.00  0.00    -0.059 A 
HETATM   17  C16 UNK     1      21.020  -2.395  31.924  1.00  0.00     0.007 A 
HETATM   18  C18 UNK     1      20.237  -1.642  29.673  1.00  0.00     0.048 C 
HETATM   19  C12 UNK     1      20.866  -2.485  33.312  1.00  0.00     0.015 A 
ENDBRANCH   7   8
ENDBRANCH   1   7
BRANCH   2  20
HETATM   20  C6  UNK     1      19.664  -8.063  37.707  1.00  0.00     0.375 C 
BRANCH  20  21
HETATM   21  C9  UNK     1      20.813  -9.046  37.851  1.00  0.00     0.250 C 
HETATM   22  O2  UNK     1      20.819  -9.939  38.691  1.00  0.00    -0.271 OA
HETATM   23  N3  UNK     1      21.800  -8.773  36.905  1.00  0.00    -0.324 N 
HETATM   24  H15 UNK     1      21.649  -7.996  36.265  1.00  0.00     0.169 HD
BRANCH  23  25
HETATM   25  C17 UNK     1      23.024  -9.457  36.713  1.00  0.00     0.056 A 
HETATM   26  C19 UNK     1      23.086 -10.646  35.986  1.00  0.00     0.060 A 
HETATM   27  C21 UNK     1      24.308 -11.296  35.815  1.00  0.00     0.026 A 
HETATM   28 Cl1  UNK     1      21.674 -11.348  35.279  1.00  0.00    -0.082 Cl
HETATM   29  C23 UNK     1      25.468 -10.759  36.373  1.00  0.00     0.002 A 
HETATM   30  C22 UNK     1      25.406  -9.570  37.099  1.00  0.00     0.002 A 
HETATM   31  C20 UNK     1      24.184  -8.920  37.270  1.00  0.00     0.031 A 
ENDBRANCH  23  25
ENDBRANCH  20  21
ENDBRANCH   2  20
TORSDOF 5
ENDMDL
MODEL 7
REMARK VINA RESULT:      -9.4      2.676      3.509
REMARK  5 active torsions:
REMARK  status: ('A' for Active; 'I' for Inactive)
REMARK    1  A    between atoms: C5_12  and  N1_5 
REMARK    2  A    between atoms: C6_13  and  N2_6 
REMARK    3  A    between atoms: C17_24  and  N3_7 
REMARK       I    between atoms: C9_16  and  N3_7 
REMARK    4  A    between atoms: C5_12  and  C7_14 
REMARK    5  A    between atoms: C6_13  and  C9_16 
ROOT
HETATM    1  N1  UNK     1      20.368  -3.592  37.182  1.00  0.00     0.096 N 
HETATM    2  N2  UNK     1      18.857  -1.745  35.550  1.00  0.00     0.100 N 
HETATM    3  C1  UNK     1      20.217  -3.799  35.736  1.00  0.00     0.303 C 
HETATM    4  C2  UNK     1      19.207  -2.872  37.721  1.00  0.00     0.303 C 
HETATM    5  C3  UNK     1      20.017  -2.463  35.011  1.00  0.00     0.303 C 
HETATM    6  C4  UNK     1      19.009  -1.537  36.996  1.00  0.00     0.303 C 
ENDROOT
BRANCH   1   7
HETATM    7  C5  UNK     1      20.554  -4.867  37.872  1.00  0.00     0.312 C 
BRANCH   7   8
HETATM    8  C7  UNK     1      19.870  -5.990  37.172  1.00  0.00    -0.011 A 
HETATM    9  C10 UNK     1      18.591  -5.888  36.784  1.00  0.00     0.092 A 
HETATM   10  C13 UNK     1      17.874  -6.971  36.090  1.00  0.00     0.288 A 
HETATM   11  O1  UNK     1      18.587  -8.134  35.845  1.00  0.00    -0.275 OA
HETATM   12  O3  UNK     1      16.703  -6.841  35.749  1.00  0.00    -0.260 OA
HETATM   13  C11 UNK     1      19.933  -8.270  36.242  1.00  0.00     0.090 A 
HETATM   14  C14 UNK     1      20.551  -9.486  35.944  1.00  0.00     0.045 A 
HETATM   15  C8  UNK     1      20.599  -7.235  36.899  1.00  0.00     0.006 A 
HETATM   16  C15 UNK     1      21.880  -9.679  36.310  1.00  0.00    -0.059 A 
HETATM   17  C16 UNK     1      22.571  -8.663  36.968  1.00  0.00     0.007 A 
HETATM   18  C18 UNK     1      22.561 -10.968  36.002  1.00  0.00     0.048 C 
HETATM   19  C12 UNK     1      21.936  -7.450  37.261  1.00  0.00     0.015 A 
ENDBRANCH   7   8
ENDBRANCH   1   7
BRANCH   2  20
HETATM   20  C6  UNK     1      18.668  -0.471  34.860  1.00  0.00     0.375 C 
BRANCH  20  21
HETATM   21  C9  UNK     1      18.401  -0.727  33.387  1.00  0.00     0.250 C 
HETATM   22  O2  UNK     1      17.367  -1.248  32.983  1.00  0.00    -0.271 OA
HETATM   23  N3  UNK     1      19.476  -0.282  32.619  1.00  0.00    -0.324 N 
HETATM   24  H15 UNK     1      20.267   0.139  33.100  1.00  0.00     0.169 HD
BRANCH  23  25
HETATM   25  C17 UNK     1      19.614  -0.340  31.211  1.00  0.00     0.056 A 
HETATM   26  C19 UNK     1      19.234   0.727  30.399  1.00  0.00     0.060 A 
HETATM   27  C21 UNK     1      19.382   0.637  29.014  1.00  0.00     0.026 A 
HETATM   28 Cl1  UNK     1      18.576   2.180  31.064  1.00  0.00    -0.082 Cl
HETATM   29  C23 UNK     1      19.909  -0.521  28.443  1.00  0.00     0.002 A 
HETATM   30  C22 UNK     1      20.288  -1.589  29.256  1.00  0.00     0.002 A 
HETATM   31  C20 UNK     1      20.140  -1.499  30.640  1.00  0.00     0.031 A 
ENDBRANCH  23  25
ENDBRANCH  20  21
ENDBRANCH   2  20
TORSDOF 5
ENDMDL
MODEL 8
REMARK VINA RESULT:      -9.4      2.751      3.334
REMARK  5 active torsions:
REMARK  status: ('A' for Active; 'I' for Inactive)
REMARK    1  A    between atoms: C5_12  and  N1_5 
REMARK    2  A    between atoms: C6_13  and  N2_6 
REMARK    3  A    between atoms: C17_24  and  N3_7 
REMARK       I    between atoms: C9_16  and  N3_7 
REMARK    4  A    between atoms: C5_12  and  C7_14 
REMARK    5  A    between atoms: C6_13  and  C9_16 
ROOT
HETATM    1  N1  UNK     1      19.553  -2.969  36.867  1.00  0.00     0.096 N 
HETATM    2  N2  UNK     1      18.845  -0.426  35.688  1.00  0.00     0.100 N 
HETATM    3  C1  UNK     1      18.654  -2.033  37.555  1.00  0.00     0.303 C 
HETATM    4  C2  UNK     1      20.493  -2.238  36.007  1.00  0.00     0.303 C 
HETATM    5  C3  UNK     1      17.904  -1.155  36.546  1.00  0.00     0.303 C 
HETATM    6  C4  UNK     1      19.742  -1.362  35.000  1.00  0.00     0.303 C 
ENDROOT
BRANCH   1   7
HETATM    7  C5  UNK     1      20.270  -3.802  37.830  1.00  0.00     0.312 C 
BRANCH   7   8
HETATM    8  C7  UNK     1      20.409  -5.209  37.362  1.00  0.00    -0.011 A 
HETATM    9  C10 UNK     1      19.524  -5.747  36.512  1.00  0.00     0.092 A 
HETATM   10  C13 UNK     1      19.620  -7.133  36.023  1.00  0.00     0.288 A 
HETATM   11  O1  UNK     1      20.690  -7.884  36.485  1.00  0.00    -0.275 OA
HETATM   12  O3  UNK     1      18.791  -7.591  35.245  1.00  0.00    -0.260 OA
HETATM   13  C11 UNK     1      21.637  -7.345  37.379  1.00  0.00     0.090 A 
HETATM   14  C14 UNK     1      22.672  -8.193  37.778  1.00  0.00     0.045 A 
HETATM   15  C8  UNK     1      21.532  -6.030  37.835  1.00  0.00     0.006 A 
HETATM   16  C15 UNK     1      23.637  -7.717  38.659  1.00  0.00    -0.059 A 
HETATM   17  C16 UNK     1      23.558  -6.408  39.131  1.00  0.00     0.007 A 
HETATM   18  C18 UNK     1      24.752  -8.604  39.099  1.00  0.00     0.048 C 
HETATM   19  C12 UNK     1      22.514  -5.570  38.723  1.00  0.00     0.015 A 
ENDBRANCH   7   8
ENDBRANCH   1   7
BRANCH   2  20
HETATM   20  C6  UNK     1      18.129   0.410  34.725  1.00  0.00     0.375 C 
BRANCH  20  21
HETATM   21  C9  UNK     1      18.145  -0.260  33.362  1.00  0.00     0.250 C 
HETATM   22  O2  UNK     1      17.391  -1.183  33.071  1.00  0.00    -0.271 OA
HETATM   23  N3  UNK     1      19.107   0.332  32.546  1.00  0.00    -0.324 N 
HETATM   24  H15 UNK     1      19.655   1.098  32.930  1.00  0.00     0.169 HD
BRANCH  23  25
HETATM   25  C17 UNK     1      19.431  -0.004  31.210  1.00  0.00     0.056 A 
HETATM   26  C19 UNK     1      20.171  -1.146  30.906  1.00  0.00     0.060 A 
HETATM   27  C21 UNK     1      20.474  -1.448  29.578  1.00  0.00     0.026 A 
HETATM   28 Cl1  UNK     1      20.732  -2.215  32.142  1.00  0.00    -0.082 Cl
HETATM   29  C23 UNK     1      20.038  -0.607  28.555  1.00  0.00     0.002 A 
HETATM   30  C22 UNK     1      19.297   0.535  28.859  1.00  0.00     0.002 A 
HETATM   31  C20 UNK     1      18.994   0.837  30.187  1.00  0.00     0.031 A 
ENDBRANCH  23  25
ENDBRANCH  20  21
ENDBRANCH   2  20
TORSDOF 5
ENDMDL
MODEL 9
REMARK VINA RESULT:      -9.3      5.053      8.234
REMARK  5 active torsions:
REMARK  status: ('A' for Active; 'I' for Inactive)
REMARK    1  A    between atoms: C5_12  and  N1_5 
REMARK    2  A    between atoms: C6_13  and  N2_6 
REMARK    3  A    between atoms: C17_24  and  N3_7 
REMARK       I    between atoms: C9_16  and  N3_7 
REMARK    4  A    between atoms: C5_12  and  C7_14 
REMARK    5  A    between atoms: C6_13  and  C9_16 
ROOT
HETATM    1  N1  UNK     1      18.901   3.817  31.351  1.00  0.00     0.096 N 
HETATM    2  N2  UNK     1      19.375   6.448  32.453  1.00  0.00     0.100 N 
HETATM    3  C1  UNK     1      19.471   4.895  30.533  1.00  0.00     0.303 C 
HETATM    4  C2  UNK     1      18.036   4.372  32.400  1.00  0.00     0.303 C 
HETATM    5  C3  UNK     1      20.240   5.894  31.405  1.00  0.00     0.303 C 
HETATM    6  C4  UNK     1      18.806   5.370  33.271  1.00  0.00     0.303 C 
ENDROOT
BRANCH   1   7
HETATM    7  C5  UNK     1      18.165   2.869  30.519  1.00  0.00     0.312 C 
BRANCH   7   8
HETATM    8  C7  UNK     1      18.806   1.524  30.496  1.00  0.00    -0.011 A 
HETATM    9  C10 UNK     1      19.367   1.043  29.378  1.00  0.00     0.092 A 
HETATM   10  C13 UNK     1      20.013  -0.279  29.308  1.00  0.00     0.288 A 
HETATM   11  O1  UNK     1      20.020  -1.031  30.472  1.00  0.00    -0.275 OA
HETATM   12  O3  UNK     1      20.516  -0.686  28.266  1.00  0.00    -0.260 OA
HETATM   13  C11 UNK     1      19.438  -0.551  31.663  1.00  0.00     0.090 A 
HETATM   14  C14 UNK     1      19.504  -1.395  32.774  1.00  0.00     0.045 A 
HETATM   15  C8  UNK     1      18.830   0.703  31.714  1.00  0.00     0.006 A 
HETATM   16  C15 UNK     1      18.947  -0.976  33.978  1.00  0.00    -0.059 A 
HETATM   17  C16 UNK     1      18.333   0.273  34.058  1.00  0.00     0.007 A 
HETATM   18  C18 UNK     1      19.006  -1.859  35.177  1.00  0.00     0.048 C 
HETATM   19  C12 UNK     1      18.274   1.106  32.936  1.00  0.00     0.015 A 
ENDBRANCH   7   8
ENDBRANCH   1   7
BRANCH   2  20
HETATM   20  C6  UNK     1      20.109   7.399  33.285  1.00  0.00     0.375 C 
BRANCH  20  21
HETATM   21  C9  UNK     1      19.147   8.085  34.239  1.00  0.00     0.250 C 
HETATM   22  O2  UNK     1      19.212   7.947  35.456  1.00  0.00    -0.271 OA
HETATM   23  N3  UNK     1      18.235   8.862  33.527  1.00  0.00    -0.324 N 
HETATM   24  H15 UNK     1      18.312   8.882  32.512  1.00  0.00     0.169 HD
BRANCH  23  25
HETATM   25  C17 UNK     1      17.184   9.653  34.047  1.00  0.00     0.056 A 
HETATM   26  C19 UNK     1      15.963   9.089  34.417  1.00  0.00     0.060 A 
HETATM   27  C21 UNK     1      14.946   9.898  34.925  1.00  0.00     0.026 A 
HETATM   28 Cl1  UNK     1      15.667   7.394  34.261  1.00  0.00    -0.082 Cl
HETATM   29  C23 UNK     1      15.150  11.271  35.063  1.00  0.00     0.002 A 
HETATM   30  C22 UNK     1      16.371  11.835  34.694  1.00  0.00     0.002 A 
HETATM   31  C20 UNK     1      17.387  11.026  34.186  1.00  0.00     0.031 A 
ENDBRANCH  23  25
ENDBRANCH  20  21
ENDBRANCH   2  20
TORSDOF 5
ENDMDL
MODEL 10
REMARK VINA RESULT:      -9.2      4.389     10.375
REMARK  5 active torsions:
REMARK  status: ('A' for Active; 'I' for Inactive)
REMARK    1  A    between atoms: C5_12  and  N1_5 
REMARK    2  A    between atoms: C6_13  and  N2_6 
REMARK    3  A    between atoms: C17_24  and  N3_7 
REMARK       I    between atoms: C9_16  and  N3_7 
REMARK    4  A    between atoms: C5_12  and  C7_14 
REMARK    5  A    between atoms: C6_13  and  C9_16 
ROOT
HETATM    1  N1  UNK     1      20.136  -3.897  36.488  1.00  0.00     0.096 N 
HETATM    2  N2  UNK     1      20.311  -6.718  37.095  1.00  0.00     0.100 N 
HETATM    3  C1  UNK     1      20.114  -4.909  35.424  1.00  0.00     0.303 C 
HETATM    4  C2  UNK     1      20.904  -4.382  37.641  1.00  0.00     0.303 C 
HETATM    5  C3  UNK     1      19.544  -6.234  35.943  1.00  0.00     0.303 C 
HETATM    6  C4  UNK     1      20.332  -5.706  38.159  1.00  0.00     0.303 C 
ENDROOT
BRANCH   1   7
HETATM    7  C5  UNK     1      20.684  -2.636  35.993  1.00  0.00     0.312 C 
BRANCH   7   8
HETATM    8  C7  UNK     1      19.776  -1.972  35.017  1.00  0.00    -0.011 A 
HETATM    9  C10 UNK     1      19.998  -2.053  33.698  1.00  0.00     0.092 A 
HETATM   10  C13 UNK     1      19.127  -1.414  32.696  1.00  0.00     0.288 A 
HETATM   11  O1  UNK     1      18.039  -0.704  33.178  1.00  0.00    -0.275 OA
HETATM   12  O3  UNK     1      19.362  -1.510  31.497  1.00  0.00    -0.260 OA
HETATM   13  C11 UNK     1      17.779  -0.602  34.561  1.00  0.00     0.090 A 
HETATM   14  C14 UNK     1      16.655   0.138  34.932  1.00  0.00     0.045 A 
HETATM   15  C8  UNK     1      18.614  -1.213  35.498  1.00  0.00     0.006 A 
HETATM   16  C15 UNK     1      16.348   0.274  36.282  1.00  0.00    -0.059 A 
HETATM   17  C16 UNK     1      17.164  -0.324  37.241  1.00  0.00     0.007 A 
HETATM   18  C18 UNK     1      15.153   1.059  36.702  1.00  0.00     0.048 C 
HETATM   19  C12 UNK     1      18.288  -1.063  36.853  1.00  0.00     0.015 A 
ENDBRANCH   7   8
ENDBRANCH   1   7
BRANCH   2  20
HETATM   20  C6  UNK     1      19.766  -7.980  37.590  1.00  0.00     0.375 C 
BRANCH  20  21
HETATM   21  C9  UNK     1      20.893  -8.982  37.775  1.00  0.00     0.250 C 
HETATM   22  O2  UNK     1      20.887  -9.827  38.663  1.00  0.00    -0.271 OA
HETATM   23  N3  UNK     1      21.875  -8.785  36.806  1.00  0.00    -0.324 N 
HETATM   24  H15 UNK     1      21.735  -8.041  36.125  1.00  0.00     0.169 HD
BRANCH  23  25
HETATM   25  C17 UNK     1      23.079  -9.509  36.637  1.00  0.00     0.056 A 
HETATM   26  C19 UNK     1      23.117 -10.698  35.910  1.00  0.00     0.060 A 
HETATM   27  C21 UNK     1      24.321 -11.388  35.764  1.00  0.00     0.026 A 
HETATM   28 Cl1  UNK     1      21.699 -11.352  35.172  1.00  0.00    -0.082 Cl
HETATM   29  C23 UNK     1      25.486 -10.890  36.347  1.00  0.00     0.002 A 
HETATM   30  C22 UNK     1      25.448  -9.701  37.075  1.00  0.00     0.002 A 
HETATM   31  C20 UNK     1      24.244  -9.011  37.220  1.00  0.00     0.031 A 
ENDBRANCH  23  25
ENDBRANCH  20  21
ENDBRANCH   2  20
TORSDOF 5
ENDMDL
