MODEL 1
REMARK VINA RESULT:      -9.6      0.000      0.000
REMARK  4 active torsions:
REMARK  status: ('A' for Active; 'I' for Inactive)
REMARK    1  A    between atoms: C7_16  and  N1_7 
REMARK    2  A    between atoms: C19_28  and  N2_8 
REMARK    3  A    between atoms: C1_10  and  C3_12 
REMARK    4  A    between atoms: C11_20  and  C14_23 
ROOT
HETATM    1  O1  UNK     1      30.496  -5.355  37.065  1.00  0.00    -0.291 OA
HETATM    2  O3  UNK     1      30.508  -9.537  37.189  1.00  0.00    -0.274 OA
HETATM    3  O4  UNK     1      32.274  -9.578  35.749  1.00  0.00    -0.259 OA
HETATM    4  N3  UNK     1      34.274  -3.820  34.503  1.00  0.00    -0.191 NA
HETATM    5  C1  UNK     1      32.387  -6.723  35.394  1.00  0.00     0.133 C 
HETATM    6  C2  UNK     1      31.407  -7.435  36.307  1.00  0.00     0.068 A 
HETATM    7  C4  UNK     1      30.539  -6.738  37.056  1.00  0.00     0.104 A 
HETATM    8  C5  UNK     1      32.405  -5.216  35.631  1.00  0.00     0.088 C 
HETATM    9  C6  UNK     1      29.571  -7.412  37.915  1.00  0.00     0.033 A 
HETATM   10  C7  UNK     1      31.485  -4.615  36.421  1.00  0.00     0.160 C 
HETATM   11  C8  UNK     1      31.451  -8.919  36.375  1.00  0.00     0.298 A 
HETATM   12  C10 UNK     1      29.580  -8.803  37.953  1.00  0.00     0.092 A 
HETATM   13  C13 UNK     1      28.629  -6.737  38.701  1.00  0.00     0.017 A 
HETATM   14  C15 UNK     1      28.688  -9.530  38.741  1.00  0.00     0.038 A 
HETATM   15  C16 UNK     1      33.437  -4.445  35.007  1.00  0.00     0.100 C 
HETATM   16  C17 UNK     1      27.728  -7.451  39.498  1.00  0.00     0.001 A 
HETATM   17  C18 UNK     1      27.758  -8.846  39.518  1.00  0.00     0.003 A 
ENDROOT
BRANCH   5  18
HETATM   18  C3  UNK     1      32.153  -7.049  33.955  1.00  0.00     0.068 A 
HETATM   19  O2  UNK     1      30.873  -6.959  33.543  1.00  0.00    -0.313 OA
HETATM   20  C11 UNK     1      30.887  -7.293  32.226  1.00  0.00     0.088 A 
HETATM   21  C12 UNK     1      32.165  -7.590  31.815  1.00  0.00     0.040 A 
HETATM   22  C9  UNK     1      32.991  -7.427  32.953  1.00  0.00     0.036 A 
BRANCH  20  23
HETATM   23  C14 UNK     1      29.609  -7.265  31.570  1.00  0.00     0.031 A 
HETATM   24  C19 UNK     1      29.140  -6.123  30.910  1.00  0.00     0.115 A 
HETATM   25  C21 UNK     1      27.894  -6.132  30.283  1.00  0.00     0.037 A 
HETATM   26  C23 UNK     1      27.108  -7.284  30.311  1.00  0.00     0.002 A 
HETATM   27  C22 UNK     1      27.567  -8.426  30.966  1.00  0.00     0.001 A 
HETATM   28  C20 UNK     1      28.813  -8.417  31.593  1.00  0.00     0.017 A 
BRANCH  24  29
HETATM   29  N2  UNK     1      29.918  -4.931  30.859  1.00  0.00    -0.115 N 
HETATM   30  O5  UNK     1      29.823  -4.108  31.799  1.00  0.00    -0.532 OA
HETATM   31  O6  UNK     1      30.673  -4.743  29.877  1.00  0.00    -0.532 OA
ENDBRANCH  24  29
ENDBRANCH  20  23
ENDBRANCH   5  18
BRANCH  10  32
HETATM   32  N1  UNK     1      31.420  -3.272  36.673  1.00  0.00    -0.379 N 
HETATM   33  H7  UNK     1      32.239  -2.804  37.040  1.00  0.00     0.158 HD
HETATM   34  H8  UNK     1      30.571  -2.750  36.500  1.00  0.00     0.158 HD
ENDBRANCH  10  32
TORSDOF 4
ENDMDL
MODEL 2
REMARK VINA RESULT:      -9.6      1.330      1.951
REMARK  4 active torsions:
REMARK  status: ('A' for Active; 'I' for Inactive)
REMARK    1  A    between atoms: C7_16  and  N1_7 
REMARK    2  A    between atoms: C19_28  and  N2_8 
REMARK    3  A    between atoms: C1_10  and  C3_12 
REMARK    4  A    between atoms: C11_20  and  C14_23 
ROOT
HETATM    1  O1  UNK     1      30.487  -5.369  37.077  1.00  0.00    -0.291 OA
HETATM    2  O3  UNK     1      30.523  -9.549  37.265  1.00  0.00    -0.274 OA
HETATM    3  O4  UNK     1      32.301  -9.601  35.840  1.00  0.00    -0.259 OA
HETATM    4  N3  UNK     1      34.276  -3.850  34.522  1.00  0.00    -0.191 NA
HETATM    5  C1  UNK     1      32.399  -6.750  35.442  1.00  0.00     0.133 C 
HETATM    6  C2  UNK     1      31.416  -7.455  36.357  1.00  0.00     0.068 A 
HETATM    7  C4  UNK     1      30.539  -6.752  37.088  1.00  0.00     0.104 A 
HETATM    8  C5  UNK     1      32.406  -5.240  35.656  1.00  0.00     0.088 C 
HETATM    9  C6  UNK     1      29.567  -7.419  37.951  1.00  0.00     0.033 A 
HETATM   10  C7  UNK     1      31.477  -4.633  36.429  1.00  0.00     0.160 C 
HETATM   11  C8  UNK     1      31.469  -8.938  36.449  1.00  0.00     0.298 A 
HETATM   12  C10 UNK     1      29.585  -8.809  38.010  1.00  0.00     0.092 A 
HETATM   13  C13 UNK     1      28.615  -6.737  38.718  1.00  0.00     0.017 A 
HETATM   14  C15 UNK     1      28.691  -9.529  38.802  1.00  0.00     0.038 A 
HETATM   15  C16 UNK     1      33.439  -4.473  35.029  1.00  0.00     0.100 C 
HETATM   16  C17 UNK     1      27.712  -7.445  39.518  1.00  0.00     0.001 A 
HETATM   17  C18 UNK     1      27.750  -8.839  39.560  1.00  0.00     0.003 A 
ENDROOT
BRANCH   5  18
HETATM   18  C3  UNK     1      32.179  -7.101  34.006  1.00  0.00     0.068 A 
HETATM   19  O2  UNK     1      30.905  -7.008  33.578  1.00  0.00    -0.313 OA
HETATM   20  C11 UNK     1      30.931  -7.365  32.267  1.00  0.00     0.088 A 
HETATM   21  C12 UNK     1      32.212  -7.678  31.876  1.00  0.00     0.040 A 
HETATM   22  C9  UNK     1      33.025  -7.502  33.020  1.00  0.00     0.036 A 
BRANCH  20  23
HETATM   23  C14 UNK     1      29.661  -7.339  31.596  1.00  0.00     0.031 A 
HETATM   24  C19 UNK     1      28.844  -8.473  31.514  1.00  0.00     0.115 A 
HETATM   25  C21 UNK     1      27.616  -8.412  30.855  1.00  0.00     0.037 A 
HETATM   26  C23 UNK     1      27.196  -7.216  30.274  1.00  0.00     0.002 A 
HETATM   27  C22 UNK     1      28.003  -6.081  30.352  1.00  0.00     0.001 A 
HETATM   28  C20 UNK     1      29.231  -6.142  31.010  1.00  0.00     0.017 A 
BRANCH  24  29
HETATM   29  N2  UNK     1      29.241  -9.710  32.098  1.00  0.00    -0.115 N 
HETATM   30  O5  UNK     1      28.901  -9.958  33.277  1.00  0.00    -0.532 OA
HETATM   31  O6  UNK     1      29.917 -10.512  31.411  1.00  0.00    -0.532 OA
ENDBRANCH  24  29
ENDBRANCH  20  23
ENDBRANCH   5  18
BRANCH  10  32
HETATM   32  N1  UNK     1      31.401  -3.286  36.660  1.00  0.00    -0.379 N 
HETATM   33  H7  UNK     1      31.977  -2.884  37.389  1.00  0.00     0.158 HD
HETATM   34  H8  UNK     1      30.782  -2.699  36.118  1.00  0.00     0.158 HD
ENDBRANCH  10  32
TORSDOF 4
ENDMDL
MODEL 3
REMARK VINA RESULT:      -9.2     20.376     23.652
REMARK  4 active torsions:
REMARK  status: ('A' for Active; 'I' for Inactive)
REMARK    1  A    between atoms: C7_16  and  N1_7 
REMARK    2  A    between atoms: C19_28  and  N2_8 
REMARK    3  A    between atoms: C1_10  and  C3_12 
REMARK    4  A    between atoms: C11_20  and  C14_23 
ROOT
HETATM    1  O1  UNK     1      20.633  -5.991  14.398  1.00  0.00    -0.291 OA
HETATM    2  O3  UNK     1      18.765  -3.661  11.468  1.00  0.00    -0.274 OA
HETATM    3  O4  UNK     1      19.254  -1.775  12.650  1.00  0.00    -0.259 OA
HETATM    4  N3  UNK     1      22.705  -3.109  17.652  1.00  0.00    -0.191 NA
HETATM    5  C1  UNK     1      20.475  -3.163  14.859  1.00  0.00     0.133 C 
HETATM    6  C2  UNK     1      19.921  -3.842  13.621  1.00  0.00     0.068 A 
HETATM    7  C4  UNK     1      20.016  -5.171  13.470  1.00  0.00     0.104 A 
HETATM    8  C5  UNK     1      21.312  -4.112  15.712  1.00  0.00     0.088 C 
HETATM    9  C6  UNK     1      19.461  -5.840  12.297  1.00  0.00     0.033 A 
HETATM   10  C7  UNK     1      21.346  -5.440  15.461  1.00  0.00     0.160 C 
HETATM   11  C8  UNK     1      19.299  -2.998  12.567  1.00  0.00     0.298 A 
HETATM   12  C10 UNK     1      18.841  -5.060  11.325  1.00  0.00     0.092 A 
HETATM   13  C13 UNK     1      19.513  -7.225  12.098  1.00  0.00     0.017 A 
HETATM   14  C15 UNK     1      18.278  -5.615  10.176  1.00  0.00     0.038 A 
HETATM   15  C16 UNK     1      22.081  -3.557  16.784  1.00  0.00     0.100 C 
HETATM   16  C17 UNK     1      18.953  -7.797  10.950  1.00  0.00     0.001 A 
HETATM   17  C18 UNK     1      18.337  -6.993   9.991  1.00  0.00     0.003 A 
ENDROOT
BRANCH   5  18
HETATM   18  C3  UNK     1      19.403  -2.501  15.664  1.00  0.00     0.068 A 
HETATM   19  O2  UNK     1      19.815  -1.488  16.452  1.00  0.00    -0.313 OA
HETATM   20  C11 UNK     1      18.700  -1.037  17.083  1.00  0.00     0.088 A 
HETATM   21  C12 UNK     1      17.597  -1.762  16.695  1.00  0.00     0.040 A 
HETATM   22  C9  UNK     1      18.065  -2.719  15.764  1.00  0.00     0.036 A 
BRANCH  20  23
HETATM   23  C14 UNK     1      18.906   0.059  17.989  1.00  0.00     0.031 A 
HETATM   24  C19 UNK     1      19.100   1.368  17.534  1.00  0.00     0.115 A 
HETATM   25  C21 UNK     1      19.296   2.409  18.441  1.00  0.00     0.037 A 
HETATM   26  C23 UNK     1      19.299   2.147  19.812  1.00  0.00     0.002 A 
HETATM   27  C22 UNK     1      19.106   0.846  20.274  1.00  0.00     0.001 A 
HETATM   28  C20 UNK     1      18.910  -0.195  19.366  1.00  0.00     0.017 A 
BRANCH  24  29
HETATM   29  N2  UNK     1      19.101   1.672  16.142  1.00  0.00    -0.115 N 
HETATM   30  O5  UNK     1      18.740   2.813  15.772  1.00  0.00    -0.532 OA
HETATM   31  O6  UNK     1      19.464   0.787  15.332  1.00  0.00    -0.532 OA
ENDBRANCH  24  29
ENDBRANCH  20  23
ENDBRANCH   5  18
BRANCH  10  32
HETATM   32  N1  UNK     1      22.055  -6.361  16.183  1.00  0.00    -0.379 N 
HETATM   33  H7  UNK     1      22.907  -6.739  15.789  1.00  0.00     0.158 HD
HETATM   34  H8  UNK     1      21.738  -6.664  17.095  1.00  0.00     0.158 HD
ENDBRANCH  10  32
TORSDOF 4
ENDMDL
MODEL 4
REMARK VINA RESULT:      -9.0      2.487      3.323
REMARK  4 active torsions:
REMARK  status: ('A' for Active; 'I' for Inactive)
REMARK    1  A    between atoms: C7_16  and  N1_7 
REMARK    2  A    between atoms: C19_28  and  N2_8 
REMARK    3  A    between atoms: C1_10  and  C3_12 
REMARK    4  A    between atoms: C11_20  and  C14_23 
ROOT
HETATM    1  O1  UNK     1      32.321  -5.102  35.677  1.00  0.00    -0.291 OA
HETATM    2  O3  UNK     1      28.709  -7.107  36.338  1.00  0.00    -0.274 OA
HETATM    3  O4  UNK     1      29.102  -8.423  34.520  1.00  0.00    -0.259 OA
HETATM    4  N3  UNK     1      34.698  -7.237  32.073  1.00  0.00    -0.191 NA
HETATM    5  C1  UNK     1      31.559  -7.115  33.779  1.00  0.00     0.133 C 
HETATM    6  C2  UNK     1      30.726  -6.750  34.992  1.00  0.00     0.068 A 
HETATM    7  C4  UNK     1      31.132  -5.791  35.837  1.00  0.00     0.104 A 
HETATM    8  C5  UNK     1      32.935  -6.458  33.805  1.00  0.00     0.088 C 
HETATM    9  C6  UNK     1      30.325  -5.409  36.992  1.00  0.00     0.033 A 
HETATM   10  C7  UNK     1      33.245  -5.506  34.715  1.00  0.00     0.160 C 
HETATM   11  C8  UNK     1      29.466  -7.500  35.240  1.00  0.00     0.298 A 
HETATM   12  C10 UNK     1      29.125  -6.080  37.208  1.00  0.00     0.092 A 
HETATM   13  C13 UNK     1      30.689  -4.402  37.894  1.00  0.00     0.017 A 
HETATM   14  C15 UNK     1      28.288  -5.777  38.282  1.00  0.00     0.038 A 
HETATM   15  C16 UNK     1      33.908  -6.888  32.848  1.00  0.00     0.100 C 
HETATM   16  C17 UNK     1      29.862  -4.087  38.977  1.00  0.00     0.001 A 
HETATM   17  C18 UNK     1      28.663  -4.774  39.170  1.00  0.00     0.003 A 
ENDROOT
BRANCH   5  18
HETATM   18  C3  UNK     1      30.840  -6.834  32.499  1.00  0.00     0.068 A 
HETATM   19  O2  UNK     1      30.597  -7.910  31.725  1.00  0.00    -0.313 OA
HETATM   20  C11 UNK     1      29.946  -7.435  30.631  1.00  0.00     0.088 A 
HETATM   21  C12 UNK     1      29.783  -6.072  30.717  1.00  0.00     0.040 A 
HETATM   22  C9  UNK     1      30.371  -5.684  31.945  1.00  0.00     0.036 A 
BRANCH  20  23
HETATM   23  C14 UNK     1      29.583  -8.423  29.653  1.00  0.00     0.031 A 
HETATM   24  C19 UNK     1      30.517  -8.957  28.757  1.00  0.00     0.115 A 
HETATM   25  C21 UNK     1      30.129  -9.915  27.821  1.00  0.00     0.037 A 
HETATM   26  C23 UNK     1      28.804 -10.349  27.775  1.00  0.00     0.002 A 
HETATM   27  C22 UNK     1      27.867  -9.824  28.665  1.00  0.00     0.001 A 
HETATM   28  C20 UNK     1      28.255  -8.865  29.600  1.00  0.00     0.017 A 
BRANCH  24  29
HETATM   29  N2  UNK     1      31.878  -8.538  28.777  1.00  0.00    -0.115 N 
HETATM   30  O5  UNK     1      32.141  -7.328  28.592  1.00  0.00    -0.532 OA
HETATM   31  O6  UNK     1      32.770  -9.395  28.981  1.00  0.00    -0.532 OA
ENDBRANCH  24  29
ENDBRANCH  20  23
ENDBRANCH   5  18
BRANCH  10  32
HETATM   32  N1  UNK     1      34.446  -4.856  34.798  1.00  0.00    -0.379 N 
HETATM   33  H7  UNK     1      35.272  -5.388  35.042  1.00  0.00     0.158 HD
HETATM   34  H8  UNK     1      34.515  -3.862  34.622  1.00  0.00     0.158 HD
ENDBRANCH  10  32
TORSDOF 4
ENDMDL
MODEL 5
REMARK VINA RESULT:      -8.8      1.397      2.120
REMARK  4 active torsions:
REMARK  status: ('A' for Active; 'I' for Inactive)
REMARK    1  A    between atoms: C7_16  and  N1_7 
REMARK    2  A    between atoms: C19_28  and  N2_8 
REMARK    3  A    between atoms: C1_10  and  C3_12 
REMARK    4  A    between atoms: C11_20  and  C14_23 
ROOT
HETATM    1  O1  UNK     1      32.553  -4.845  35.506  1.00  0.00    -0.291 OA
HETATM    2  O3  UNK     1      30.269  -8.085  36.843  1.00  0.00    -0.274 OA
HETATM    3  O4  UNK     1      31.460  -9.486  35.496  1.00  0.00    -0.259 OA
HETATM    4  N3  UNK     1      36.083  -6.448  32.647  1.00  0.00    -0.191 NA
HETATM    5  C1  UNK     1      33.076  -7.409  34.325  1.00  0.00     0.133 C 
HETATM    6  C2  UNK     1      32.026  -7.178  35.396  1.00  0.00     0.068 A 
HETATM    7  C4  UNK     1      31.822  -5.952  35.900  1.00  0.00     0.104 A 
HETATM    8  C5  UNK     1      33.962  -6.186  34.113  1.00  0.00     0.088 C 
HETATM    9  C6  UNK     1      30.794  -5.711  36.909  1.00  0.00     0.033 A 
HETATM   10  C7  UNK     1      33.669  -4.995  34.684  1.00  0.00     0.160 C 
HETATM   11  C8  UNK     1      31.252  -8.345  35.894  1.00  0.00     0.298 A 
HETATM   12  C10 UNK     1      30.038  -6.792  37.350  1.00  0.00     0.092 A 
HETATM   13  C13 UNK     1      30.524  -4.449  37.453  1.00  0.00     0.017 A 
HETATM   14  C15 UNK     1      29.033  -6.653  38.306  1.00  0.00     0.038 A 
HETATM   15  C16 UNK     1      35.133  -6.331  33.303  1.00  0.00     0.100 C 
HETATM   16  C17 UNK     1      29.519  -4.293  38.414  1.00  0.00     0.001 A 
HETATM   17  C18 UNK     1      28.775  -5.394  38.840  1.00  0.00     0.003 A 
ENDROOT
BRANCH   5  18
HETATM   18  C3  UNK     1      32.474  -7.881  33.041  1.00  0.00     0.068 A 
HETATM   19  O2  UNK     1      31.214  -7.466  32.808  1.00  0.00    -0.313 OA
HETATM   20  C11 UNK     1      30.867  -8.001  31.608  1.00  0.00     0.088 A 
HETATM   21  C12 UNK     1      31.903  -8.745  31.093  1.00  0.00     0.040 A 
HETATM   22  C9  UNK     1      32.954  -8.661  32.037  1.00  0.00     0.036 A 
BRANCH  20  23
HETATM   23  C14 UNK     1      29.542  -7.686  31.152  1.00  0.00     0.031 A 
HETATM   24  C19 UNK     1      29.188  -6.396  30.740  1.00  0.00     0.115 A 
HETATM   25  C21 UNK     1      27.891  -6.125  30.303  1.00  0.00     0.037 A 
HETATM   26  C23 UNK     1      26.939  -7.144  30.275  1.00  0.00     0.002 A 
HETATM   27  C22 UNK     1      27.283  -8.432  30.684  1.00  0.00     0.001 A 
HETATM   28  C20 UNK     1      28.579  -8.702  31.121  1.00  0.00     0.017 A 
BRANCH  24  29
HETATM   29  N2  UNK     1      30.136  -5.332  30.753  1.00  0.00    -0.115 N 
HETATM   30  O5  UNK     1      30.952  -5.239  29.808  1.00  0.00    -0.532 OA
HETATM   31  O6  UNK     1      30.121  -4.523  31.710  1.00  0.00    -0.532 OA
ENDBRANCH  24  29
ENDBRANCH  20  23
ENDBRANCH   5  18
BRANCH  10  32
HETATM   32  N1  UNK     1      34.399  -3.847  34.533  1.00  0.00    -0.379 N 
HETATM   33  H7  UNK     1      34.667  -3.328  35.360  1.00  0.00     0.158 HD
HETATM   34  H8  UNK     1      34.667  -3.517  33.616  1.00  0.00     0.158 HD
ENDBRANCH  10  32
TORSDOF 4
ENDMDL
MODEL 6
REMARK VINA RESULT:      -8.8     31.647     34.065
REMARK  4 active torsions:
REMARK  status: ('A' for Active; 'I' for Inactive)
REMARK    1  A    between atoms: C7_16  and  N1_7 
REMARK    2  A    between atoms: C19_28  and  N2_8 
REMARK    3  A    between atoms: C1_10  and  C3_12 
REMARK    4  A    between atoms: C11_20  and  C14_23 
ROOT
HETATM    1  O1  UNK     1      17.527   8.735   9.843  1.00  0.00    -0.291 OA
HETATM    2  O3  UNK     1      15.142  11.786  11.426  1.00  0.00    -0.274 OA
HETATM    3  O4  UNK     1      13.411  10.321  11.652  1.00  0.00    -0.259 OA
HETATM    4  N3  UNK     1      15.148   4.555  10.089  1.00  0.00    -0.191 NA
HETATM    5  C1  UNK     1      14.801   8.093  10.471  1.00  0.00     0.133 C 
HETATM    6  C2  UNK     1      15.408   9.466  10.684  1.00  0.00     0.068 A 
HETATM    7  C4  UNK     1      16.687   9.706  10.359  1.00  0.00     0.104 A 
HETATM    8  C5  UNK     1      15.851   7.049  10.102  1.00  0.00     0.088 C 
HETATM    9  C6  UNK     1      17.275  11.032  10.530  1.00  0.00     0.033 A 
HETATM   10  C7  UNK     1      17.122   7.403   9.804  1.00  0.00     0.160 C 
HETATM   11  C8  UNK     1      14.563  10.530  11.288  1.00  0.00     0.298 A 
HETATM   12  C10 UNK     1      16.477  12.043  11.058  1.00  0.00     0.092 A 
HETATM   13  C13 UNK     1      18.596  11.344  10.188  1.00  0.00     0.017 A 
HETATM   14  C15 UNK     1      16.953  13.339  11.251  1.00  0.00     0.038 A 
HETATM   15  C16 UNK     1      15.462   5.672  10.095  1.00  0.00     0.100 C 
HETATM   16  C17 UNK     1      19.089  12.640  10.376  1.00  0.00     0.001 A 
HETATM   17  C18 UNK     1      18.269  13.635  10.907  1.00  0.00     0.003 A 
ENDROOT
BRANCH   5  18
HETATM   18  C3  UNK     1      13.682   8.120   9.481  1.00  0.00     0.068 A 
HETATM   19  O2  UNK     1      12.446   8.000  10.004  1.00  0.00    -0.313 OA
HETATM   20  C11 UNK     1      11.593   8.049   8.947  1.00  0.00     0.088 A 
HETATM   21  C12 UNK     1      12.290   8.199   7.771  1.00  0.00     0.040 A 
HETATM   22  C9  UNK     1      13.658   8.245   8.128  1.00  0.00     0.036 A 
BRANCH  20  23
HETATM   23  C14 UNK     1      10.199   7.938   9.275  1.00  0.00     0.031 A 
HETATM   24  C19 UNK     1       9.468   6.774   9.011  1.00  0.00     0.115 A 
HETATM   25  C21 UNK     1       8.115   6.700   9.342  1.00  0.00     0.037 A 
HETATM   26  C23 UNK     1       7.484   7.790   9.941  1.00  0.00     0.002 A 
HETATM   27  C22 UNK     1       8.205   8.953  10.209  1.00  0.00     0.001 A 
HETATM   28  C20 UNK     1       9.557   9.027   9.877  1.00  0.00     0.017 A 
BRANCH  24  29
HETATM   29  N2  UNK     1      10.081   5.641   8.402  1.00  0.00    -0.115 N 
HETATM   30  O5  UNK     1      10.604   4.771   9.135  1.00  0.00    -0.532 OA
HETATM   31  O6  UNK     1      10.075   5.551   7.152  1.00  0.00    -0.532 OA
ENDBRANCH  24  29
ENDBRANCH  20  23
ENDBRANCH   5  18
BRANCH  10  32
HETATM   32  N1  UNK     1      18.119   6.535   9.448  1.00  0.00    -0.379 N 
HETATM   33  H7  UNK     1      18.030   5.559   9.705  1.00  0.00     0.158 HD
HETATM   34  H8  UNK     1      18.933   6.856   8.941  1.00  0.00     0.158 HD
ENDBRANCH  10  32
TORSDOF 4
ENDMDL
MODEL 7
REMARK VINA RESULT:      -8.6      2.312      3.124
REMARK  4 active torsions:
REMARK  status: ('A' for Active; 'I' for Inactive)
REMARK    1  A    between atoms: C7_16  and  N1_7 
REMARK    2  A    between atoms: C19_28  and  N2_8 
REMARK    3  A    between atoms: C1_10  and  C3_12 
REMARK    4  A    between atoms: C11_20  and  C14_23 
ROOT
HETATM    1  O1  UNK     1      32.771  -5.287  36.345  1.00  0.00    -0.291 OA
HETATM    2  O3  UNK     1      30.337  -8.324  37.880  1.00  0.00    -0.274 OA
HETATM    3  O4  UNK     1      31.721  -9.894  36.978  1.00  0.00    -0.259 OA
HETATM    4  N3  UNK     1      36.690  -7.239  34.339  1.00  0.00    -0.191 NA
HETATM    5  C1  UNK     1      33.477  -7.996  35.711  1.00  0.00     0.133 C 
HETATM    6  C2  UNK     1      32.281  -7.620  36.564  1.00  0.00     0.068 A 
HETATM    7  C4  UNK     1      31.997  -6.333  36.815  1.00  0.00     0.104 A 
HETATM    8  C5  UNK     1      34.377  -6.799  35.420  1.00  0.00     0.088 C 
HETATM    9  C6  UNK     1      30.832  -5.957  37.610  1.00  0.00     0.033 A 
HETATM   10  C7  UNK     1      33.996  -5.538  35.730  1.00  0.00     0.160 C 
HETATM   11  C8  UNK     1      31.449  -8.709  37.140  1.00  0.00     0.298 A 
HETATM   12  C10 UNK     1      30.026  -6.971  38.119  1.00  0.00     0.092 A 
HETATM   13  C13 UNK     1      30.477  -4.631  37.886  1.00  0.00     0.017 A 
HETATM   14  C15 UNK     1      28.891  -6.704  38.883  1.00  0.00     0.038 A 
HETATM   15  C16 UNK     1      35.654  -7.043  34.823  1.00  0.00     0.100 C 
HETATM   16  C17 UNK     1      29.341  -4.346  38.651  1.00  0.00     0.001 A 
HETATM   17  C18 UNK     1      28.550  -5.382  39.149  1.00  0.00     0.003 A 
ENDROOT
BRANCH   5  18
HETATM   18  C3  UNK     1      33.072  -8.697  34.454  1.00  0.00     0.068 A 
HETATM   19  O2  UNK     1      32.007  -8.172  33.818  1.00  0.00    -0.313 OA
HETATM   20  C11 UNK     1      31.815  -8.949  32.720  1.00  0.00     0.088 A 
HETATM   21  C12 UNK     1      32.753  -9.954  32.669  1.00  0.00     0.040 A 
HETATM   22  C9  UNK     1      33.574  -9.783  33.808  1.00  0.00     0.036 A 
BRANCH  20  23
HETATM   23  C14 UNK     1      30.714  -8.568  31.880  1.00  0.00     0.031 A 
HETATM   24  C19 UNK     1      29.481  -9.230  31.931  1.00  0.00     0.115 A 
HETATM   25  C21 UNK     1      28.433  -8.833  31.101  1.00  0.00     0.037 A 
HETATM   26  C23 UNK     1      28.609  -7.771  30.215  1.00  0.00     0.002 A 
HETATM   27  C22 UNK     1      29.833  -7.105  30.158  1.00  0.00     0.001 A 
HETATM   28  C20 UNK     1      30.882  -7.502  30.988  1.00  0.00     0.017 A 
BRANCH  24  29
HETATM   29  N2  UNK     1      29.265 -10.317  32.825  1.00  0.00    -0.115 N 
HETATM   30  O5  UNK     1      28.746 -10.087  33.941  1.00  0.00    -0.532 OA
HETATM   31  O6  UNK     1      29.601 -11.470  32.466  1.00  0.00    -0.532 OA
ENDBRANCH  24  29
ENDBRANCH  20  23
ENDBRANCH   5  18
BRANCH  10  32
HETATM   32  N1  UNK     1      34.733  -4.411  35.489  1.00  0.00    -0.379 N 
HETATM   33  H7  UNK     1      35.390  -4.413  34.719  1.00  0.00     0.158 HD
HETATM   34  H8  UNK     1      34.630  -3.588  36.069  1.00  0.00     0.158 HD
ENDBRANCH  10  32
TORSDOF 4
ENDMDL
MODEL 8
REMARK VINA RESULT:      -8.6      2.380      3.068
REMARK  4 active torsions:
REMARK  status: ('A' for Active; 'I' for Inactive)
REMARK    1  A    between atoms: C7_16  and  N1_7 
REMARK    2  A    between atoms: C19_28  and  N2_8 
REMARK    3  A    between atoms: C1_10  and  C3_12 
REMARK    4  A    between atoms: C11_20  and  C14_23 
ROOT
HETATM    1  O1  UNK     1      32.955  -5.499  35.524  1.00  0.00    -0.291 OA
HETATM    2  O3  UNK     1      30.625  -8.167  37.751  1.00  0.00    -0.274 OA
HETATM    3  O4  UNK     1      31.825  -9.916  36.917  1.00  0.00    -0.259 OA
HETATM    4  N3  UNK     1      36.513  -7.911  33.352  1.00  0.00    -0.191 NA
HETATM    5  C1  UNK     1      33.474  -8.302  35.194  1.00  0.00     0.133 C 
HETATM    6  C2  UNK     1      32.410  -7.751  36.125  1.00  0.00     0.068 A 
HETATM    7  C4  UNK     1      32.209  -6.429  36.226  1.00  0.00     0.104 A 
HETATM    8  C5  UNK     1      34.373  -7.205  34.632  1.00  0.00     0.088 C 
HETATM    9  C6  UNK     1      31.168  -5.888  37.095  1.00  0.00     0.033 A 
HETATM   10  C7  UNK     1      34.081  -5.896  34.806  1.00  0.00     0.160 C 
HETATM   11  C8  UNK     1      31.619  -8.707  36.943  1.00  0.00     0.298 A 
HETATM   12  C10 UNK     1      30.397  -6.780  37.834  1.00  0.00     0.092 A 
HETATM   13  C13 UNK     1      30.900  -4.519  37.223  1.00  0.00     0.017 A 
HETATM   14  C15 UNK     1      29.378  -6.352  38.685  1.00  0.00     0.038 A 
HETATM   15  C16 UNK     1      35.555  -7.595  33.925  1.00  0.00     0.100 C 
HETATM   16  C17 UNK     1      29.882  -4.074  38.073  1.00  0.00     0.001 A 
HETATM   17  C18 UNK     1      29.123  -4.989  38.803  1.00  0.00     0.003 A 
ENDROOT
BRANCH   5  18
HETATM   18  C3  UNK     1      32.888  -9.143  34.106  1.00  0.00     0.068 A 
HETATM   19  O2  UNK     1      31.967  -8.530  33.337  1.00  0.00    -0.313 OA
HETATM   20  C11 UNK     1      31.572  -9.459  32.427  1.00  0.00     0.088 A 
HETATM   21  C12 UNK     1      32.240 -10.645  32.625  1.00  0.00     0.040 A 
HETATM   22  C9  UNK     1      33.102 -10.431  33.726  1.00  0.00     0.036 A 
BRANCH  20  23
HETATM   23  C14 UNK     1      30.577  -9.019  31.490  1.00  0.00     0.031 A 
HETATM   24  C19 UNK     1      30.913  -8.584  30.202  1.00  0.00     0.115 A 
HETATM   25  C21 UNK     1      29.921  -8.164  29.317  1.00  0.00     0.037 A 
HETATM   26  C23 UNK     1      28.583  -8.176  29.713  1.00  0.00     0.002 A 
HETATM   27  C22 UNK     1      28.239  -8.609  30.993  1.00  0.00     0.001 A 
HETATM   28  C20 UNK     1      29.231  -9.029  31.878  1.00  0.00     0.017 A 
BRANCH  24  29
HETATM   29  N2  UNK     1      32.268  -8.560  29.764  1.00  0.00    -0.115 N 
HETATM   30  O5  UNK     1      32.974  -7.562  30.037  1.00  0.00    -0.532 OA
HETATM   31  O6  UNK     1      32.712  -9.540  29.120  1.00  0.00    -0.532 OA
ENDBRANCH  24  29
ENDBRANCH  20  23
ENDBRANCH   5  18
BRANCH  10  32
HETATM   32  N1  UNK     1      34.823  -4.852  34.324  1.00  0.00    -0.379 N 
HETATM   33  H7  UNK     1      35.194  -4.175  34.978  1.00  0.00     0.158 HD
HETATM   34  H8  UNK     1      34.998  -4.752  33.332  1.00  0.00     0.158 HD
ENDBRANCH  10  32
TORSDOF 4
ENDMDL
MODEL 9
REMARK VINA RESULT:      -8.6      3.691      6.630
REMARK  4 active torsions:
REMARK  status: ('A' for Active; 'I' for Inactive)
REMARK    1  A    between atoms: C7_16  and  N1_7 
REMARK    2  A    between atoms: C19_28  and  N2_8 
REMARK    3  A    between atoms: C1_10  and  C3_12 
REMARK    4  A    between atoms: C11_20  and  C14_23 
ROOT
HETATM    1  O1  UNK     1      29.573 -10.106  32.048  1.00  0.00    -0.291 OA
HETATM    2  O3  UNK     1      29.306  -6.168  33.434  1.00  0.00    -0.274 OA
HETATM    3  O4  UNK     1      30.117  -5.409  31.445  1.00  0.00    -0.259 OA
HETATM    4  N3  UNK     1      30.873 -10.085  27.411  1.00  0.00    -0.191 NA
HETATM    5  C1  UNK     1      30.518  -8.026  30.312  1.00  0.00     0.133 C 
HETATM    6  C2  UNK     1      29.935  -7.768  31.688  1.00  0.00     0.068 A 
HETATM    7  C4  UNK     1      29.521  -8.785  32.457  1.00  0.00     0.104 A 
HETATM    8  C5  UNK     1      30.340  -9.476  29.873  1.00  0.00     0.088 C 
HETATM    9  C6  UNK     1      28.985  -8.553  33.795  1.00  0.00     0.033 A 
HETATM   10  C7  UNK     1      29.900 -10.424  30.732  1.00  0.00     0.160 C 
HETATM   11  C8  UNK     1      29.804  -6.361  32.151  1.00  0.00     0.298 A 
HETATM   12  C10 UNK     1      28.897  -7.241  34.251  1.00  0.00     0.092 A 
HETATM   13  C13 UNK     1      28.558  -9.578  34.648  1.00  0.00     0.017 A 
HETATM   14  C15 UNK     1      28.405  -6.926  35.516  1.00  0.00     0.038 A 
HETATM   15  C16 UNK     1      30.635  -9.812  28.513  1.00  0.00     0.100 C 
HETATM   16  C17 UNK     1      28.060  -9.279  35.921  1.00  0.00     0.001 A 
HETATM   17  C18 UNK     1      27.983  -7.955  36.354  1.00  0.00     0.003 A 
ENDROOT
BRANCH   5  18
HETATM   18  C3  UNK     1      31.946  -7.594  30.217  1.00  0.00     0.068 A 
HETATM   19  O2  UNK     1      32.728  -7.955  31.254  1.00  0.00    -0.313 OA
HETATM   20  C11 UNK     1      33.964  -7.470  30.968  1.00  0.00     0.088 A 
HETATM   21  C12 UNK     1      33.958  -6.810  29.761  1.00  0.00     0.040 A 
HETATM   22  C9  UNK     1      32.632  -6.896  29.274  1.00  0.00     0.036 A 
BRANCH  20  23
HETATM   23  C14 UNK     1      34.975  -7.740  31.952  1.00  0.00     0.031 A 
HETATM   24  C19 UNK     1      35.931  -8.747  31.774  1.00  0.00     0.115 A 
HETATM   25  C21 UNK     1      36.899  -8.981  32.751  1.00  0.00     0.037 A 
HETATM   26  C23 UNK     1      36.917  -8.210  33.913  1.00  0.00     0.002 A 
HETATM   27  C22 UNK     1      35.969  -7.204  34.098  1.00  0.00     0.001 A 
HETATM   28  C20 UNK     1      35.002  -6.970  33.121  1.00  0.00     0.017 A 
BRANCH  24  29
HETATM   29  N2  UNK     1      35.942  -9.553  30.600  1.00  0.00    -0.115 N 
HETATM   30  O5  UNK     1      36.669  -9.210  29.639  1.00  0.00    -0.532 OA
HETATM   31  O6  UNK     1      35.225 -10.580  30.565  1.00  0.00    -0.532 OA
ENDBRANCH  24  29
ENDBRANCH  20  23
ENDBRANCH   5  18
BRANCH  10  32
HETATM   32  N1  UNK     1      29.728 -11.746  30.425  1.00  0.00    -0.379 N 
HETATM   33  H7  UNK     1      30.364 -12.181  29.769  1.00  0.00     0.158 HD
HETATM   34  H8  UNK     1      28.979 -12.284  30.841  1.00  0.00     0.158 HD
ENDBRANCH  10  32
TORSDOF 4
ENDMDL
MODEL 10
REMARK VINA RESULT:      -8.5      3.108      4.432
REMARK  4 active torsions:
REMARK  status: ('A' for Active; 'I' for Inactive)
REMARK    1  A    between atoms: C7_16  and  N1_7 
REMARK    2  A    between atoms: C19_28  and  N2_8 
REMARK    3  A    between atoms: C1_10  and  C3_12 
REMARK    4  A    between atoms: C11_20  and  C14_23 
ROOT
HETATM    1  O1  UNK     1      34.631  -6.027  33.421  1.00  0.00    -0.291 OA
HETATM    2  O3  UNK     1      32.049  -7.689  36.263  1.00  0.00    -0.274 OA
HETATM    3  O4  UNK     1      32.564  -9.779  35.514  1.00  0.00    -0.259 OA
HETATM    4  N3  UNK     1      36.978  -9.556  31.134  1.00  0.00    -0.191 NA
HETATM    5  C1  UNK     1      34.292  -8.877  33.394  1.00  0.00     0.133 C 
HETATM    6  C2  UNK     1      33.590  -7.959  34.376  1.00  0.00     0.068 A 
HETATM    7  C4  UNK     1      33.781  -6.633  34.330  1.00  0.00     0.104 A 
HETATM    8  C5  UNK     1      35.356  -8.146  32.581  1.00  0.00     0.088 C 
HETATM    9  C6  UNK     1      33.088  -5.736  35.250  1.00  0.00     0.033 A 
HETATM   10  C7  UNK     1      35.470  -6.798  32.620  1.00  0.00     0.160 C 
HETATM   11  C8  UNK     1      32.709  -8.566  35.409  1.00  0.00     0.298 A 
HETATM   12  C10 UNK     1      32.231  -6.294  36.194  1.00  0.00     0.092 A 
HETATM   13  C13 UNK     1      33.234  -4.343  35.233  1.00  0.00     0.017 A 
HETATM   14  C15 UNK     1      31.524  -5.514  37.108  1.00  0.00     0.038 A 
HETATM   15  C16 UNK     1      36.251  -8.925  31.782  1.00  0.00     0.100 C 
HETATM   16  C17 UNK     1      32.532  -3.546  36.144  1.00  0.00     0.001 A 
HETATM   17  C18 UNK     1      31.679  -4.131  37.080  1.00  0.00     0.003 A 
ENDROOT
BRANCH   5  18
HETATM   18  C3  UNK     1      33.327  -9.600  32.511  1.00  0.00     0.068 A 
HETATM   19  O2  UNK     1      32.258  -8.881  32.115  1.00  0.00    -0.313 OA
HETATM   20  C11 UNK     1      31.523  -9.716  31.334  1.00  0.00     0.088 A 
HETATM   21  C12 UNK     1      32.127 -10.948  31.241  1.00  0.00     0.040 A 
HETATM   22  C9  UNK     1      33.309 -10.865  32.014  1.00  0.00     0.036 A 
BRANCH  20  23
HETATM   23  C14 UNK     1      30.317  -9.152  30.794  1.00  0.00     0.031 A 
HETATM   24  C19 UNK     1      30.297  -8.491  29.560  1.00  0.00     0.115 A 
HETATM   25  C21 UNK     1      29.107  -7.956  29.066  1.00  0.00     0.037 A 
HETATM   26  C23 UNK     1      27.929  -8.079  29.803  1.00  0.00     0.002 A 
HETATM   27  C22 UNK     1      27.940  -8.735  31.032  1.00  0.00     0.001 A 
HETATM   28  C20 UNK     1      29.129  -9.270  31.527  1.00  0.00     0.017 A 
BRANCH  24  29
HETATM   29  N2  UNK     1      31.481  -8.350  28.781  1.00  0.00    -0.115 N 
HETATM   30  O5  UNK     1      31.682  -9.149  27.839  1.00  0.00    -0.532 OA
HETATM   31  O6  UNK     1      32.282  -7.429  29.063  1.00  0.00    -0.532 OA
ENDBRANCH  24  29
ENDBRANCH  20  23
ENDBRANCH   5  18
BRANCH  10  32
HETATM   32  N1  UNK     1      36.383  -6.064  31.912  1.00  0.00    -0.379 N 
HETATM   33  H7  UNK     1      36.665  -5.160  32.271  1.00  0.00     0.158 HD
HETATM   34  H8  UNK     1      36.772  -6.412  31.046  1.00  0.00     0.158 HD
ENDBRANCH  10  32
TORSDOF 4
ENDMDL
