MODEL 1
REMARK VINA RESULT:      -7.7      0.000      0.000
REMARK  1 active torsions:
REMARK  status: ('A' for Active; 'I' for Inactive)
REMARK    1  A    between atoms: C3_7  and  C4_8 
ROOT
HETATM    1 Br1  UNK     1      20.347 -10.583  37.188  1.00  0.00    -0.051 Br
HETATM    2  O1  UNK     1      18.802  -4.762  36.603  1.00  0.00    -0.309 OA
HETATM    3  O2  UNK     1      22.466  -5.603  38.176  1.00  0.00    -0.287 OA
HETATM    4  C1  UNK     1      20.436  -6.425  37.287  1.00  0.00     0.049 A 
HETATM    5  C2  UNK     1      19.197  -6.067  36.756  1.00  0.00     0.090 A 
HETATM    6  C3  UNK     1      19.670  -3.758  37.004  1.00  0.00     0.090 A 
HETATM    7  C5  UNK     1      21.363  -5.362  37.704  1.00  0.00     0.187 A 
HETATM    8  C6  UNK     1      20.890  -3.975  37.522  1.00  0.00     0.093 A 
HETATM    9  C7  UNK     1      20.785  -7.771  37.419  1.00  0.00     0.037 A 
HETATM   10  C8  UNK     1      18.300  -7.055  36.352  1.00  0.00     0.039 A 
HETATM   11  C11 UNK     1      19.886  -8.758  37.015  1.00  0.00     0.012 A 
HETATM   12  C12 UNK     1      18.646  -8.401  36.482  1.00  0.00     0.022 A 
ENDROOT
BRANCH   6  13
HETATM   13  C4  UNK     1      19.148  -2.394  36.790  1.00  0.00    -0.002 A 
HETATM   14  C10 UNK     1      18.413  -1.758  37.794  1.00  0.00     0.016 A 
HETATM   15  C14 UNK     1      17.920  -0.469  37.593  1.00  0.00     0.024 A 
HETATM   16  C15 UNK     1      18.161   0.190  36.386  1.00  0.00     0.034 A 
HETATM   17  C13 UNK     1      18.895  -0.441  35.382  1.00  0.00     0.024 A 
HETATM   18 Cl1  UNK     1      17.553   1.780  36.139  1.00  0.00    -0.084 Cl
HETATM   19  C9  UNK     1      19.388  -1.730  35.583  1.00  0.00     0.016 A 
ENDBRANCH   6  13
TORSDOF 1
ENDMDL
MODEL 2
REMARK VINA RESULT:      -7.6     10.285     12.973
REMARK  1 active torsions:
REMARK  status: ('A' for Active; 'I' for Inactive)
REMARK    1  A    between atoms: C3_7  and  C4_8 
ROOT
HETATM    1 Br1  UNK     1      14.492  10.677  35.398  1.00  0.00    -0.051 Br
HETATM    2  O1  UNK     1      16.562   5.861  32.376  1.00  0.00    -0.309 OA
HETATM    3  O2  UNK     1      19.062   7.632  35.064  1.00  0.00    -0.287 OA
HETATM    4  C1  UNK     1      16.942   7.610  34.019  1.00  0.00     0.049 A 
HETATM    5  C2  UNK     1      16.138   6.956  33.085  1.00  0.00     0.090 A 
HETATM    6  C3  UNK     1      17.849   5.392  32.593  1.00  0.00     0.090 A 
HETATM    7  C5  UNK     1      18.304   7.109  34.258  1.00  0.00     0.187 A 
HETATM    8  C6  UNK     1      18.714   5.931  33.468  1.00  0.00     0.093 A 
HETATM    9  C7  UNK     1      16.457   8.722  34.713  1.00  0.00     0.037 A 
HETATM   10  C8  UNK     1      14.843   7.410  32.841  1.00  0.00     0.039 A 
HETATM   11  C11 UNK     1      15.160   9.174  34.466  1.00  0.00     0.012 A 
HETATM   12  C12 UNK     1      14.355   8.521  33.532  1.00  0.00     0.022 A 
ENDROOT
BRANCH   6  13
HETATM   13  C4  UNK     1      18.200   4.208  31.783  1.00  0.00    -0.002 A 
HETATM   14  C10 UNK     1      18.205   2.937  32.363  1.00  0.00     0.016 A 
HETATM   15  C14 UNK     1      18.536   1.819  31.598  1.00  0.00     0.024 A 
HETATM   16  C15 UNK     1      18.863   1.967  30.249  1.00  0.00     0.034 A 
HETATM   17  C13 UNK     1      18.859   3.235  29.667  1.00  0.00     0.024 A 
HETATM   18 Cl1  UNK     1      19.270   0.588  29.306  1.00  0.00    -0.084 Cl
HETATM   19  C9  UNK     1      18.528   4.353  30.432  1.00  0.00     0.016 A 
ENDBRANCH   6  13
TORSDOF 1
ENDMDL
MODEL 3
REMARK VINA RESULT:      -7.6     11.362     14.158
REMARK  1 active torsions:
REMARK  status: ('A' for Active; 'I' for Inactive)
REMARK    1  A    between atoms: C3_7  and  C4_8 
ROOT
HETATM    1 Br1  UNK     1      16.021  12.606  35.303  1.00  0.00    -0.051 Br
HETATM    2  O1  UNK     1      17.139   7.441  32.355  1.00  0.00    -0.309 OA
HETATM    3  O2  UNK     1      20.135   9.017  34.622  1.00  0.00    -0.287 OA
HETATM    4  C1  UNK     1      17.915   9.205  33.834  1.00  0.00     0.049 A 
HETATM    5  C2  UNK     1      16.933   8.611  33.042  1.00  0.00     0.090 A 
HETATM    6  C3  UNK     1      18.380   6.830  32.448  1.00  0.00     0.090 A 
HETATM    7  C5  UNK     1      19.229   8.554  33.943  1.00  0.00     0.187 A 
HETATM    8  C6  UNK     1      19.401   7.300  33.183  1.00  0.00     0.093 A 
HETATM    9  C7  UNK     1      17.649  10.397  34.512  1.00  0.00     0.037 A 
HETATM   10  C8  UNK     1      15.679   9.207  32.923  1.00  0.00     0.039 A 
HETATM   11  C11 UNK     1      16.393  10.992  34.391  1.00  0.00     0.012 A 
HETATM   12  C12 UNK     1      15.410  10.399  33.598  1.00  0.00     0.022 A 
ENDROOT
BRANCH   6  13
HETATM   13  C4  UNK     1      18.490   5.577  31.675  1.00  0.00    -0.002 A 
HETATM   14  C10 UNK     1      18.090   4.364  32.242  1.00  0.00     0.016 A 
HETATM   15  C14 UNK     1      18.194   3.181  31.512  1.00  0.00     0.024 A 
HETATM   16  C15 UNK     1      18.699   3.205  30.211  1.00  0.00     0.034 A 
HETATM   17  C13 UNK     1      19.100   4.414  29.642  1.00  0.00     0.024 A 
HETATM   18 Cl1  UNK     1      18.827   1.745  29.310  1.00  0.00    -0.084 Cl
HETATM   19  C9  UNK     1      18.996   5.598  30.372  1.00  0.00     0.016 A 
ENDBRANCH   6  13
TORSDOF 1
ENDMDL
MODEL 4
REMARK VINA RESULT:      -7.3      7.837      9.791
REMARK  1 active torsions:
REMARK  status: ('A' for Active; 'I' for Inactive)
REMARK    1  A    between atoms: C3_7  and  C4_8 
ROOT
HETATM    1 Br1  UNK     1      20.143  -1.706  29.720  1.00  0.00    -0.051 Br
HETATM    2  O1  UNK     1      18.262   3.835  31.259  1.00  0.00    -0.309 OA
HETATM    3  O2  UNK     1      18.705   1.087  34.235  1.00  0.00    -0.287 OA
HETATM    4  C1  UNK     1      18.858   1.577  31.928  1.00  0.00     0.049 A 
HETATM    5  C2  UNK     1      18.686   2.565  30.959  1.00  0.00     0.090 A 
HETATM    6  C3  UNK     1      17.985   4.143  32.582  1.00  0.00     0.090 A 
HETATM    7  C5  UNK     1      18.574   1.904  33.334  1.00  0.00     0.187 A 
HETATM    8  C6  UNK     1      18.117   3.282  33.604  1.00  0.00     0.093 A 
HETATM    9  C7  UNK     1      19.292   0.299  31.565  1.00  0.00     0.037 A 
HETATM   10  C8  UNK     1      18.949   2.281  29.620  1.00  0.00     0.039 A 
HETATM   11  C11 UNK     1      19.555   0.018  30.224  1.00  0.00     0.012 A 
HETATM   12  C12 UNK     1      19.383   1.006  29.253  1.00  0.00     0.022 A 
ENDROOT
BRANCH   6  13
HETATM   13  C4  UNK     1      17.542   5.536  32.792  1.00  0.00    -0.002 A 
HETATM   14  C10 UNK     1      17.143   6.318  31.705  1.00  0.00     0.016 A 
HETATM   15  C14 UNK     1      16.725   7.633  31.904  1.00  0.00     0.024 A 
HETATM   16  C15 UNK     1      16.702   8.172  33.191  1.00  0.00     0.034 A 
HETATM   17  C13 UNK     1      17.099   7.394  34.279  1.00  0.00     0.024 A 
HETATM   18 Cl1  UNK     1      16.185   9.794  33.436  1.00  0.00    -0.084 Cl
HETATM   19  C9  UNK     1      17.518   6.079  34.080  1.00  0.00     0.016 A 
ENDBRANCH   6  13
TORSDOF 1
ENDMDL
MODEL 5
REMARK VINA RESULT:      -7.3      6.514      8.809
REMARK  1 active torsions:
REMARK  status: ('A' for Active; 'I' for Inactive)
REMARK    1  A    between atoms: C3_7  and  C4_8 
ROOT
HETATM    1 Br1  UNK     1      31.647  -5.247  38.672  1.00  0.00    -0.051 Br
HETATM    2  O1  UNK     1      25.731  -6.513  38.600  1.00  0.00    -0.309 OA
HETATM    3  O2  UNK     1      28.339  -9.643  38.677  1.00  0.00    -0.287 OA
HETATM    4  C1  UNK     1      28.029  -7.300  38.642  1.00  0.00     0.049 A 
HETATM    5  C2  UNK     1      27.082  -6.277  38.617  1.00  0.00     0.090 A 
HETATM    6  C3  UNK     1      25.291  -7.828  38.600  1.00  0.00     0.090 A 
HETATM    7  C5  UNK     1      27.565  -8.696  38.652  1.00  0.00     0.187 A 
HETATM    8  C6  UNK     1      26.102  -8.898  38.630  1.00  0.00     0.093 A 
HETATM    9  C7  UNK     1      29.393  -7.000  38.659  1.00  0.00     0.037 A 
HETATM   10  C8  UNK     1      27.495  -4.945  38.608  1.00  0.00     0.039 A 
HETATM   11  C11 UNK     1      29.804  -5.667  38.650  1.00  0.00     0.012 A 
HETATM   12  C12 UNK     1      28.858  -4.641  38.624  1.00  0.00     0.022 A 
ENDROOT
BRANCH   6  13
HETATM   13  C4  UNK     1      23.821  -7.968  38.586  1.00  0.00    -0.002 A 
HETATM   14  C10 UNK     1      23.059  -7.477  39.649  1.00  0.00     0.016 A 
HETATM   15  C14 UNK     1      21.670  -7.609  39.636  1.00  0.00     0.024 A 
HETATM   16  C15 UNK     1      21.038  -8.233  38.559  1.00  0.00     0.034 A 
HETATM   17  C13 UNK     1      21.796  -8.724  37.497  1.00  0.00     0.024 A 
HETATM   18 Cl1  UNK     1      19.326  -8.395  38.543  1.00  0.00    -0.084 Cl
HETATM   19  C9  UNK     1      23.184  -8.592  37.509  1.00  0.00     0.016 A 
ENDBRANCH   6  13
TORSDOF 1
ENDMDL
MODEL 6
REMARK VINA RESULT:      -7.2      4.550      6.986
REMARK  1 active torsions:
REMARK  status: ('A' for Active; 'I' for Inactive)
REMARK    1  A    between atoms: C3_7  and  C4_8 
ROOT
HETATM    1 Br1  UNK     1      19.374   0.756  30.241  1.00  0.00    -0.051 Br
HETATM    2  O1  UNK     1      20.399  -3.404  34.513  1.00  0.00    -0.309 OA
HETATM    3  O2  UNK     1      17.883  -0.331  35.423  1.00  0.00    -0.287 OA
HETATM    4  C1  UNK     1      19.286  -1.358  33.823  1.00  0.00     0.049 A 
HETATM    5  C2  UNK     1      20.136  -2.436  33.577  1.00  0.00     0.090 A 
HETATM    6  C3  UNK     1      19.800  -3.298  35.759  1.00  0.00     0.090 A 
HETATM    7  C5  UNK     1      18.641  -1.248  35.140  1.00  0.00     0.187 A 
HETATM    8  C6  UNK     1      18.959  -2.313  36.113  1.00  0.00     0.093 A 
HETATM    9  C7  UNK     1      19.054  -0.401  32.831  1.00  0.00     0.037 A 
HETATM   10  C8  UNK     1      20.759  -2.564  32.336  1.00  0.00     0.039 A 
HETATM   11  C11 UNK     1      19.679  -0.532  31.591  1.00  0.00     0.012 A 
HETATM   12  C12 UNK     1      20.530  -1.610  31.344  1.00  0.00     0.022 A 
ENDROOT
BRANCH   6  13
HETATM   13  C4  UNK     1      20.147  -4.394  36.686  1.00  0.00    -0.002 A 
HETATM   14  C10 UNK     1      19.306  -5.503  36.809  1.00  0.00     0.016 A 
HETATM   15  C14 UNK     1      19.634  -6.538  37.684  1.00  0.00     0.024 A 
HETATM   16  C15 UNK     1      20.805  -6.468  38.441  1.00  0.00     0.034 A 
HETATM   17  C13 UNK     1      21.647  -5.362  38.320  1.00  0.00     0.024 A 
HETATM   18 Cl1  UNK     1      21.209  -7.745  39.520  1.00  0.00    -0.084 Cl
HETATM   19  C9  UNK     1      21.319  -4.327  37.445  1.00  0.00     0.016 A 
ENDBRANCH   6  13
TORSDOF 1
ENDMDL
MODEL 7
REMARK VINA RESULT:      -7.2      7.047      9.841
REMARK  1 active torsions:
REMARK  status: ('A' for Active; 'I' for Inactive)
REMARK    1  A    between atoms: C3_7  and  C4_8 
ROOT
HETATM    1 Br1  UNK     1      18.562  -1.586  34.723  1.00  0.00    -0.051 Br
HETATM    2  O1  UNK     1      18.563   4.464  34.599  1.00  0.00    -0.309 OA
HETATM    3  O2  UNK     1      17.721   2.496  31.132  1.00  0.00    -0.287 OA
HETATM    4  C1  UNK     1      18.272   2.357  33.426  1.00  0.00     0.049 A 
HETATM    5  C2  UNK     1      18.551   3.092  34.577  1.00  0.00     0.090 A 
HETATM    6  C3  UNK     1      18.294   5.145  33.422  1.00  0.00     0.090 A 
HETATM    7  C5  UNK     1      17.977   3.077  32.178  1.00  0.00     0.187 A 
HETATM    8  C6  UNK     1      18.005   4.551  32.253  1.00  0.00     0.093 A 
HETATM    9  C7  UNK     1      18.274   0.960  33.462  1.00  0.00     0.037 A 
HETATM   10  C8  UNK     1      18.833   2.434  35.774  1.00  0.00     0.039 A 
HETATM   11  C11 UNK     1      18.557   0.304  34.660  1.00  0.00     0.012 A 
HETATM   12  C12 UNK     1      18.836   1.038  35.814  1.00  0.00     0.022 A 
ENDROOT
BRANCH   6  13
HETATM   13  C4  UNK     1      18.328   6.615  33.560  1.00  0.00    -0.002 A 
HETATM   14  C10 UNK     1      19.418   7.238  34.173  1.00  0.00     0.016 A 
HETATM   15  C14 UNK     1      19.450   8.626  34.302  1.00  0.00     0.024 A 
HETATM   16  C15 UNK     1      18.392   9.398  33.818  1.00  0.00     0.034 A 
HETATM   17  C13 UNK     1      17.302   8.779  33.206  1.00  0.00     0.024 A 
HETATM   18 Cl1  UNK     1      18.432  11.110  33.978  1.00  0.00    -0.084 Cl
HETATM   19  C9  UNK     1      17.270   7.391  33.077  1.00  0.00     0.016 A 
ENDBRANCH   6  13
TORSDOF 1
ENDMDL
MODEL 8
REMARK VINA RESULT:      -7.1     30.189     32.023
REMARK  1 active torsions:
REMARK  status: ('A' for Active; 'I' for Inactive)
REMARK    1  A    between atoms: C3_7  and  C4_8 
ROOT
HETATM    1 Br1  UNK     1      19.346  11.928  10.004  1.00  0.00    -0.051 Br
HETATM    2  O1  UNK     1      14.235   9.236   8.203  1.00  0.00    -0.309 OA
HETATM    3  O2  UNK     1      16.611   7.228  10.835  1.00  0.00    -0.287 OA
HETATM    4  C1  UNK     1      16.263   9.173   9.539  1.00  0.00     0.049 A 
HETATM    5  C2  UNK     1      15.404   9.805   8.640  1.00  0.00     0.090 A 
HETATM    6  C3  UNK     1      13.900   7.974   8.670  1.00  0.00     0.090 A 
HETATM    7  C5  UNK     1      15.906   7.839  10.043  1.00  0.00     0.187 A 
HETATM    8  C6  UNK     1      14.640   7.268   9.540  1.00  0.00     0.093 A 
HETATM    9  C7  UNK     1      17.441   9.802   9.950  1.00  0.00     0.037 A 
HETATM   10  C8  UNK     1      15.719  11.071   8.148  1.00  0.00     0.039 A 
HETATM   11  C11 UNK     1      17.754  11.068   9.455  1.00  0.00     0.012 A 
HETATM   12  C12 UNK     1      16.895  11.702   8.556  1.00  0.00     0.022 A 
ENDROOT
BRANCH   6  13
HETATM   13  C4  UNK     1      12.621   7.459   8.141  1.00  0.00    -0.002 A 
HETATM   14  C10 UNK     1      12.610   6.630   7.016  1.00  0.00     0.016 A 
HETATM   15  C14 UNK     1      11.402   6.143   6.516  1.00  0.00     0.024 A 
HETATM   16  C15 UNK     1      10.201   6.483   7.140  1.00  0.00     0.034 A 
HETATM   17  C13 UNK     1      10.208   7.311   8.262  1.00  0.00     0.024 A 
HETATM   18 Cl1  UNK     1       8.711   5.882   6.523  1.00  0.00    -0.084 Cl
HETATM   19  C9  UNK     1      11.416   7.798   8.762  1.00  0.00     0.016 A 
ENDBRANCH   6  13
TORSDOF 1
ENDMDL
MODEL 9
REMARK VINA RESULT:      -7.1      4.329      7.002
REMARK  1 active torsions:
REMARK  status: ('A' for Active; 'I' for Inactive)
REMARK    1  A    between atoms: C3_7  and  C4_8 
ROOT
HETATM    1 Br1  UNK     1      18.269   2.282  35.218  1.00  0.00    -0.051 Br
HETATM    2  O1  UNK     1      18.913  -3.313  37.428  1.00  0.00    -0.309 OA
HETATM    3  O2  UNK     1      20.769  -2.439  33.907  1.00  0.00    -0.287 OA
HETATM    4  C1  UNK     1      19.404  -1.693  35.686  1.00  0.00     0.049 A 
HETATM    5  C2  UNK     1      18.796  -2.058  36.887  1.00  0.00     0.090 A 
HETATM    6  C3  UNK     1      19.661  -4.260  36.745  1.00  0.00     0.090 A 
HETATM    7  C5  UNK     1      20.207  -2.692  34.964  1.00  0.00     0.187 A 
HETATM    8  C6  UNK     1      20.298  -4.028  35.585  1.00  0.00     0.093 A 
HETATM    9  C7  UNK     1      19.251  -0.399  35.182  1.00  0.00     0.037 A 
HETATM   10  C8  UNK     1      18.031  -1.130  37.591  1.00  0.00     0.039 A 
HETATM   11  C11 UNK     1      18.484   0.528  35.889  1.00  0.00     0.012 A 
HETATM   12  C12 UNK     1      17.875   0.164  37.091  1.00  0.00     0.022 A 
ENDROOT
BRANCH   6  13
HETATM   13  C4  UNK     1      19.725  -5.573  37.417  1.00  0.00    -0.002 A 
HETATM   14  C10 UNK     1      18.845  -6.594  37.049  1.00  0.00     0.016 A 
HETATM   15  C14 UNK     1      18.905  -7.834  37.684  1.00  0.00     0.024 A 
HETATM   16  C15 UNK     1      19.847  -8.059  38.690  1.00  0.00     0.034 A 
HETATM   17  C13 UNK     1      20.727  -7.042  39.059  1.00  0.00     0.024 A 
HETATM   18 Cl1  UNK     1      19.922  -9.589  39.472  1.00  0.00    -0.084 Cl
HETATM   19  C9  UNK     1      20.667  -5.801  38.425  1.00  0.00     0.016 A 
ENDBRANCH   6  13
TORSDOF 1
ENDMDL
MODEL 10
REMARK VINA RESULT:      -7.1      7.461     10.050
REMARK  1 active torsions:
REMARK  status: ('A' for Active; 'I' for Inactive)
REMARK    1  A    between atoms: C3_7  and  C4_8 
ROOT
HETATM    1 Br1  UNK     1      19.544  -1.710  31.651  1.00  0.00    -0.051 Br
HETATM    2  O1  UNK     1      17.822   3.847  33.313  1.00  0.00    -0.309 OA
HETATM    3  O2  UNK     1      18.979   3.298  29.445  1.00  0.00    -0.287 OA
HETATM    4  C1  UNK     1      18.630   2.348  31.581  1.00  0.00     0.049 A 
HETATM    5  C2  UNK     1      18.221   2.605  32.889  1.00  0.00     0.090 A 
HETATM    6  C3  UNK     1      17.835   4.892  32.402  1.00  0.00     0.090 A 
HETATM    7  C5  UNK     1      18.636   3.452  30.609  1.00  0.00     0.187 A 
HETATM    8  C6  UNK     1      18.201   4.769  31.115  1.00  0.00     0.093 A 
HETATM    9  C7  UNK     1      19.026   1.062  31.204  1.00  0.00     0.037 A 
HETATM   10  C8  UNK     1      18.206   1.576  33.829  1.00  0.00     0.039 A 
HETATM   11  C11 UNK     1      19.010   0.034  32.147  1.00  0.00     0.012 A 
HETATM   12  C12 UNK     1      18.601   0.290  33.457  1.00  0.00     0.022 A 
ENDROOT
BRANCH   6  13
HETATM   13  C4  UNK     1      17.383   6.181  32.961  1.00  0.00    -0.002 A 
HETATM   14  C10 UNK     1      16.848   7.162  32.122  1.00  0.00     0.016 A 
HETATM   15  C14 UNK     1      16.420   8.380  32.650  1.00  0.00     0.024 A 
HETATM   16  C15 UNK     1      16.525   8.622  34.021  1.00  0.00     0.034 A 
HETATM   17  C13 UNK     1      17.059   7.645  34.861  1.00  0.00     0.024 A 
HETATM   18 Cl1  UNK     1      15.997  10.124  34.672  1.00  0.00    -0.084 Cl
HETATM   19  C9  UNK     1      17.486   6.427  34.333  1.00  0.00     0.016 A 
ENDBRANCH   6  13
TORSDOF 1
ENDMDL
