MODEL 1
REMARK VINA RESULT:      -7.6      0.000      0.000
REMARK  5 active torsions:
REMARK  status: ('A' for Active; 'I' for Inactive)
REMARK    1  A    between atoms: C1_3  and  N1_2 
REMARK       I    between atoms: C5_7  and  N1_2 
REMARK    2  A    between atoms: C1_3  and  C2_4 
REMARK    3  A    between atoms: C5_7  and  C6_8 
REMARK    4  A    between atoms: C6_8  and  C7_9 
REMARK    5  A    between atoms: C8_10  and  C9_11 
ROOT
HETATM    1  C6  UNK     1      19.543  -3.205  36.372  1.00  0.00     0.043 C 
HETATM    2  C8  UNK     1      18.462  -2.758  37.044  1.00  0.00     0.029 C 
ENDROOT
BRANCH   1   3
HETATM    3  C5  UNK     1      20.112  -2.270  35.335  1.00  0.00     0.252 C 
HETATM    4  O1  UNK     1      20.882  -1.360  35.638  1.00  0.00    -0.268 OA
HETATM    5  N1  UNK     1      19.686  -2.526  34.041  1.00  0.00    -0.353 N 
HETATM    6  H4  UNK     1      19.006  -3.265  33.880  1.00  0.00     0.163 HD
BRANCH   5   7
HETATM    7  C1  UNK     1      20.118  -1.732  32.915  1.00  0.00     0.080 C 
HETATM    8  C3  UNK     1      18.926  -0.983  32.327  1.00  0.00     0.032 C 
BRANCH   7   9
HETATM    9  C2  UNK     1      20.798  -2.598  31.847  1.00  0.00     0.020 C 
HETATM   10  C4  UNK     1      20.384  -2.218  30.431  1.00  0.00     0.007 C 
ENDBRANCH   7   9
ENDBRANCH   5   7
ENDBRANCH   1   3
BRANCH   1  11
HETATM   11  C7  UNK     1      20.148  -4.523  36.647  1.00  0.00    -0.021 A 
HETATM   12  C10 UNK     1      19.818  -5.600  35.841  1.00  0.00     0.012 A 
HETATM   13  C14 UNK     1      20.390  -6.845  36.101  1.00  0.00     0.001 A 
HETATM   14  C16 UNK     1      21.282  -6.995  37.163  1.00  0.00     0.000 A 
HETATM   15  C15 UNK     1      21.603  -5.900  37.965  1.00  0.00     0.001 A 
HETATM   16  C11 UNK     1      21.031  -4.654  37.705  1.00  0.00     0.012 A 
ENDBRANCH   1  11
BRANCH   2  17
HETATM   17  C9  UNK     1      17.797  -1.463  36.837  1.00  0.00    -0.035 A 
HETATM   18  C12 UNK     1      18.016  -0.431  37.737  1.00  0.00     0.011 A 
HETATM   19  C17 UNK     1      17.384   0.797  37.539  1.00  0.00     0.001 A 
HETATM   20  C19 UNK     1      16.541   0.979  36.444  1.00  0.00     0.000 A 
HETATM   21  C18 UNK     1      16.328  -0.067  35.546  1.00  0.00     0.001 A 
HETATM   22  C13 UNK     1      16.959  -1.294  35.743  1.00  0.00     0.011 A 
ENDBRANCH   2  17
TORSDOF 5
ENDMDL
MODEL 2
REMARK VINA RESULT:      -7.4      2.248      6.546
REMARK  5 active torsions:
REMARK  status: ('A' for Active; 'I' for Inactive)
REMARK    1  A    between atoms: C1_3  and  N1_2 
REMARK       I    between atoms: C5_7  and  N1_2 
REMARK    2  A    between atoms: C1_3  and  C2_4 
REMARK    3  A    between atoms: C5_7  and  C6_8 
REMARK    4  A    between atoms: C6_8  and  C7_9 
REMARK    5  A    between atoms: C8_10  and  C9_11 
ROOT
HETATM    1  C6  UNK     1      19.899  -4.217  36.724  1.00  0.00     0.043 C 
HETATM    2  C8  UNK     1      20.498  -4.378  37.923  1.00  0.00     0.029 C 
ENDROOT
BRANCH   1   3
HETATM    3  C5  UNK     1      19.717  -5.468  35.903  1.00  0.00     0.252 C 
HETATM    4  O1  UNK     1      20.531  -5.801  35.043  1.00  0.00    -0.268 OA
HETATM    5  N1  UNK     1      18.568  -6.184  36.201  1.00  0.00    -0.353 N 
HETATM    6  H4  UNK     1      17.918  -5.813  36.889  1.00  0.00     0.163 HD
BRANCH   5   7
HETATM    7  C1  UNK     1      18.219  -7.405  35.514  1.00  0.00     0.080 C 
HETATM    8  C3  UNK     1      16.739  -7.383  35.146  1.00  0.00     0.032 C 
BRANCH   7   9
HETATM    9  C2  UNK     1      18.552  -8.639  36.363  1.00  0.00     0.020 C 
HETATM   10  C4  UNK     1      20.024  -9.024  36.288  1.00  0.00     0.007 C 
ENDBRANCH   7   9
ENDBRANCH   5   7
ENDBRANCH   1   3
BRANCH   1  11
HETATM   11  C7  UNK     1      19.431  -2.900  36.252  1.00  0.00    -0.021 A 
HETATM   12  C10 UNK     1      18.667  -2.112  37.096  1.00  0.00     0.012 A 
HETATM   13  C14 UNK     1      18.224  -0.867  36.650  1.00  0.00     0.001 A 
HETATM   14  C16 UNK     1      18.553  -0.429  35.367  1.00  0.00     0.000 A 
HETATM   15  C15 UNK     1      19.323  -1.235  34.530  1.00  0.00     0.001 A 
HETATM   16  C11 UNK     1      19.766  -2.481  34.976  1.00  0.00     0.012 A 
ENDBRANCH   1  11
BRANCH   2  17
HETATM   17  C9  UNK     1      20.994  -5.649  38.472  1.00  0.00    -0.035 A 
HETATM   18  C12 UNK     1      22.336  -5.972  38.339  1.00  0.00     0.011 A 
HETATM   19  C17 UNK     1      22.806  -7.178  38.861  1.00  0.00     0.001 A 
HETATM   20  C19 UNK     1      21.928  -8.046  39.509  1.00  0.00     0.000 A 
HETATM   21  C18 UNK     1      20.580  -7.710  39.636  1.00  0.00     0.001 A 
HETATM   22  C13 UNK     1      20.111  -6.504  39.115  1.00  0.00     0.011 A 
ENDBRANCH   2  17
TORSDOF 5
ENDMDL
MODEL 3
REMARK VINA RESULT:      -7.3      2.258      6.547
REMARK  5 active torsions:
REMARK  status: ('A' for Active; 'I' for Inactive)
REMARK    1  A    between atoms: C1_3  and  N1_2 
REMARK       I    between atoms: C5_7  and  N1_2 
REMARK    2  A    between atoms: C1_3  and  C2_4 
REMARK    3  A    between atoms: C5_7  and  C6_8 
REMARK    4  A    between atoms: C6_8  and  C7_9 
REMARK    5  A    between atoms: C8_10  and  C9_11 
ROOT
HETATM    1  C6  UNK     1      19.929  -4.285  36.724  1.00  0.00     0.043 C 
HETATM    2  C8  UNK     1      20.522  -4.440  37.926  1.00  0.00     0.029 C 
ENDROOT
BRANCH   1   3
HETATM    3  C5  UNK     1      19.738  -5.542  35.913  1.00  0.00     0.252 C 
HETATM    4  O1  UNK     1      20.562  -5.901  35.074  1.00  0.00    -0.268 OA
HETATM    5  N1  UNK     1      18.569  -6.231  36.196  1.00  0.00    -0.353 N 
HETATM    6  H4  UNK     1      17.913  -5.839  36.867  1.00  0.00     0.163 HD
BRANCH   5   7
HETATM    7  C1  UNK     1      18.210  -7.454  35.516  1.00  0.00     0.080 C 
HETATM    8  C3  UNK     1      16.733  -7.417  35.138  1.00  0.00     0.032 C 
BRANCH   7   9
HETATM    9  C2  UNK     1      18.521  -8.684  36.378  1.00  0.00     0.020 C 
HETATM   10  C4  UNK     1      19.987  -9.093  36.312  1.00  0.00     0.007 C 
ENDBRANCH   7   9
ENDBRANCH   5   7
ENDBRANCH   1   3
BRANCH   1  11
HETATM   11  C7  UNK     1      19.474  -2.968  36.237  1.00  0.00    -0.021 A 
HETATM   12  C10 UNK     1      19.853  -2.546  34.974  1.00  0.00     0.012 A 
HETATM   13  C14 UNK     1      19.423  -1.302  34.514  1.00  0.00     0.001 A 
HETATM   14  C16 UNK     1      18.620  -0.498  35.324  1.00  0.00     0.000 A 
HETATM   15  C15 UNK     1      18.248  -0.939  36.593  1.00  0.00     0.001 A 
HETATM   16  C11 UNK     1      18.678  -2.183  37.054  1.00  0.00     0.012 A 
ENDBRANCH   1  11
BRANCH   2  17
HETATM   17  C9  UNK     1      21.005  -5.710  38.489  1.00  0.00    -0.035 A 
HETATM   18  C12 UNK     1      20.111  -6.557  39.126  1.00  0.00     0.011 A 
HETATM   19  C17 UNK     1      20.569  -7.762  39.660  1.00  0.00     0.001 A 
HETATM   20  C19 UNK     1      21.916  -8.105  39.550  1.00  0.00     0.000 A 
HETATM   21  C18 UNK     1      22.805  -7.244  38.907  1.00  0.00     0.001 A 
HETATM   22  C13 UNK     1      22.347  -6.040  38.373  1.00  0.00     0.011 A 
ENDBRANCH   2  17
TORSDOF 5
ENDMDL
MODEL 4
REMARK VINA RESULT:      -7.2      5.210      8.301
REMARK  5 active torsions:
REMARK  status: ('A' for Active; 'I' for Inactive)
REMARK    1  A    between atoms: C1_3  and  N1_2 
REMARK       I    between atoms: C5_7  and  N1_2 
REMARK    2  A    between atoms: C1_3  and  C2_4 
REMARK    3  A    between atoms: C5_7  and  C6_8 
REMARK    4  A    between atoms: C6_8  and  C7_9 
REMARK    5  A    between atoms: C8_10  and  C9_11 
ROOT
HETATM    1  C6  UNK     1      18.694   3.215  31.023  1.00  0.00     0.043 C 
HETATM    2  C8  UNK     1      19.070   4.471  30.702  1.00  0.00     0.029 C 
ENDROOT
BRANCH   1   3
HETATM    3  C5  UNK     1      18.134   3.026  32.410  1.00  0.00     0.252 C 
HETATM    4  O1  UNK     1      17.570   3.939  33.009  1.00  0.00    -0.268 OA
HETATM    5  N1  UNK     1      18.318   1.755  32.931  1.00  0.00    -0.353 N 
HETATM    6  H4  UNK     1      18.843   1.070  32.392  1.00  0.00     0.163 HD
BRANCH   5   7
HETATM    7  C1  UNK     1      17.857   1.386  34.249  1.00  0.00     0.080 C 
HETATM    8  C3  UNK     1      18.750   2.029  35.305  1.00  0.00     0.032 C 
BRANCH   7   9
HETATM    9  C2  UNK     1      17.818  -0.138  34.422  1.00  0.00     0.020 C 
HETATM   10  C4  UNK     1      18.531  -0.876  33.296  1.00  0.00     0.007 C 
ENDBRANCH   7   9
ENDBRANCH   5   7
ENDBRANCH   1   3
BRANCH   1  11
HETATM   11  C7  UNK     1      18.804   2.096  30.067  1.00  0.00    -0.021 A 
HETATM   12  C10 UNK     1      17.904   2.013  29.018  1.00  0.00     0.012 A 
HETATM   13  C14 UNK     1      18.008   0.955  28.115  1.00  0.00     0.001 A 
HETATM   14  C16 UNK     1      19.009  -0.004  28.275  1.00  0.00     0.000 A 
HETATM   15  C15 UNK     1      19.906   0.096  29.338  1.00  0.00     0.001 A 
HETATM   16  C11 UNK     1      19.802   1.154  30.242  1.00  0.00     0.012 A 
ENDBRANCH   1  11
BRANCH   2  17
HETATM   17  C9  UNK     1      18.995   5.643  31.588  1.00  0.00    -0.035 A 
HETATM   18  C12 UNK     1      17.870   6.453  31.555  1.00  0.00     0.011 A 
HETATM   19  C17 UNK     1      17.800   7.564  32.396  1.00  0.00     0.001 A 
HETATM   20  C19 UNK     1      18.855   7.852  33.260  1.00  0.00     0.000 A 
HETATM   21  C18 UNK     1      19.982   7.030  33.283  1.00  0.00     0.001 A 
HETATM   22  C13 UNK     1      20.052   5.919  32.443  1.00  0.00     0.011 A 
ENDBRANCH   2  17
TORSDOF 5
ENDMDL
MODEL 5
REMARK VINA RESULT:      -7.1      4.825      8.135
REMARK  5 active torsions:
REMARK  status: ('A' for Active; 'I' for Inactive)
REMARK    1  A    between atoms: C1_3  and  N1_2 
REMARK       I    between atoms: C5_7  and  N1_2 
REMARK    2  A    between atoms: C1_3  and  C2_4 
REMARK    3  A    between atoms: C5_7  and  C6_8 
REMARK    4  A    between atoms: C6_8  and  C7_9 
REMARK    5  A    between atoms: C8_10  and  C9_11 
ROOT
HETATM    1  C6  UNK     1      18.390   3.387  31.885  1.00  0.00     0.043 C 
HETATM    2  C8  UNK     1      18.325   4.718  31.673  1.00  0.00     0.029 C 
ENDROOT
BRANCH   1   3
HETATM    3  C5  UNK     1      18.279   2.939  33.321  1.00  0.00     0.252 C 
HETATM    4  O1  UNK     1      18.781   3.584  34.240  1.00  0.00    -0.268 OA
HETATM    5  N1  UNK     1      17.577   1.756  33.497  1.00  0.00    -0.353 N 
HETATM    6  H4  UNK     1      17.238   1.256  32.680  1.00  0.00     0.163 HD
BRANCH   5   7
HETATM    7  C1  UNK     1      17.373   1.167  34.799  1.00  0.00     0.080 C 
HETATM    8  C3  UNK     1      18.539   0.243  35.134  1.00  0.00     0.032 C 
BRANCH   7   9
HETATM    9  C2  UNK     1      16.040   0.410  34.867  1.00  0.00     0.020 C 
HETATM   10  C4  UNK     1      16.222  -1.103  34.850  1.00  0.00     0.007 C 
ENDBRANCH   7   9
ENDBRANCH   5   7
ENDBRANCH   1   3
BRANCH   1  11
HETATM   11  C7  UNK     1      18.541   2.423  30.778  1.00  0.00    -0.021 A 
HETATM   12  C10 UNK     1      19.368   1.324  30.946  1.00  0.00     0.012 A 
HETATM   13  C14 UNK     1      19.510   0.413  29.900  1.00  0.00     0.001 A 
HETATM   14  C16 UNK     1      18.824   0.614  28.702  1.00  0.00     0.000 A 
HETATM   15  C15 UNK     1      17.995   1.725  28.550  1.00  0.00     0.001 A 
HETATM   16  C11 UNK     1      17.853   2.637  29.597  1.00  0.00     0.012 A 
ENDBRANCH   1  11
BRANCH   2  17
HETATM   17  C9  UNK     1      18.176   5.747  32.713  1.00  0.00    -0.035 A 
HETATM   18  C12 UNK     1      16.905   6.123  33.124  1.00  0.00     0.011 A 
HETATM   19  C17 UNK     1      16.764   7.099  34.110  1.00  0.00     0.001 A 
HETATM   20  C19 UNK     1      17.895   7.689  34.674  1.00  0.00     0.000 A 
HETATM   21  C18 UNK     1      19.167   7.303  34.252  1.00  0.00     0.001 A 
HETATM   22  C13 UNK     1      19.308   6.327  33.266  1.00  0.00     0.011 A 
ENDBRANCH   2  17
TORSDOF 5
ENDMDL
MODEL 6
REMARK VINA RESULT:      -7.0     28.058     30.235
REMARK  5 active torsions:
REMARK  status: ('A' for Active; 'I' for Inactive)
REMARK    1  A    between atoms: C1_3  and  N1_2 
REMARK       I    between atoms: C5_7  and  N1_2 
REMARK    2  A    between atoms: C1_3  and  C2_4 
REMARK    3  A    between atoms: C5_7  and  C6_8 
REMARK    4  A    between atoms: C6_8  and  C7_9 
REMARK    5  A    between atoms: C8_10  and  C9_11 
ROOT
HETATM    1  C6  UNK     1      12.179   8.073   8.548  1.00  0.00     0.043 C 
HETATM    2  C8  UNK     1      13.470   7.987   8.165  1.00  0.00     0.029 C 
ENDROOT
BRANCH   1   3
HETATM    3  C5  UNK     1      11.903   8.938   9.753  1.00  0.00     0.252 C 
HETATM    4  O1  UNK     1      12.047   8.515  10.898  1.00  0.00    -0.268 OA
HETATM    5  N1  UNK     1      11.476  10.221   9.448  1.00  0.00    -0.353 N 
HETATM    6  H4  UNK     1      11.331  10.477   8.474  1.00  0.00     0.163 HD
BRANCH   5   7
HETATM    7  C1  UNK     1      11.156  11.191  10.468  1.00  0.00     0.080 C 
HETATM    8  C3  UNK     1       9.841  11.883  10.125  1.00  0.00     0.032 C 
BRANCH   7   9
HETATM    9  C2  UNK     1      12.284  12.217  10.638  1.00  0.00     0.020 C 
HETATM   10  C4  UNK     1      13.408  11.712  11.534  1.00  0.00     0.007 C 
ENDBRANCH   7   9
ENDBRANCH   5   7
ENDBRANCH   1   3
BRANCH   1  11
HETATM   11  C7  UNK     1      11.097   7.381   7.822  1.00  0.00    -0.021 A 
HETATM   12  C10 UNK     1      11.324   6.946   6.526  1.00  0.00     0.012 A 
HETATM   13  C14 UNK     1      10.302   6.292   5.839  1.00  0.00     0.001 A 
HETATM   14  C16 UNK     1       9.068   6.083   6.457  1.00  0.00     0.000 A 
HETATM   15  C15 UNK     1       8.858   6.528   7.762  1.00  0.00     0.001 A 
HETATM   16  C11 UNK     1       9.880   7.183   8.449  1.00  0.00     0.012 A 
ENDBRANCH   1  11
BRANCH   2  17
HETATM   17  C9  UNK     1      14.609   8.641   8.828  1.00  0.00    -0.035 A 
HETATM   18  C12 UNK     1      14.965   9.929   8.458  1.00  0.00     0.011 A 
HETATM   19  C17 UNK     1      16.045  10.549   9.086  1.00  0.00     0.001 A 
HETATM   20  C19 UNK     1      16.756   9.874  10.078  1.00  0.00     0.000 A 
HETATM   21  C18 UNK     1      16.389   8.578  10.440  1.00  0.00     0.001 A 
HETATM   22  C13 UNK     1      15.309   7.958   9.811  1.00  0.00     0.011 A 
ENDBRANCH   2  17
TORSDOF 5
ENDMDL
MODEL 7
REMARK VINA RESULT:      -7.0     28.064     30.235
REMARK  5 active torsions:
REMARK  status: ('A' for Active; 'I' for Inactive)
REMARK    1  A    between atoms: C1_3  and  N1_2 
REMARK       I    between atoms: C5_7  and  N1_2 
REMARK    2  A    between atoms: C1_3  and  C2_4 
REMARK    3  A    between atoms: C5_7  and  C6_8 
REMARK    4  A    between atoms: C6_8  and  C7_9 
REMARK    5  A    between atoms: C8_10  and  C9_11 
ROOT
HETATM    1  C6  UNK     1      12.173   8.067   8.544  1.00  0.00     0.043 C 
HETATM    2  C8  UNK     1      13.465   7.982   8.162  1.00  0.00     0.029 C 
ENDROOT
BRANCH   1   3
HETATM    3  C5  UNK     1      11.895   8.933   9.747  1.00  0.00     0.252 C 
HETATM    4  O1  UNK     1      12.043   8.514  10.893  1.00  0.00    -0.268 OA
HETATM    5  N1  UNK     1      11.461  10.213   9.440  1.00  0.00    -0.353 N 
HETATM    6  H4  UNK     1      11.313  10.466   8.467  1.00  0.00     0.163 HD
BRANCH   5   7
HETATM    7  C1  UNK     1      11.138  11.183  10.459  1.00  0.00     0.080 C 
HETATM    8  C3  UNK     1       9.818  11.867  10.118  1.00  0.00     0.032 C 
BRANCH   7   9
HETATM    9  C2  UNK     1      12.260  12.217  10.623  1.00  0.00     0.020 C 
HETATM   10  C4  UNK     1      13.386  11.724  11.523  1.00  0.00     0.007 C 
ENDBRANCH   7   9
ENDBRANCH   5   7
ENDBRANCH   1   3
BRANCH   1  11
HETATM   11  C7  UNK     1      11.093   7.372   7.818  1.00  0.00    -0.021 A 
HETATM   12  C10 UNK     1      11.322   6.934   6.524  1.00  0.00     0.012 A 
HETATM   13  C14 UNK     1      10.302   6.278   5.837  1.00  0.00     0.001 A 
HETATM   14  C16 UNK     1       9.068   6.069   6.454  1.00  0.00     0.000 A 
HETATM   15  C15 UNK     1       8.855   6.516   7.757  1.00  0.00     0.001 A 
HETATM   16  C11 UNK     1       9.876   7.174   8.444  1.00  0.00     0.012 A 
ENDBRANCH   1  11
BRANCH   2  17
HETATM   17  C9  UNK     1      14.602   8.639   8.824  1.00  0.00    -0.035 A 
HETATM   18  C12 UNK     1      15.305   7.959   9.807  1.00  0.00     0.011 A 
HETATM   19  C17 UNK     1      16.384   8.582  10.435  1.00  0.00     0.001 A 
HETATM   20  C19 UNK     1      16.747   9.879  10.073  1.00  0.00     0.000 A 
HETATM   21  C18 UNK     1      16.031  10.553   9.083  1.00  0.00     0.001 A 
HETATM   22  C13 UNK     1      14.953   9.930   8.456  1.00  0.00     0.011 A 
ENDBRANCH   2  17
TORSDOF 5
ENDMDL
MODEL 8
REMARK VINA RESULT:      -7.0      2.882      6.376
REMARK  5 active torsions:
REMARK  status: ('A' for Active; 'I' for Inactive)
REMARK    1  A    between atoms: C1_3  and  N1_2 
REMARK       I    between atoms: C5_7  and  N1_2 
REMARK    2  A    between atoms: C1_3  and  C2_4 
REMARK    3  A    between atoms: C5_7  and  C6_8 
REMARK    4  A    between atoms: C6_8  and  C7_9 
REMARK    5  A    between atoms: C8_10  and  C9_11 
ROOT
HETATM    1  C6  UNK     1      18.512   0.880  33.715  1.00  0.00     0.043 C 
HETATM    2  C8  UNK     1      18.595   0.655  35.043  1.00  0.00     0.029 C 
ENDROOT
BRANCH   1   3
HETATM    3  C5  UNK     1      18.573  -0.342  32.832  1.00  0.00     0.252 C 
HETATM    4  O1  UNK     1      17.641  -1.142  32.771  1.00  0.00    -0.268 OA
HETATM    5  N1  UNK     1      19.756  -0.474  32.121  1.00  0.00    -0.353 N 
HETATM    6  H4  UNK     1      20.500   0.203  32.269  1.00  0.00     0.163 HD
BRANCH   5   7
HETATM    7  C1  UNK     1      20.001  -1.583  31.231  1.00  0.00     0.080 C 
HETATM    8  C3  UNK     1      20.879  -2.617  31.928  1.00  0.00     0.032 C 
BRANCH   7   9
HETATM    9  C2  UNK     1      20.647  -1.115  29.920  1.00  0.00     0.020 C 
HETATM   10  C4  UNK     1      20.033   0.175  29.390  1.00  0.00     0.007 C 
ENDBRANCH   7   9
ENDBRANCH   5   7
ENDBRANCH   1   3
BRANCH   1  11
HETATM   11  C7  UNK     1      18.349   2.236  33.157  1.00  0.00    -0.021 A 
HETATM   12  C10 UNK     1      18.282   2.398  31.783  1.00  0.00     0.012 A 
HETATM   13  C14 UNK     1      18.128   3.679  31.255  1.00  0.00     0.001 A 
HETATM   14  C16 UNK     1      18.045   4.780  32.109  1.00  0.00     0.000 A 
HETATM   15  C15 UNK     1      18.114   4.598  33.490  1.00  0.00     0.001 A 
HETATM   16  C11 UNK     1      18.268   3.316  34.018  1.00  0.00     0.012 A 
ENDBRANCH   1  11
BRANCH   2  17
HETATM   17  C9  UNK     1      18.757  -0.658  35.684  1.00  0.00    -0.035 A 
HETATM   18  C12 UNK     1      19.989  -1.293  35.638  1.00  0.00     0.011 A 
HETATM   19  C17 UNK     1      20.142  -2.538  36.247  1.00  0.00     0.001 A 
HETATM   20  C19 UNK     1      19.061  -3.135  36.895  1.00  0.00     0.000 A 
HETATM   21  C18 UNK     1      17.827  -2.487  36.934  1.00  0.00     0.001 A 
HETATM   22  C13 UNK     1      17.674  -1.241  36.325  1.00  0.00     0.011 A 
ENDBRANCH   2  17
TORSDOF 5
ENDMDL
MODEL 9
REMARK VINA RESULT:      -6.9      4.275      7.644
REMARK  5 active torsions:
REMARK  status: ('A' for Active; 'I' for Inactive)
REMARK    1  A    between atoms: C1_3  and  N1_2 
REMARK       I    between atoms: C5_7  and  N1_2 
REMARK    2  A    between atoms: C1_3  and  C2_4 
REMARK    3  A    between atoms: C5_7  and  C6_8 
REMARK    4  A    between atoms: C6_8  and  C7_9 
REMARK    5  A    between atoms: C8_10  and  C9_11 
ROOT
HETATM    1  C6  UNK     1      18.236   3.245  33.528  1.00  0.00     0.043 C 
HETATM    2  C8  UNK     1      18.053   2.739  34.766  1.00  0.00     0.029 C 
ENDROOT
BRANCH   1   3
HETATM    3  C5  UNK     1      18.184   2.252  32.394  1.00  0.00     0.252 C 
HETATM    4  O1  UNK     1      17.464   2.430  31.412  1.00  0.00    -0.268 OA
HETATM    5  N1  UNK     1      19.001   1.146  32.566  1.00  0.00    -0.353 N 
HETATM    6  H4  UNK     1      19.525   1.048  33.431  1.00  0.00     0.163 HD
BRANCH   5   7
HETATM    7  C1  UNK     1      19.079   0.085  31.589  1.00  0.00     0.080 C 
HETATM    8  C3  UNK     1      19.037  -1.267  32.294  1.00  0.00     0.032 C 
BRANCH   7   9
HETATM    9  C2  UNK     1      20.342   0.211  30.727  1.00  0.00     0.020 C 
HETATM   10  C4  UNK     1      20.037   0.217  29.234  1.00  0.00     0.007 C 
ENDBRANCH   7   9
ENDBRANCH   5   7
ENDBRANCH   1   3
BRANCH   1  11
HETATM   11  C7  UNK     1      18.454   4.685  33.293  1.00  0.00    -0.021 A 
HETATM   12  C10 UNK     1      19.546   5.307  33.875  1.00  0.00     0.012 A 
HETATM   13  C14 UNK     1      19.752   6.668  33.654  1.00  0.00     0.001 A 
HETATM   14  C16 UNK     1      18.863   7.387  32.854  1.00  0.00     0.000 A 
HETATM   15  C15 UNK     1      17.769   6.745  32.275  1.00  0.00     0.001 A 
HETATM   16  C11 UNK     1      17.563   5.383  32.498  1.00  0.00     0.012 A 
ENDBRANCH   1  11
BRANCH   2  17
HETATM   17  C9  UNK     1      17.829   1.322  35.091  1.00  0.00    -0.035 A 
HETATM   18  C12 UNK     1      18.844   0.592  35.692  1.00  0.00     0.011 A 
HETATM   19  C17 UNK     1      18.631  -0.752  36.001  1.00  0.00     0.001 A 
HETATM   20  C19 UNK     1      17.407  -1.350  35.705  1.00  0.00     0.000 A 
HETATM   21  C18 UNK     1      16.395  -0.605  35.100  1.00  0.00     0.001 A 
HETATM   22  C13 UNK     1      16.607   0.739  34.791  1.00  0.00     0.011 A 
ENDBRANCH   2  17
TORSDOF 5
ENDMDL
MODEL 10
REMARK VINA RESULT:      -6.9      9.859     11.740
REMARK  5 active torsions:
REMARK  status: ('A' for Active; 'I' for Inactive)
REMARK    1  A    between atoms: C1_3  and  N1_2 
REMARK       I    between atoms: C5_7  and  N1_2 
REMARK    2  A    between atoms: C1_3  and  C2_4 
REMARK    3  A    between atoms: C5_7  and  C6_8 
REMARK    4  A    between atoms: C6_8  and  C7_9 
REMARK    5  A    between atoms: C8_10  and  C9_11 
ROOT
HETATM    1  C6  UNK     1      28.966  -6.734  35.066  1.00  0.00     0.043 C 
HETATM    2  C8  UNK     1      28.023  -7.552  35.578  1.00  0.00     0.029 C 
ENDROOT
BRANCH   1   3
HETATM    3  C5  UNK     1      30.023  -6.257  36.031  1.00  0.00     0.252 C 
HETATM    4  O1  UNK     1      31.055  -6.896  36.226  1.00  0.00    -0.268 OA
HETATM    5  N1  UNK     1      29.719  -5.062  36.665  1.00  0.00    -0.353 N 
HETATM    6  H4  UNK     1      28.820  -4.623  36.488  1.00  0.00     0.163 HD
BRANCH   5   7
HETATM    7  C1  UNK     1      30.606  -4.453  37.628  1.00  0.00     0.080 C 
HETATM    8  C3  UNK     1      29.835  -4.132  38.904  1.00  0.00     0.032 C 
BRANCH   7   9
HETATM    9  C2  UNK     1      31.266  -3.190  37.059  1.00  0.00     0.020 C 
HETATM   10  C4  UNK     1      32.447  -3.504  36.149  1.00  0.00     0.007 C 
ENDBRANCH   7   9
ENDBRANCH   5   7
ENDBRANCH   1   3
BRANCH   1  11
HETATM   11  C7  UNK     1      28.978  -6.344  33.643  1.00  0.00    -0.021 A 
HETATM   12  C10 UNK     1      27.870  -6.615  32.859  1.00  0.00     0.012 A 
HETATM   13  C14 UNK     1      27.881  -6.246  31.514  1.00  0.00     0.001 A 
HETATM   14  C16 UNK     1      29.000  -5.612  30.974  1.00  0.00     0.000 A 
HETATM   15  C15 UNK     1      30.107  -5.346  31.778  1.00  0.00     0.001 A 
HETATM   16  C11 UNK     1      30.097  -5.716  33.124  1.00  0.00     0.012 A 
ENDBRANCH   1  11
BRANCH   2  17
HETATM   17  C9  UNK     1      27.935  -7.992  36.978  1.00  0.00    -0.035 A 
HETATM   18  C12 UNK     1      27.241  -7.216  37.895  1.00  0.00     0.011 A 
HETATM   19  C17 UNK     1      27.157  -7.633  39.223  1.00  0.00     0.001 A 
HETATM   20  C19 UNK     1      27.768  -8.823  39.620  1.00  0.00     0.000 A 
HETATM   21  C18 UNK     1      28.463  -9.594  38.689  1.00  0.00     0.001 A 
HETATM   22  C13 UNK     1      28.547  -9.177  37.361  1.00  0.00     0.011 A 
ENDBRANCH   2  17
TORSDOF 5
ENDMDL
