MODEL 1
REMARK VINA RESULT:      -8.7      0.000      0.000
REMARK  3 active torsions:
REMARK  status: ('A' for Active; 'I' for Inactive)
REMARK    1  A    between atoms: C9_17  and  N1_7 
REMARK    2  A    between atoms: C1_9  and  C3_11 
REMARK    3  A    between atoms: C13_21  and  C7_15 
ROOT
HETATM    1  O1  UNK     1      17.742   2.355  31.095  1.00  0.00    -0.269 OA
HETATM    2  O2  UNK     1      17.419   1.242  33.134  1.00  0.00    -0.286 OA
HETATM    3  O3  UNK     1      19.241   4.237  35.197  1.00  0.00    -0.287 OA
HETATM    4  N2  UNK     1      20.118   6.155  29.328  1.00  0.00    -0.191 NA
HETATM    5  C1  UNK     1      18.968   4.625  32.346  1.00  0.00     0.109 C 
HETATM    6  C2  UNK     1      18.477   3.409  33.102  1.00  0.00     0.065 A 
HETATM    7  C4  UNK     1      18.943   4.407  30.838  1.00  0.00     0.086 C 
HETATM    8  C5  UNK     1      17.899   2.366  32.477  1.00  0.00     0.204 A 
HETATM    9  C6  UNK     1      18.668   3.353  34.575  1.00  0.00     0.197 A 
HETATM   10  C8  UNK     1      18.131   2.167  35.258  1.00  0.00     0.049 A 
HETATM   11  C9  UNK     1      18.346   3.323  30.296  1.00  0.00     0.162 C 
HETATM   12  C11 UNK     1      17.531   1.170  34.496  1.00  0.00     0.092 A 
HETATM   13  C15 UNK     1      18.221   2.037  36.646  1.00  0.00     0.018 A 
HETATM   14  C17 UNK     1      17.014   0.033  35.118  1.00  0.00     0.038 A 
HETATM   15  C18 UNK     1      19.592   5.372  30.004  1.00  0.00     0.100 C 
HETATM   16  C19 UNK     1      17.703   0.900  37.266  1.00  0.00     0.001 A 
HETATM   17  C20 UNK     1      17.101  -0.101  36.504  1.00  0.00     0.003 A 
ENDROOT
BRANCH   5  18
HETATM   18  C3  UNK     1      18.155   5.833  32.708  1.00  0.00    -0.029 A 
HETATM   19  C10 UNK     1      16.776   5.790  32.530  1.00  0.00     0.009 A 
HETATM   20  C14 UNK     1      16.000   6.902  32.859  1.00  0.00     0.001 A 
HETATM   21  C16 UNK     1      16.609   8.051  33.365  1.00  0.00     0.001 A 
HETATM   22  C12 UNK     1      17.992   8.088  33.541  1.00  0.00     0.017 A 
HETATM   23  C7  UNK     1      18.768   6.976  33.212  1.00  0.00     0.055 A 
BRANCH  23  24
HETATM   24  C13 UNK     1      20.246   7.039  33.409  1.00  0.00     0.418 C 
HETATM   25  F1  UNK     1      20.725   6.084  34.258  1.00  0.00    -0.166 F 
HETATM   26  F2  UNK     1      20.957   6.880  32.255  1.00  0.00    -0.166 F 
HETATM   27  F3  UNK     1      20.653   8.232  33.930  1.00  0.00    -0.166 F 
ENDBRANCH  23  24
ENDBRANCH   5  18
BRANCH  11  28
HETATM   28  N1  UNK     1      18.264   3.057  28.957  1.00  0.00    -0.379 N 
HETATM   29  H8  UNK     1      17.935   2.160  28.622  1.00  0.00     0.158 HD
HETATM   30  H9  UNK     1      18.541   3.775  28.299  1.00  0.00     0.158 HD
ENDBRANCH  11  28
TORSDOF 3
ENDMDL
MODEL 2
REMARK VINA RESULT:      -8.5     15.686     17.355
REMARK  3 active torsions:
REMARK  status: ('A' for Active; 'I' for Inactive)
REMARK    1  A    between atoms: C9_17  and  N1_7 
REMARK    2  A    between atoms: C1_9  and  C3_11 
REMARK    3  A    between atoms: C13_21  and  C7_15 
ROOT
HETATM    1  O1  UNK     1      32.306  -4.571  34.095  1.00  0.00    -0.269 OA
HETATM    2  O2  UNK     1      30.644  -5.071  32.518  1.00  0.00    -0.286 OA
HETATM    3  O3  UNK     1      29.337  -8.233  34.718  1.00  0.00    -0.287 OA
HETATM    4  N2  UNK     1      34.329  -6.489  38.024  1.00  0.00    -0.191 NA
HETATM    5  C1  UNK     1      31.495  -6.683  35.856  1.00  0.00     0.109 C 
HETATM    6  C2  UNK     1      30.830  -6.391  34.528  1.00  0.00     0.065 A 
HETATM    7  C4  UNK     1      32.776  -5.879  36.041  1.00  0.00     0.086 C 
HETATM    8  C5  UNK     1      31.238  -5.383  33.733  1.00  0.00     0.204 A 
HETATM    9  C6  UNK     1      29.715  -7.263  34.075  1.00  0.00     0.197 A 
HETATM   10  C8  UNK     1      29.082  -6.902  32.798  1.00  0.00     0.049 A 
HETATM   11  C9  UNK     1      33.111  -4.888  35.187  1.00  0.00     0.162 C 
HETATM   12  C11 UNK     1      29.583  -5.818  32.085  1.00  0.00     0.092 A 
HETATM   13  C15 UNK     1      27.998  -7.632  32.304  1.00  0.00     0.018 A 
HETATM   14  C17 UNK     1      29.002  -5.454  30.869  1.00  0.00     0.038 A 
HETATM   15  C18 UNK     1      33.633  -6.216  37.136  1.00  0.00     0.100 C 
HETATM   16  C19 UNK     1      27.418  -7.266  31.089  1.00  0.00     0.001 A 
HETATM   17  C20 UNK     1      27.919  -6.179  30.372  1.00  0.00     0.003 A 
ENDROOT
BRANCH   5  18
HETATM   18  C3  UNK     1      30.547  -6.416  36.988  1.00  0.00    -0.029 A 
HETATM   19  C10 UNK     1      29.953  -5.161  37.082  1.00  0.00     0.009 A 
HETATM   20  C14 UNK     1      29.069  -4.891  38.128  1.00  0.00     0.001 A 
HETATM   21  C16 UNK     1      28.784  -5.877  39.073  1.00  0.00     0.001 A 
HETATM   22  C12 UNK     1      29.384  -7.132  38.973  1.00  0.00     0.017 A 
HETATM   23  C7  UNK     1      30.268  -7.403  37.928  1.00  0.00     0.055 A 
BRANCH  23  24
HETATM   24  C13 UNK     1      30.896  -8.755  37.842  1.00  0.00     0.418 C 
HETATM   25  F1  UNK     1      31.041  -9.209  36.563  1.00  0.00    -0.166 F 
HETATM   26  F2  UNK     1      32.147  -8.808  38.385  1.00  0.00    -0.166 F 
HETATM   27  F3  UNK     1      30.172  -9.710  38.492  1.00  0.00    -0.166 F 
ENDBRANCH  23  24
ENDBRANCH   5  18
BRANCH  11  28
HETATM   28  N1  UNK     1      34.231  -4.109  35.288  1.00  0.00    -0.379 N 
HETATM   29  H8  UNK     1      35.012  -4.234  34.656  1.00  0.00     0.158 HD
HETATM   30  H9  UNK     1      34.270  -3.400  36.010  1.00  0.00     0.158 HD
ENDBRANCH  11  28
TORSDOF 3
ENDMDL
MODEL 3
REMARK VINA RESULT:      -8.2     15.704     17.313
REMARK  3 active torsions:
REMARK  status: ('A' for Active; 'I' for Inactive)
REMARK    1  A    between atoms: C9_17  and  N1_7 
REMARK    2  A    between atoms: C1_9  and  C3_11 
REMARK    3  A    between atoms: C13_21  and  C7_15 
ROOT
HETATM    1  O1  UNK     1      30.713 -10.242  34.014  1.00  0.00    -0.269 OA
HETATM    2  O2  UNK     1      29.327  -9.588  32.240  1.00  0.00    -0.286 OA
HETATM    3  O3  UNK     1      28.343  -6.121  34.127  1.00  0.00    -0.287 OA
HETATM    4  N2  UNK     1      31.770  -8.917  38.524  1.00  0.00    -0.191 NA
HETATM    5  C1  UNK     1      30.245  -7.825  35.482  1.00  0.00     0.109 C 
HETATM    6  C2  UNK     1      29.615  -8.132  34.141  1.00  0.00     0.065 A 
HETATM    7  C4  UNK     1      30.968  -9.034  36.063  1.00  0.00     0.086 C 
HETATM    8  C5  UNK     1      29.868  -9.277  33.479  1.00  0.00     0.204 A 
HETATM    9  C6  UNK     1      28.665  -7.151  33.551  1.00  0.00     0.197 A 
HETATM   10  C8  UNK     1      28.122  -7.486  32.226  1.00  0.00     0.049 A 
HETATM   11  C9  UNK     1      31.170 -10.149  35.327  1.00  0.00     0.162 C 
HETATM   12  C11 UNK     1      28.485  -8.692  31.638  1.00  0.00     0.092 A 
HETATM   13  C15 UNK     1      27.254  -6.612  31.566  1.00  0.00     0.018 A 
HETATM   14  C17 UNK     1      27.983  -9.036  30.382  1.00  0.00     0.038 A 
HETATM   15  C18 UNK     1      31.410  -8.969  37.421  1.00  0.00     0.100 C 
HETATM   16  C19 UNK     1      26.753  -6.956  30.311  1.00  0.00     0.001 A 
HETATM   17  C20 UNK     1      27.117  -8.166  29.719  1.00  0.00     0.003 A 
ENDROOT
BRANCH   5  18
HETATM   18  C3  UNK     1      31.187  -6.662  35.368  1.00  0.00    -0.029 A 
HETATM   19  C10 UNK     1      32.187  -6.705  34.402  1.00  0.00     0.009 A 
HETATM   20  C14 UNK     1      33.076  -5.635  34.278  1.00  0.00     0.001 A 
HETATM   21  C16 UNK     1      32.958  -4.531  35.122  1.00  0.00     0.001 A 
HETATM   22  C12 UNK     1      31.953  -4.495  36.089  1.00  0.00     0.017 A 
HETATM   23  C7  UNK     1      31.065  -5.564  36.212  1.00  0.00     0.055 A 
BRANCH  23  24
HETATM   24  C13 UNK     1      29.997  -5.502  37.254  1.00  0.00     0.418 C 
HETATM   25  F1  UNK     1      28.855  -6.163  36.905  1.00  0.00    -0.166 F 
HETATM   26  F2  UNK     1      30.372  -6.043  38.450  1.00  0.00    -0.166 F 
HETATM   27  F3  UNK     1      29.613  -4.224  37.533  1.00  0.00    -0.166 F 
ENDBRANCH  23  24
ENDBRANCH   5  18
BRANCH  11  28
HETATM   28  N1  UNK     1      31.822 -11.270  35.763  1.00  0.00    -0.379 N 
HETATM   29  H8  UNK     1      31.965 -12.062  35.148  1.00  0.00     0.158 HD
HETATM   30  H9  UNK     1      32.160 -11.299  36.716  1.00  0.00     0.158 HD
ENDBRANCH  11  28
TORSDOF 3
ENDMDL
MODEL 4
REMARK VINA RESULT:      -8.2     16.823     18.065
REMARK  3 active torsions:
REMARK  status: ('A' for Active; 'I' for Inactive)
REMARK    1  A    between atoms: C9_17  and  N1_7 
REMARK    2  A    between atoms: C1_9  and  C3_11 
REMARK    3  A    between atoms: C13_21  and  C7_15 
ROOT
HETATM    1  O1  UNK     1      30.276 -11.685  32.000  1.00  0.00    -0.269 OA
HETATM    2  O2  UNK     1      30.813 -10.995  34.176  1.00  0.00    -0.286 OA
HETATM    3  O3  UNK     1      31.624  -7.216  32.908  1.00  0.00    -0.287 OA
HETATM    4  N2  UNK     1      30.549 -10.071  27.469  1.00  0.00    -0.191 NA
HETATM    5  C1  UNK     1      30.694  -9.072  30.897  1.00  0.00     0.109 C 
HETATM    6  C2  UNK     1      30.884  -9.409  32.360  1.00  0.00     0.065 A 
HETATM    7  C4  UNK     1      30.480 -10.318  30.047  1.00  0.00     0.086 C 
HETATM    8  C5  UNK     1      30.669 -10.649  32.840  1.00  0.00     0.204 A 
HETATM    9  C6  UNK     1      31.350  -8.346  33.289  1.00  0.00     0.197 A 
HETATM   10  C8  UNK     1      31.473  -8.724  34.704  1.00  0.00     0.049 A 
HETATM   11  C9  UNK     1      30.280 -11.528  30.615  1.00  0.00     0.162 C 
HETATM   12  C11 UNK     1      31.195 -10.035  35.074  1.00  0.00     0.092 A 
HETATM   13  C15 UNK     1      31.863  -7.788  35.664  1.00  0.00     0.018 A 
HETATM   14  C17 UNK     1      31.304 -10.422  36.410  1.00  0.00     0.038 A 
HETATM   15  C18 UNK     1      30.518 -10.182  28.624  1.00  0.00     0.100 C 
HETATM   16  C19 UNK     1      31.972  -8.175  37.000  1.00  0.00     0.001 A 
HETATM   17  C20 UNK     1      31.693  -9.490  37.373  1.00  0.00     0.003 A 
ENDROOT
BRANCH   5  18
HETATM   18  C3  UNK     1      29.546  -8.121  30.721  1.00  0.00    -0.029 A 
HETATM   19  C10 UNK     1      28.304  -8.467  31.243  1.00  0.00     0.009 A 
HETATM   20  C14 UNK     1      27.223  -7.599  31.090  1.00  0.00     0.001 A 
HETATM   21  C16 UNK     1      27.390  -6.389  30.415  1.00  0.00     0.001 A 
HETATM   22  C12 UNK     1      28.639  -6.048  29.894  1.00  0.00     0.017 A 
HETATM   23  C7  UNK     1      29.720  -6.917  30.047  1.00  0.00     0.055 A 
BRANCH  23  24
HETATM   24  C13 UNK     1      31.046  -6.529  29.480  1.00  0.00     0.418 C 
HETATM   25  F1  UNK     1      32.104  -6.945  30.235  1.00  0.00    -0.166 F 
HETATM   26  F2  UNK     1      31.274  -7.037  28.234  1.00  0.00    -0.166 F 
HETATM   27  F3  UNK     1      31.188  -5.179  29.359  1.00  0.00    -0.166 F 
ENDBRANCH  23  24
ENDBRANCH   5  18
BRANCH  11  28
HETATM   28  N1  UNK     1      30.065 -12.692  29.931  1.00  0.00    -0.379 N 
HETATM   29  H8  UNK     1      29.847 -13.552  30.419  1.00  0.00     0.158 HD
HETATM   30  H9  UNK     1      30.128 -12.684  28.920  1.00  0.00     0.158 HD
ENDBRANCH  11  28
TORSDOF 3
ENDMDL
MODEL 5
REMARK VINA RESULT:      -8.1     15.570     17.050
REMARK  3 active torsions:
REMARK  status: ('A' for Active; 'I' for Inactive)
REMARK    1  A    between atoms: C9_17  and  N1_7 
REMARK    2  A    between atoms: C1_9  and  C3_11 
REMARK    3  A    between atoms: C13_21  and  C7_15 
ROOT
HETATM    1  O1  UNK     1      28.082  -7.358  35.992  1.00  0.00    -0.269 OA
HETATM    2  O2  UNK     1      28.172  -7.917  33.717  1.00  0.00    -0.286 OA
HETATM    3  O3  UNK     1      31.408  -5.524  33.131  1.00  0.00    -0.287 OA
HETATM    4  N2  UNK     1      30.059  -4.233  39.081  1.00  0.00    -0.191 NA
HETATM    5  C1  UNK     1      30.412  -5.694  35.839  1.00  0.00     0.109 C 
HETATM    6  C2  UNK     1      29.823  -6.431  34.655  1.00  0.00     0.065 A 
HETATM    7  C4  UNK     1      29.501  -5.754  37.058  1.00  0.00     0.086 C 
HETATM    8  C5  UNK     1      28.731  -7.210  34.771  1.00  0.00     0.204 A 
HETATM    9  C6  UNK     1      30.453  -6.264  33.318  1.00  0.00     0.197 A 
HETATM   10  C8  UNK     1      29.863  -7.040  32.218  1.00  0.00     0.049 A 
HETATM   11  C9  UNK     1      28.417  -6.561  37.085  1.00  0.00     0.162 C 
HETATM   12  C11 UNK     1      28.748  -7.830  32.478  1.00  0.00     0.092 A 
HETATM   13  C15 UNK     1      30.406  -6.987  30.932  1.00  0.00     0.018 A 
HETATM   14  C17 UNK     1      28.166  -8.576  31.452  1.00  0.00     0.038 A 
HETATM   15  C18 UNK     1      29.809  -4.915  38.175  1.00  0.00     0.100 C 
HETATM   16  C19 UNK     1      29.824  -7.734  29.908  1.00  0.00     0.001 A 
HETATM   17  C20 UNK     1      28.706  -8.527  30.166  1.00  0.00     0.003 A 
ENDROOT
BRANCH   5  18
HETATM   18  C3  UNK     1      31.769  -6.240  36.177  1.00  0.00    -0.029 A 
HETATM   19  C10 UNK     1      31.890  -7.593  36.477  1.00  0.00     0.009 A 
HETATM   20  C14 UNK     1      33.141  -8.122  36.795  1.00  0.00     0.001 A 
HETATM   21  C16 UNK     1      34.264  -7.294  36.811  1.00  0.00     0.001 A 
HETATM   22  C12 UNK     1      34.136  -5.938  36.509  1.00  0.00     0.017 A 
HETATM   23  C7  UNK     1      32.884  -5.409  36.191  1.00  0.00     0.055 A 
BRANCH  23  24
HETATM   24  C13 UNK     1      32.772  -3.955  35.871  1.00  0.00     0.418 C 
HETATM   25  F1  UNK     1      32.093  -3.701  34.715  1.00  0.00    -0.166 F 
HETATM   26  F2  UNK     1      32.123  -3.235  36.832  1.00  0.00    -0.166 F 
HETATM   27  F3  UNK     1      33.989  -3.357  35.723  1.00  0.00    -0.166 F 
ENDBRANCH  23  24
ENDBRANCH   5  18
BRANCH  11  28
HETATM   28  N1  UNK     1      27.558  -6.688  38.141  1.00  0.00    -0.379 N 
HETATM   29  H8  UNK     1      27.249  -7.600  38.455  1.00  0.00     0.158 HD
HETATM   30  H9  UNK     1      27.230  -5.852  38.608  1.00  0.00     0.158 HD
ENDBRANCH  11  28
TORSDOF 3
ENDMDL
MODEL 6
REMARK VINA RESULT:      -8.0     16.785     18.527
REMARK  3 active torsions:
REMARK  status: ('A' for Active; 'I' for Inactive)
REMARK    1  A    between atoms: C9_17  and  N1_7 
REMARK    2  A    between atoms: C1_9  and  C3_11 
REMARK    3  A    between atoms: C13_21  and  C7_15 
ROOT
HETATM    1  O1  UNK     1      31.716 -10.420  34.190  1.00  0.00    -0.269 OA
HETATM    2  O2  UNK     1      31.331  -9.040  32.334  1.00  0.00    -0.286 OA
HETATM    3  O3  UNK     1      30.026  -6.006  34.708  1.00  0.00    -0.287 OA
HETATM    4  N2  UNK     1      30.838 -10.527  38.926  1.00  0.00    -0.191 NA
HETATM    5  C1  UNK     1      30.933  -8.393  36.061  1.00  0.00     0.109 C 
HETATM    6  C2  UNK     1      30.924  -8.204  34.559  1.00  0.00     0.065 A 
HETATM    7  C4  UNK     1      31.186  -9.844  36.450  1.00  0.00     0.086 C 
HETATM    8  C5  UNK     1      31.307  -9.180  33.714  1.00  0.00     0.204 A 
HETATM    9  C6  UNK     1      30.447  -6.911  34.001  1.00  0.00     0.197 A 
HETATM   10  C8  UNK     1      30.503  -6.772  32.538  1.00  0.00     0.049 A 
HETATM   11  C9  UNK     1      31.560 -10.762  35.532  1.00  0.00     0.162 C 
HETATM   12  C11 UNK     1      30.946  -7.850  31.779  1.00  0.00     0.092 A 
HETATM   13  C15 UNK     1      30.118  -5.582  31.916  1.00  0.00     0.018 A 
HETATM   14  C17 UNK     1      31.008  -7.746  30.389  1.00  0.00     0.038 A 
HETATM   15  C18 UNK     1      30.994 -10.221  37.817  1.00  0.00     0.100 C 
HETATM   16  C19 UNK     1      30.181  -5.479  30.526  1.00  0.00     0.001 A 
HETATM   17  C20 UNK     1      30.625  -6.559  29.764  1.00  0.00     0.003 A 
ENDROOT
BRANCH   5  18
HETATM   18  C3  UNK     1      31.957  -7.500  36.697  1.00  0.00    -0.029 A 
HETATM   19  C10 UNK     1      33.282  -7.600  36.285  1.00  0.00     0.009 A 
HETATM   20  C14 UNK     1      34.251  -6.780  36.864  1.00  0.00     0.001 A 
HETATM   21  C16 UNK     1      33.889  -5.864  37.852  1.00  0.00     0.001 A 
HETATM   22  C12 UNK     1      32.559  -5.768  38.261  1.00  0.00     0.017 A 
HETATM   23  C7  UNK     1      31.590  -6.589  37.682  1.00  0.00     0.055 A 
BRANCH  23  24
HETATM   24  C13 UNK     1      30.173  -6.468  38.137  1.00  0.00     0.418 C 
HETATM   25  F1  UNK     1      29.296  -6.200  37.125  1.00  0.00    -0.166 F 
HETATM   26  F2  UNK     1      29.694  -7.598  38.734  1.00  0.00    -0.166 F 
HETATM   27  F3  UNK     1      30.000  -5.469  39.049  1.00  0.00    -0.166 F 
ENDBRANCH  23  24
ENDBRANCH   5  18
BRANCH  11  28
HETATM   28  N1  UNK     1      31.822 -12.078  35.797  1.00  0.00    -0.379 N 
HETATM   29  H8  UNK     1      31.111 -12.787  35.670  1.00  0.00     0.158 HD
HETATM   30  H9  UNK     1      32.744 -12.336  36.127  1.00  0.00     0.158 HD
ENDBRANCH  11  28
TORSDOF 3
ENDMDL
MODEL 7
REMARK VINA RESULT:      -7.9     15.740     17.536
REMARK  3 active torsions:
REMARK  status: ('A' for Active; 'I' for Inactive)
REMARK    1  A    between atoms: C9_17  and  N1_7 
REMARK    2  A    between atoms: C1_9  and  C3_11 
REMARK    3  A    between atoms: C13_21  and  C7_15 
ROOT
HETATM    1  O1  UNK     1      28.964  -5.883  37.049  1.00  0.00    -0.269 OA
HETATM    2  O2  UNK     1      30.983  -4.818  36.516  1.00  0.00    -0.286 OA
HETATM    3  O3  UNK     1      31.962  -7.738  33.859  1.00  0.00    -0.287 OA
HETATM    4  N2  UNK     1      26.715 -10.076  36.289  1.00  0.00    -0.191 NA
HETATM    5  C1  UNK     1      29.394  -7.997  35.161  1.00  0.00     0.109 C 
HETATM    6  C2  UNK     1      30.370  -6.863  35.394  1.00  0.00     0.065 A 
HETATM    7  C4  UNK     1      28.277  -8.009  36.196  1.00  0.00     0.086 C 
HETATM    8  C5  UNK     1      30.125  -5.884  36.286  1.00  0.00     0.204 A 
HETATM    9  C6  UNK     1      31.649  -6.848  34.637  1.00  0.00     0.197 A 
HETATM   10  C8  UNK     1      32.534  -5.699  34.875  1.00  0.00     0.049 A 
HETATM   11  C9  UNK     1      28.111  -6.985  37.061  1.00  0.00     0.162 C 
HETATM   12  C11 UNK     1      32.151  -4.740  35.806  1.00  0.00     0.092 A 
HETATM   13  C15 UNK     1      33.741  -5.568  34.183  1.00  0.00     0.018 A 
HETATM   14  C17 UNK     1      32.973  -3.638  36.053  1.00  0.00     0.038 A 
HETATM   15  C18 UNK     1      27.415  -9.150  36.247  1.00  0.00     0.100 C 
HETATM   16  C19 UNK     1      34.561  -4.467  34.430  1.00  0.00     0.001 A 
HETATM   17  C20 UNK     1      34.178  -3.504  35.364  1.00  0.00     0.003 A 
ENDROOT
BRANCH   5  18
HETATM   18  C3  UNK     1      28.818  -7.919  33.777  1.00  0.00    -0.029 A 
HETATM   19  C10 UNK     1      28.163  -6.754  33.389  1.00  0.00     0.009 A 
HETATM   20  C14 UNK     1      27.619  -6.660  32.108  1.00  0.00     0.001 A 
HETATM   21  C16 UNK     1      27.734  -7.731  31.222  1.00  0.00     0.001 A 
HETATM   22  C12 UNK     1      28.391  -8.896  31.617  1.00  0.00     0.017 A 
HETATM   23  C7  UNK     1      28.935  -8.991  32.898  1.00  0.00     0.055 A 
BRANCH  23  24
HETATM   24  C13 UNK     1      29.635 -10.248  33.298  1.00  0.00     0.418 C 
HETATM   25  F1  UNK     1      30.993 -10.174  33.190  1.00  0.00    -0.166 F 
HETATM   26  F2  UNK     1      29.398 -10.615  34.591  1.00  0.00    -0.166 F 
HETATM   27  F3  UNK     1      29.262 -11.317  32.538  1.00  0.00    -0.166 F 
ENDBRANCH  23  24
ENDBRANCH   5  18
BRANCH  11  28
HETATM   28  N1  UNK     1      27.128  -6.907  38.009  1.00  0.00    -0.379 N 
HETATM   29  H8  UNK     1      26.468  -6.140  38.014  1.00  0.00     0.158 HD
HETATM   30  H9  UNK     1      27.069  -7.633  38.712  1.00  0.00     0.158 HD
ENDBRANCH  11  28
TORSDOF 3
ENDMDL
MODEL 8
REMARK VINA RESULT:      -7.9     15.797     17.042
REMARK  3 active torsions:
REMARK  status: ('A' for Active; 'I' for Inactive)
REMARK    1  A    between atoms: C9_17  and  N1_7 
REMARK    2  A    between atoms: C1_9  and  C3_11 
REMARK    3  A    between atoms: C13_21  and  C7_15 
ROOT
HETATM    1  O1  UNK     1      27.674  -8.655  35.408  1.00  0.00    -0.269 OA
HETATM    2  O2  UNK     1      28.293  -8.415  33.159  1.00  0.00    -0.286 OA
HETATM    3  O3  UNK     1      30.798  -5.337  34.051  1.00  0.00    -0.287 OA
HETATM    4  N2  UNK     1      28.171  -6.359  39.614  1.00  0.00    -0.191 NA
HETATM    5  C1  UNK     1      29.449  -6.581  36.284  1.00  0.00     0.109 C 
HETATM    6  C2  UNK     1      29.292  -7.001  34.838  1.00  0.00     0.065 A 
HETATM    7  C4  UNK     1      28.399  -7.223  37.181  1.00  0.00     0.086 C 
HETATM    8  C5  UNK     1      28.452  -7.987  34.469  1.00  0.00     0.204 A 
HETATM    9  C6  UNK     1      30.066  -6.282  33.792  1.00  0.00     0.197 A 
HETATM   10  C8  UNK     1      29.904  -6.766  32.413  1.00  0.00     0.049 A 
HETATM   11  C9  UNK     1      27.590  -8.204  36.723  1.00  0.00     0.162 C 
HETATM   12  C11 UNK     1      29.022  -7.813  32.170  1.00  0.00     0.092 A 
HETATM   13  C15 UNK     1      30.619  -6.186  31.362  1.00  0.00     0.018 A 
HETATM   14  C17 UNK     1      28.848  -8.291  30.870  1.00  0.00     0.038 A 
HETATM   15  C18 UNK     1      28.273  -6.746  38.524  1.00  0.00     0.100 C 
HETATM   16  C19 UNK     1      30.444  -6.665  30.064  1.00  0.00     0.001 A 
HETATM   17  C20 UNK     1      29.560  -7.715  29.817  1.00  0.00     0.003 A 
ENDROOT
BRANCH   5  18
HETATM   18  C3  UNK     1      30.827  -6.909  36.780  1.00  0.00    -0.029 A 
HETATM   19  C10 UNK     1      31.322  -8.193  36.579  1.00  0.00     0.009 A 
HETATM   20  C14 UNK     1      32.600  -8.520  37.034  1.00  0.00     0.001 A 
HETATM   21  C16 UNK     1      33.375  -7.561  37.686  1.00  0.00     0.001 A 
HETATM   22  C12 UNK     1      32.872  -6.275  37.885  1.00  0.00     0.017 A 
HETATM   23  C7  UNK     1      31.593  -5.948  37.431  1.00  0.00     0.055 A 
BRANCH  23  24
HETATM   24  C13 UNK     1      31.077  -4.565  37.655  1.00  0.00     0.418 C 
HETATM   25  F1  UNK     1      29.937  -4.288  36.956  1.00  0.00    -0.166 F 
HETATM   26  F2  UNK     1      30.769  -4.304  38.959  1.00  0.00    -0.166 F 
HETATM   27  F3  UNK     1      31.975  -3.606  37.290  1.00  0.00    -0.166 F 
ENDBRANCH  23  24
ENDBRANCH   5  18
BRANCH  11  28
HETATM   28  N1  UNK     1      26.634  -8.844  37.463  1.00  0.00    -0.379 N 
HETATM   29  H8  UNK     1      26.583  -9.855  37.487  1.00  0.00     0.158 HD
HETATM   30  H9  UNK     1      25.971  -8.290  37.990  1.00  0.00     0.158 HD
ENDBRANCH  11  28
TORSDOF 3
ENDMDL
MODEL 9
REMARK VINA RESULT:      -7.8     16.694     18.263
REMARK  3 active torsions:
REMARK  status: ('A' for Active; 'I' for Inactive)
REMARK    1  A    between atoms: C9_17  and  N1_7 
REMARK    2  A    between atoms: C1_9  and  C3_11 
REMARK    3  A    between atoms: C13_21  and  C7_15 
ROOT
HETATM    1  O1  UNK     1      31.618  -5.177  36.796  1.00  0.00    -0.269 OA
HETATM    2  O2  UNK     1      33.738  -5.799  36.012  1.00  0.00    -0.286 OA
HETATM    3  O3  UNK     1      32.223  -9.089  34.161  1.00  0.00    -0.287 OA
HETATM    4  N2  UNK     1      27.153  -6.961  37.105  1.00  0.00    -0.191 NA
HETATM    5  C1  UNK     1      30.315  -7.373  35.491  1.00  0.00     0.109 C 
HETATM    6  C2  UNK     1      31.807  -7.123  35.434  1.00  0.00     0.065 A 
HETATM    7  C4  UNK     1      29.623  -6.464  36.499  1.00  0.00     0.086 C 
HETATM    8  C5  UNK     1      32.379  -6.074  36.055  1.00  0.00     0.204 A 
HETATM    9  C6  UNK     1      32.669  -8.083  34.695  1.00  0.00     0.197 A 
HETATM   10  C8  UNK     1      34.102  -7.762  34.638  1.00  0.00     0.049 A 
HETATM   11  C9  UNK     1      30.279  -5.436  37.083  1.00  0.00     0.162 C 
HETATM   12  C11 UNK     1      34.562  -6.630  35.303  1.00  0.00     0.092 A 
HETATM   13  C15 UNK     1      34.992  -8.577  33.933  1.00  0.00     0.018 A 
HETATM   14  C17 UNK     1      35.919  -6.302  35.267  1.00  0.00     0.038 A 
HETATM   15  C18 UNK     1      28.260  -6.738  36.834  1.00  0.00     0.100 C 
HETATM   16  C19 UNK     1      36.347  -8.248  33.898  1.00  0.00     0.001 A 
HETATM   17  C20 UNK     1      36.810  -7.113  34.563  1.00  0.00     0.003 A 
ENDROOT
BRANCH   5  18
HETATM   18  C3  UNK     1      29.701  -7.202  34.132  1.00  0.00    -0.029 A 
HETATM   19  C10 UNK     1      29.905  -6.007  33.451  1.00  0.00     0.009 A 
HETATM   20  C14 UNK     1      29.342  -5.827  32.186  1.00  0.00     0.001 A 
HETATM   21  C16 UNK     1      28.579  -6.843  31.612  1.00  0.00     0.001 A 
HETATM   22  C12 UNK     1      28.377  -8.039  32.301  1.00  0.00     0.017 A 
HETATM   23  C7  UNK     1      28.940  -8.219  33.566  1.00  0.00     0.055 A 
BRANCH  23  24
HETATM   24  C13 UNK     1      28.711  -9.508  34.283  1.00  0.00     0.418 C 
HETATM   25  F1  UNK     1      29.760  -9.889  35.070  1.00  0.00    -0.166 F 
HETATM   26  F2  UNK     1      27.630  -9.482  35.117  1.00  0.00    -0.166 F 
HETATM   27  F3  UNK     1      28.492 -10.550  33.431  1.00  0.00    -0.166 F 
ENDBRANCH  23  24
ENDBRANCH   5  18
BRANCH  11  28
HETATM   28  N1  UNK     1      29.732  -4.564  37.984  1.00  0.00    -0.379 N 
HETATM   29  H8  UNK     1      28.912  -4.816  38.521  1.00  0.00     0.158 HD
HETATM   30  H9  UNK     1      30.160  -3.655  38.106  1.00  0.00     0.158 HD
ENDBRANCH  11  28
TORSDOF 3
ENDMDL
MODEL 10
REMARK VINA RESULT:      -7.8     22.486     24.293
REMARK  3 active torsions:
REMARK  status: ('A' for Active; 'I' for Inactive)
REMARK    1  A    between atoms: C9_17  and  N1_7 
REMARK    2  A    between atoms: C1_9  and  C3_11 
REMARK    3  A    between atoms: C13_21  and  C7_15 
ROOT
HETATM    1  O1  UNK     1      11.152   8.431   8.530  1.00  0.00    -0.269 OA
HETATM    2  O2  UNK     1      10.273   9.926  10.107  1.00  0.00    -0.286 OA
HETATM    3  O3  UNK     1      13.606   9.637  12.420  1.00  0.00    -0.287 OA
HETATM    4  N2  UNK     1      14.861   5.399   8.021  1.00  0.00    -0.191 NA
HETATM    5  C1  UNK     1      13.631   8.149   9.942  1.00  0.00     0.109 C 
HETATM    6  C2  UNK     1      12.485   9.017  10.416  1.00  0.00     0.065 A 
HETATM    7  C4  UNK     1      13.233   7.275   8.760  1.00  0.00     0.086 C 
HETATM    8  C5  UNK     1      11.339   9.128   9.718  1.00  0.00     0.204 A 
HETATM    9  C6  UNK     1      12.618   9.743  11.707  1.00  0.00     0.197 A 
HETATM   10  C8  UNK     1      11.489  10.603  12.090  1.00  0.00     0.049 A 
HETATM   11  C9  UNK     1      12.055   7.452   8.122  1.00  0.00     0.162 C 
HETATM   12  C11 UNK     1      10.371  10.650  11.265  1.00  0.00     0.092 A 
HETATM   13  C15 UNK     1      11.533  11.361  13.263  1.00  0.00     0.018 A 
HETATM   14  C17 UNK     1       9.285  11.457  11.605  1.00  0.00     0.038 A 
HETATM   15  C18 UNK     1      14.132   6.239   8.352  1.00  0.00     0.100 C 
HETATM   16  C19 UNK     1      10.446  12.168  13.602  1.00  0.00     0.001 A 
HETATM   17  C20 UNK     1       9.324  12.216  12.775  1.00  0.00     0.003 A 
ENDROOT
BRANCH   5  18
HETATM   18  C3  UNK     1      14.818   8.995   9.585  1.00  0.00    -0.029 A 
HETATM   19  C10 UNK     1      14.658  10.011   8.648  1.00  0.00     0.009 A 
HETATM   20  C14 UNK     1      15.749  10.809   8.300  1.00  0.00     0.001 A 
HETATM   21  C16 UNK     1      16.993  10.586   8.892  1.00  0.00     0.001 A 
HETATM   22  C12 UNK     1      17.146   9.566   9.830  1.00  0.00     0.017 A 
HETATM   23  C7  UNK     1      16.056   8.768  10.178  1.00  0.00     0.055 A 
BRANCH  23  24
HETATM   24  C13 UNK     1      16.244   7.682  11.185  1.00  0.00     0.418 C 
HETATM   25  F1  UNK     1      15.883   8.043  12.451  1.00  0.00    -0.166 F 
HETATM   26  F2  UNK     1      15.522   6.556  10.914  1.00  0.00    -0.166 F 
HETATM   27  F3  UNK     1      17.542   7.272  11.275  1.00  0.00    -0.166 F 
ENDBRANCH  23  24
ENDBRANCH   5  18
BRANCH  11  28
HETATM   28  N1  UNK     1      11.627   6.724   7.046  1.00  0.00    -0.379 N 
HETATM   29  H8  UNK     1      10.975   7.116   6.378  1.00  0.00     0.158 HD
HETATM   30  H9  UNK     1      11.972   5.780   6.926  1.00  0.00     0.158 HD
ENDBRANCH  11  28
TORSDOF 3
ENDMDL
