MODEL 1
REMARK VINA RESULT:      -9.9      0.000      0.000
REMARK  4 active torsions:
REMARK  status: ('A' for Active; 'I' for Inactive)
REMARK    1  A    between atoms: C17_21  and  O2_2 
REMARK    2  A    between atoms: C5_9  and  O2_2 
REMARK    3  A    between atoms: C3_7  and  C7_11 
REMARK    4  A    between atoms: C17_21  and  C18_22 
ROOT
HETATM    1  O1  UNK     1      18.872   0.259  31.425  1.00  0.00    -0.274 OA
HETATM    2  O3  UNK     1      19.166  -2.003  31.579  1.00  0.00    -0.260 OA
HETATM    3  C1  UNK     1      18.366   1.530  33.444  1.00  0.00     0.010 A 
HETATM    4  C2  UNK     1      18.595   1.479  32.070  1.00  0.00     0.099 A 
HETATM    5  C3  UNK     1      18.412   0.286  34.226  1.00  0.00    -0.007 A 
HETATM    6  C4  UNK     1      18.564   2.623  31.270  1.00  0.00     0.007 A 
HETATM    7  C5  UNK     1      18.296   3.855  31.857  1.00  0.00     0.088 A 
HETATM    8  C6  UNK     1      18.098   2.780  34.020  1.00  0.00     0.018 A 
HETATM    9  C8  UNK     1      18.064   3.934  33.230  1.00  0.00     0.039 A 
HETATM   10  C9  UNK     1      18.678  -0.861  33.581  1.00  0.00     0.095 A 
HETATM   11  C10 UNK     1      18.815   2.529  29.800  1.00  0.00     0.054 C 
HETATM   12  C11 UNK     1      18.926  -0.933  32.129  1.00  0.00     0.289 A 
ENDROOT
BRANCH   7  13
HETATM   13  O2  UNK     1      18.257   4.992  31.109  1.00  0.00    -0.274 OA
BRANCH  13  14
HETATM   14  C17 UNK     1      19.356   5.836  31.286  1.00  0.00     0.298 C 
HETATM   15  O4  UNK     1      20.417   5.757  30.684  1.00  0.00    -0.259 OA
BRANCH  14  16
HETATM   16  C18 UNK     1      19.077   6.876  32.308  1.00  0.00     0.039 A 
HETATM   17  C19 UNK     1      17.864   7.532  32.277  1.00  0.00     0.017 A 
HETATM   18  C21 UNK     1      17.602   8.510  33.237  1.00  0.00     0.001 A 
HETATM   19  C23 UNK     1      18.558   8.808  34.209  1.00  0.00     0.000 A 
HETATM   20  C22 UNK     1      19.776   8.128  34.219  1.00  0.00     0.001 A 
HETATM   21  C20 UNK     1      20.038   7.152  33.258  1.00  0.00     0.017 A 
ENDBRANCH  14  16
ENDBRANCH  13  14
ENDBRANCH   7  13
BRANCH   5  22
HETATM   22  C7  UNK     1      18.195   0.165  35.665  1.00  0.00    -0.025 A 
HETATM   23  C12 UNK     1      18.313  -1.078  36.280  1.00  0.00     0.012 A 
HETATM   24  C14 UNK     1      18.106  -1.193  37.655  1.00  0.00     0.001 A 
HETATM   25  C16 UNK     1      17.783  -0.064  38.409  1.00  0.00     0.000 A 
HETATM   26  C15 UNK     1      17.667   1.179  37.789  1.00  0.00     0.001 A 
HETATM   27  C13 UNK     1      17.874   1.294  36.414  1.00  0.00     0.012 A 
ENDBRANCH   5  22
TORSDOF 4
ENDMDL
MODEL 2
REMARK VINA RESULT:      -9.5     24.002     25.896
REMARK  4 active torsions:
REMARK  status: ('A' for Active; 'I' for Inactive)
REMARK    1  A    between atoms: C17_21  and  O2_2 
REMARK    2  A    between atoms: C5_9  and  O2_2 
REMARK    3  A    between atoms: C3_7  and  C7_11 
REMARK    4  A    between atoms: C17_21  and  C18_22 
ROOT
HETATM    1  O1  UNK     1      15.771   6.090   9.835  1.00  0.00    -0.274 OA
HETATM    2  O3  UNK     1      15.491   3.822   9.890  1.00  0.00    -0.260 OA
HETATM    3  C1  UNK     1      14.023   7.478   8.852  1.00  0.00     0.010 A 
HETATM    4  C2  UNK     1      15.262   7.353   9.476  1.00  0.00     0.099 A 
HETATM    5  C3  UNK     1      13.239   6.267   8.564  1.00  0.00    -0.007 A 
HETATM    6  C4  UNK     1      16.057   8.460   9.776  1.00  0.00     0.007 A 
HETATM    7  C5  UNK     1      15.601   9.732   9.444  1.00  0.00     0.088 A 
HETATM    8  C6  UNK     1      13.578   8.766   8.524  1.00  0.00     0.018 A 
HETATM    9  C8  UNK     1      14.364   9.885   8.819  1.00  0.00     0.039 A 
HETATM   10  C9  UNK     1      13.752   5.078   8.918  1.00  0.00     0.095 A 
HETATM   11  C10 UNK     1      17.381   8.287  10.446  1.00  0.00     0.054 C 
HETATM   12  C11 UNK     1      15.060   4.928   9.582  1.00  0.00     0.289 A 
ENDROOT
BRANCH   7  13
HETATM   13  O2  UNK     1      16.348  10.837   9.720  1.00  0.00    -0.274 OA
BRANCH  13  14
HETATM   14  C17 UNK     1      17.014  11.373   8.616  1.00  0.00     0.298 C 
HETATM   15  O4  UNK     1      16.503  11.642   7.539  1.00  0.00    -0.259 OA
BRANCH  14  16
HETATM   16  C18 UNK     1      18.452  11.596   8.911  1.00  0.00     0.039 A 
HETATM   17  C19 UNK     1      18.856  11.680  10.227  1.00  0.00     0.017 A 
HETATM   18  C21 UNK     1      20.208  11.890  10.505  1.00  0.00     0.001 A 
HETATM   19  C23 UNK     1      21.124  12.011   9.460  1.00  0.00     0.000 A 
HETATM   20  C22 UNK     1      20.690  11.922   8.138  1.00  0.00     0.001 A 
HETATM   21  C20 UNK     1      19.338  11.712   7.861  1.00  0.00     0.017 A 
ENDBRANCH  14  16
ENDBRANCH  13  14
ENDBRANCH   7  13
BRANCH   5  22
HETATM   22  C7  UNK     1      11.930   6.223   7.918  1.00  0.00    -0.025 A 
HETATM   23  C12 UNK     1      10.776   6.183   8.696  1.00  0.00     0.012 A 
HETATM   24  C14 UNK     1       9.526   6.141   8.079  1.00  0.00     0.001 A 
HETATM   25  C16 UNK     1       9.434   6.140   6.687  1.00  0.00     0.000 A 
HETATM   26  C15 UNK     1      10.592   6.180   5.911  1.00  0.00     0.001 A 
HETATM   27  C13 UNK     1      11.843   6.222   6.528  1.00  0.00     0.012 A 
ENDBRANCH   5  22
TORSDOF 4
ENDMDL
MODEL 3
REMARK VINA RESULT:      -9.5      1.861      2.955
REMARK  4 active torsions:
REMARK  status: ('A' for Active; 'I' for Inactive)
REMARK    1  A    between atoms: C17_21  and  O2_2 
REMARK    2  A    between atoms: C5_9  and  O2_2 
REMARK    3  A    between atoms: C3_7  and  C7_11 
REMARK    4  A    between atoms: C17_21  and  C18_22 
ROOT
HETATM    1  O1  UNK     1      18.913   3.105  30.762  1.00  0.00    -0.274 OA
HETATM    2  O3  UNK     1      19.268   0.938  30.127  1.00  0.00    -0.260 OA
HETATM    3  C1  UNK     1      18.166   3.568  33.037  1.00  0.00     0.010 A 
HETATM    4  C2  UNK     1      18.532   4.013  31.768  1.00  0.00     0.099 A 
HETATM    5  C3  UNK     1      18.177   2.125  33.323  1.00  0.00    -0.007 A 
HETATM    6  C4  UNK     1      18.542   5.367  31.431  1.00  0.00     0.007 A 
HETATM    7  C5  UNK     1      18.175   6.308  32.389  1.00  0.00     0.088 A 
HETATM    8  C6  UNK     1      17.799   4.528  33.990  1.00  0.00     0.018 A 
HETATM    9  C8  UNK     1      17.805   5.889  33.666  1.00  0.00     0.039 A 
HETATM   10  C9  UNK     1      18.544   1.285  32.341  1.00  0.00     0.095 A 
HETATM   11  C10 UNK     1      18.940   5.807  30.060  1.00  0.00     0.054 C 
HETATM   12  C11 UNK     1      18.937   1.739  30.995  1.00  0.00     0.289 A 
ENDROOT
BRANCH   7  13
HETATM   13  O2  UNK     1      18.171   7.638  32.097  1.00  0.00    -0.274 OA
BRANCH  13  14
HETATM   14  C17 UNK     1      16.921   8.145  31.736  1.00  0.00     0.298 C 
HETATM   15  O4  UNK     1      16.416   8.068  30.627  1.00  0.00    -0.259 OA
BRANCH  14  16
HETATM   16  C18 UNK     1      16.252   8.797  32.891  1.00  0.00     0.039 A 
HETATM   17  C19 UNK     1      14.953   8.446  33.193  1.00  0.00     0.017 A 
HETATM   18  C21 UNK     1      14.324   9.059  34.278  1.00  0.00     0.001 A 
HETATM   19  C23 UNK     1      15.009  10.008  35.036  1.00  0.00     0.000 A 
HETATM   20  C22 UNK     1      16.323  10.344  34.710  1.00  0.00     0.001 A 
HETATM   21  C20 UNK     1      16.951   9.732  33.625  1.00  0.00     0.017 A 
ENDBRANCH  14  16
ENDBRANCH  13  14
ENDBRANCH   7  13
BRANCH   5  22
HETATM   22  C7  UNK     1      17.823   1.496  34.592  1.00  0.00    -0.025 A 
HETATM   23  C12 UNK     1      18.571   1.771  35.733  1.00  0.00     0.012 A 
HETATM   24  C14 UNK     1      18.232   1.171  36.945  1.00  0.00     0.001 A 
HETATM   25  C16 UNK     1      17.145   0.299  37.012  1.00  0.00     0.000 A 
HETATM   26  C15 UNK     1      16.398   0.026  35.867  1.00  0.00     0.001 A 
HETATM   27  C13 UNK     1      16.737   0.627  34.655  1.00  0.00     0.012 A 
ENDBRANCH   5  22
TORSDOF 4
ENDMDL
MODEL 4
REMARK VINA RESULT:      -9.4      4.765      9.599
REMARK  4 active torsions:
REMARK  status: ('A' for Active; 'I' for Inactive)
REMARK    1  A    between atoms: C17_21  and  O2_2 
REMARK    2  A    between atoms: C5_9  and  O2_2 
REMARK    3  A    between atoms: C3_7  and  C7_11 
REMARK    4  A    between atoms: C17_21  and  C18_22 
ROOT
HETATM    1  O1  UNK     1      17.416  -0.551  35.489  1.00  0.00    -0.274 OA
HETATM    2  O3  UNK     1      15.975   0.887  34.449  1.00  0.00    -0.260 OA
HETATM    3  C1  UNK     1      19.259  -1.513  34.214  1.00  0.00     0.010 A 
HETATM    4  C2  UNK     1      18.551  -1.380  35.406  1.00  0.00     0.099 A 
HETATM    5  C3  UNK     1      18.808  -0.775  33.025  1.00  0.00    -0.007 A 
HETATM    6  C4  UNK     1      18.925  -2.053  36.571  1.00  0.00     0.007 A 
HETATM    7  C5  UNK     1      20.040  -2.885  36.545  1.00  0.00     0.088 A 
HETATM    8  C6  UNK     1      20.380  -2.354  34.205  1.00  0.00     0.018 A 
HETATM    9  C8  UNK     1      20.767  -3.035  35.364  1.00  0.00     0.039 A 
HETATM   10  C9  UNK     1      17.721   0.007  33.136  1.00  0.00     0.095 A 
HETATM   11  C10 UNK     1      18.141  -1.886  37.831  1.00  0.00     0.054 C 
HETATM   12  C11 UNK     1      16.962   0.162  34.390  1.00  0.00     0.289 A 
ENDROOT
BRANCH   7  13
HETATM   13  O2  UNK     1      20.435  -3.559  37.660  1.00  0.00    -0.274 OA
BRANCH  13  14
HETATM   14  C17 UNK     1      20.940  -4.838  37.412  1.00  0.00     0.298 C 
HETATM   15  O4  UNK     1      22.064  -5.226  37.693  1.00  0.00    -0.259 OA
BRANCH  14  16
HETATM   16  C18 UNK     1      19.921  -5.700  36.760  1.00  0.00     0.039 A 
HETATM   17  C19 UNK     1      20.280  -6.430  35.647  1.00  0.00     0.017 A 
HETATM   18  C21 UNK     1      19.323  -7.240  35.034  1.00  0.00     0.001 A 
HETATM   19  C23 UNK     1      18.028  -7.301  35.549  1.00  0.00     0.000 A 
HETATM   20  C22 UNK     1      17.690  -6.552  36.677  1.00  0.00     0.001 A 
HETATM   21  C20 UNK     1      18.648  -5.743  37.289  1.00  0.00     0.017 A 
ENDBRANCH  14  16
ENDBRANCH  13  14
ENDBRANCH   7  13
BRANCH   5  22
HETATM   22  C7  UNK     1      19.433  -0.803  31.705  1.00  0.00    -0.025 A 
HETATM   23  C12 UNK     1      19.595   0.380  30.991  1.00  0.00     0.012 A 
HETATM   24  C14 UNK     1      20.192   0.352  29.730  1.00  0.00     0.001 A 
HETATM   25  C16 UNK     1      20.625  -0.859  29.190  1.00  0.00     0.000 A 
HETATM   26  C15 UNK     1      20.461  -2.042  29.909  1.00  0.00     0.001 A 
HETATM   27  C13 UNK     1      19.864  -2.014  31.170  1.00  0.00     0.012 A 
ENDBRANCH   5  22
TORSDOF 4
ENDMDL
MODEL 5
REMARK VINA RESULT:      -9.4      4.464     10.072
REMARK  4 active torsions:
REMARK  status: ('A' for Active; 'I' for Inactive)
REMARK    1  A    between atoms: C17_21  and  O2_2 
REMARK    2  A    between atoms: C5_9  and  O2_2 
REMARK    3  A    between atoms: C3_7  and  C7_11 
REMARK    4  A    between atoms: C17_21  and  C18_22 
ROOT
HETATM    1  O1  UNK     1      17.909  -0.125  35.507  1.00  0.00    -0.274 OA
HETATM    2  O3  UNK     1      16.816   1.655  34.580  1.00  0.00    -0.260 OA
HETATM    3  C1  UNK     1      19.389  -1.468  34.109  1.00  0.00     0.010 A 
HETATM    4  C2  UNK     1      18.798  -1.204  35.343  1.00  0.00     0.099 A 
HETATM    5  C3  UNK     1      19.072  -0.604  32.962  1.00  0.00    -0.007 A 
HETATM    6  C4  UNK     1      19.055  -1.985  36.472  1.00  0.00     0.007 A 
HETATM    7  C5  UNK     1      19.927  -3.064  36.365  1.00  0.00     0.088 A 
HETATM    8  C6  UNK     1      20.266  -2.558  34.020  1.00  0.00     0.018 A 
HETATM    9  C8  UNK     1      20.532  -3.350  35.142  1.00  0.00     0.039 A 
HETATM   10  C9  UNK     1      18.220   0.416  33.151  1.00  0.00     0.095 A 
HETATM   11  C10 UNK     1      18.403  -1.672  37.778  1.00  0.00     0.054 C 
HETATM   12  C11 UNK     1      17.589   0.712  34.450  1.00  0.00     0.289 A 
ENDROOT
BRANCH   7  13
HETATM   13  O2  UNK     1      20.202  -3.850  37.443  1.00  0.00    -0.274 OA
BRANCH  13  14
HETATM   14  C17 UNK     1      19.721  -5.157  37.340  1.00  0.00     0.298 C 
HETATM   15  O4  UNK     1      18.773  -5.515  36.657  1.00  0.00    -0.259 OA
BRANCH  14  16
HETATM   16  C18 UNK     1      20.524  -6.092  38.169  1.00  0.00     0.039 A 
HETATM   17  C19 UNK     1      19.896  -7.171  38.754  1.00  0.00     0.017 A 
HETATM   18  C21 UNK     1      20.651  -8.049  39.533  1.00  0.00     0.001 A 
HETATM   19  C23 UNK     1      22.017  -7.827  39.710  1.00  0.00     0.000 A 
HETATM   20  C22 UNK     1      22.628  -6.728  39.107  1.00  0.00     0.001 A 
HETATM   21  C20 UNK     1      21.873  -5.850  38.328  1.00  0.00     0.017 A 
ENDBRANCH  14  16
ENDBRANCH  13  14
ENDBRANCH   7  13
BRANCH   5  22
HETATM   22  C7  UNK     1      19.601  -0.742  31.608  1.00  0.00    -0.025 A 
HETATM   23  C12 UNK     1      19.704   0.377  30.788  1.00  0.00     0.012 A 
HETATM   24  C14 UNK     1      20.210   0.244  29.495  1.00  0.00     0.001 A 
HETATM   25  C16 UNK     1      20.611  -1.007  29.027  1.00  0.00     0.000 A 
HETATM   26  C15 UNK     1      20.507  -2.126  29.853  1.00  0.00     0.001 A 
HETATM   27  C13 UNK     1      20.001  -1.994  31.146  1.00  0.00     0.012 A 
ENDBRANCH   5  22
TORSDOF 4
ENDMDL
MODEL 6
REMARK VINA RESULT:      -9.2     12.106     14.268
REMARK  4 active torsions:
REMARK  status: ('A' for Active; 'I' for Inactive)
REMARK    1  A    between atoms: C17_21  and  O2_2 
REMARK    2  A    between atoms: C5_9  and  O2_2 
REMARK    3  A    between atoms: C3_7  and  C7_11 
REMARK    4  A    between atoms: C17_21  and  C18_22 
ROOT
HETATM    1  O1  UNK     1      25.184 -10.883  36.359  1.00  0.00    -0.274 OA
HETATM    2  O3  UNK     1      24.360 -12.544  35.022  1.00  0.00    -0.260 OA
HETATM    3  C1  UNK     1      23.657  -9.191  37.227  1.00  0.00     0.010 A 
HETATM    4  C2  UNK     1      24.940  -9.724  37.120  1.00  0.00     0.099 A 
HETATM    5  C3  UNK     1      22.545  -9.852  36.529  1.00  0.00    -0.007 A 
HETATM    6  C4  UNK     1      26.040  -9.145  37.756  1.00  0.00     0.007 A 
HETATM    7  C5  UNK     1      25.855  -7.999  38.522  1.00  0.00     0.088 A 
HETATM    8  C6  UNK     1      23.488  -8.036  38.003  1.00  0.00     0.018 A 
HETATM    9  C8  UNK     1      24.581  -7.445  38.646  1.00  0.00     0.039 A 
HETATM   10  C9  UNK     1      22.811 -10.955  35.810  1.00  0.00     0.095 A 
HETATM   11  C10 UNK     1      27.401  -9.745  37.618  1.00  0.00     0.054 C 
HETATM   12  C11 UNK     1      24.161 -11.534  35.689  1.00  0.00     0.289 A 
ENDROOT
BRANCH   7  13
HETATM   13  O2  UNK     1      26.903  -7.405  39.157  1.00  0.00    -0.274 OA
BRANCH  13  14
HETATM   14  C17 UNK     1      27.098  -6.064  38.817  1.00  0.00     0.298 C 
HETATM   15  O4  UNK     1      26.216  -5.231  38.677  1.00  0.00    -0.259 OA
BRANCH  14  16
HETATM   16  C18 UNK     1      28.541  -5.756  38.653  1.00  0.00     0.039 A 
HETATM   17  C19 UNK     1      28.948  -4.439  38.673  1.00  0.00     0.017 A 
HETATM   18  C21 UNK     1      30.304  -4.149  38.519  1.00  0.00     0.001 A 
HETATM   19  C23 UNK     1      31.223  -5.184  38.348  1.00  0.00     0.000 A 
HETATM   20  C22 UNK     1      30.786  -6.509  38.331  1.00  0.00     0.001 A 
HETATM   21  C20 UNK     1      29.430  -6.798  38.486  1.00  0.00     0.017 A 
ENDBRANCH  14  16
ENDBRANCH  13  14
ENDBRANCH   7  13
BRANCH   5  22
HETATM   22  C7  UNK     1      21.148  -9.424  36.537  1.00  0.00    -0.025 A 
HETATM   23  C12 UNK     1      20.229 -10.080  37.350  1.00  0.00     0.012 A 
HETATM   24  C14 UNK     1      18.895  -9.671  37.357  1.00  0.00     0.001 A 
HETATM   25  C16 UNK     1      18.487  -8.608  36.552  1.00  0.00     0.000 A 
HETATM   26  C15 UNK     1      19.411  -7.954  35.739  1.00  0.00     0.001 A 
HETATM   27  C13 UNK     1      20.745  -8.363  35.731  1.00  0.00     0.012 A 
ENDBRANCH   5  22
TORSDOF 4
ENDMDL
MODEL 7
REMARK VINA RESULT:      -9.2      1.493      2.132
REMARK  4 active torsions:
REMARK  status: ('A' for Active; 'I' for Inactive)
REMARK    1  A    between atoms: C17_21  and  O2_2 
REMARK    2  A    between atoms: C5_9  and  O2_2 
REMARK    3  A    between atoms: C3_7  and  C7_11 
REMARK    4  A    between atoms: C17_21  and  C18_22 
ROOT
HETATM    1  O1  UNK     1      19.382  -0.079  30.620  1.00  0.00    -0.274 OA
HETATM    2  O3  UNK     1      20.085  -2.224  30.255  1.00  0.00    -0.260 OA
HETATM    3  C1  UNK     1      18.735   0.589  32.875  1.00  0.00     0.010 A 
HETATM    4  C2  UNK     1      18.915   0.892  31.527  1.00  0.00     0.099 A 
HETATM    5  C3  UNK     1      19.036  -0.768  33.353  1.00  0.00    -0.007 A 
HETATM    6  C4  UNK     1      18.647   2.160  31.008  1.00  0.00     0.007 A 
HETATM    7  C5  UNK     1      18.185   3.158  31.861  1.00  0.00     0.088 A 
HETATM    8  C6  UNK     1      18.269   1.606  33.720  1.00  0.00     0.018 A 
HETATM    9  C8  UNK     1      17.997   2.881  33.215  1.00  0.00     0.039 A 
HETATM   10  C9  UNK     1      19.478  -1.672  32.463  1.00  0.00     0.095 A 
HETATM   11  C10 UNK     1      18.852   2.447  29.557  1.00  0.00     0.054 C 
HETATM   12  C11 UNK     1      19.678  -1.369  31.034  1.00  0.00     0.289 A 
ENDROOT
BRANCH   7  13
HETATM   13  O2  UNK     1      17.912   4.407  31.392  1.00  0.00    -0.274 OA
BRANCH  13  14
HETATM   14  C17 UNK     1      18.556   5.435  32.083  1.00  0.00     0.298 C 
HETATM   15  O4  UNK     1      19.757   5.658  32.067  1.00  0.00    -0.259 OA
BRANCH  14  16
HETATM   16  C18 UNK     1      17.587   6.256  32.851  1.00  0.00     0.039 A 
HETATM   17  C19 UNK     1      17.931   6.684  34.116  1.00  0.00     0.017 A 
HETATM   18  C21 UNK     1      17.020   7.456  34.838  1.00  0.00     0.001 A 
HETATM   19  C23 UNK     1      15.784   7.782  34.278  1.00  0.00     0.000 A 
HETATM   20  C22 UNK     1      15.460   7.337  32.997  1.00  0.00     0.001 A 
HETATM   21  C20 UNK     1      16.372   6.565  32.275  1.00  0.00     0.017 A 
ENDBRANCH  14  16
ENDBRANCH  13  14
ENDBRANCH   7  13
BRANCH   5  22
HETATM   22  C7  UNK     1      18.902  -1.247  34.726  1.00  0.00    -0.025 A 
HETATM   23  C12 UNK     1      17.752  -0.951  35.452  1.00  0.00     0.012 A 
HETATM   24  C14 UNK     1      17.624  -1.409  36.763  1.00  0.00     0.001 A 
HETATM   25  C16 UNK     1      18.645  -2.162  37.343  1.00  0.00     0.000 A 
HETATM   26  C15 UNK     1      19.795  -2.457  36.611  1.00  0.00     0.001 A 
HETATM   27  C13 UNK     1      19.923  -1.999  35.300  1.00  0.00     0.012 A 
ENDBRANCH   5  22
TORSDOF 4
ENDMDL
MODEL 8
REMARK VINA RESULT:      -9.1     22.982     25.567
REMARK  4 active torsions:
REMARK  status: ('A' for Active; 'I' for Inactive)
REMARK    1  A    between atoms: C17_21  and  O2_2 
REMARK    2  A    between atoms: C5_9  and  O2_2 
REMARK    3  A    between atoms: C3_7  and  C7_11 
REMARK    4  A    between atoms: C17_21  and  C18_22 
ROOT
HETATM    1  O1  UNK     1      15.093   6.181  10.301  1.00  0.00    -0.274 OA
HETATM    2  O3  UNK     1      15.301   3.990   9.683  1.00  0.00    -0.260 OA
HETATM    3  C1  UNK     1      13.200   7.474   9.468  1.00  0.00     0.010 A 
HETATM    4  C2  UNK     1      14.366   7.384  10.226  1.00  0.00     0.099 A 
HETATM    5  C3  UNK     1      12.727   6.290   8.736  1.00  0.00    -0.007 A 
HETATM    6  C4  UNK     1      14.870   8.470  10.944  1.00  0.00     0.007 A 
HETATM    7  C5  UNK     1      14.190   9.683  10.906  1.00  0.00     0.088 A 
HETATM    8  C6  UNK     1      12.527   8.703   9.441  1.00  0.00     0.018 A 
HETATM    9  C8  UNK     1      13.020   9.799  10.156  1.00  0.00     0.039 A 
HETATM   10  C9  UNK     1      13.443   5.158   8.827  1.00  0.00     0.095 A 
HETATM   11  C10 UNK     1      16.124   8.336  11.745  1.00  0.00     0.054 C 
HETATM   12  C11 UNK     1      14.677   5.044   9.626  1.00  0.00     0.289 A 
ENDROOT
BRANCH   7  13
HETATM   13  O2  UNK     1      14.651  10.765  11.592  1.00  0.00    -0.274 OA
BRANCH  13  14
HETATM   14  C17 UNK     1      14.892  11.890  10.801  1.00  0.00     0.298 C 
HETATM   15  O4  UNK     1      14.183  12.883  10.741  1.00  0.00    -0.259 OA
BRANCH  14  16
HETATM   16  C18 UNK     1      16.150  11.742  10.026  1.00  0.00     0.039 A 
HETATM   17  C19 UNK     1      16.090  11.757   8.648  1.00  0.00     0.017 A 
HETATM   18  C21 UNK     1      17.273  11.618   7.921  1.00  0.00     0.001 A 
HETATM   19  C23 UNK     1      18.488  11.467   8.587  1.00  0.00     0.000 A 
HETATM   20  C22 UNK     1      18.522  11.455   9.982  1.00  0.00     0.001 A 
HETATM   21  C20 UNK     1      17.339  11.594  10.709  1.00  0.00     0.017 A 
ENDBRANCH  14  16
ENDBRANCH  13  14
ENDBRANCH   7  13
BRANCH   5  22
HETATM   22  C7  UNK     1      11.532   6.215   7.900  1.00  0.00    -0.025 A 
HETATM   23  C12 UNK     1      10.282   6.061   8.493  1.00  0.00     0.012 A 
HETATM   24  C14 UNK     1       9.140   5.990   7.694  1.00  0.00     0.001 A 
HETATM   25  C16 UNK     1       9.253   6.075   6.307  1.00  0.00     0.000 A 
HETATM   26  C15 UNK     1      10.507   6.230   5.717  1.00  0.00     0.001 A 
HETATM   27  C13 UNK     1      11.649   6.301   6.515  1.00  0.00     0.012 A 
ENDBRANCH   5  22
TORSDOF 4
ENDMDL
MODEL 9
REMARK VINA RESULT:      -9.1     23.875     25.996
REMARK  4 active torsions:
REMARK  status: ('A' for Active; 'I' for Inactive)
REMARK    1  A    between atoms: C17_21  and  O2_2 
REMARK    2  A    between atoms: C5_9  and  O2_2 
REMARK    3  A    between atoms: C3_7  and  C7_11 
REMARK    4  A    between atoms: C17_21  and  C18_22 
ROOT
HETATM    1  O1  UNK     1      14.303  10.960  10.149  1.00  0.00    -0.274 OA
HETATM    2  O3  UNK     1      14.100  13.213   9.820  1.00  0.00    -0.260 OA
HETATM    3  C1  UNK     1      16.501   9.923   9.941  1.00  0.00     0.010 A 
HETATM    4  C2  UNK     1      15.134   9.824  10.191  1.00  0.00     0.099 A 
HETATM    5  C3  UNK     1      17.080  11.238   9.628  1.00  0.00    -0.007 A 
HETATM    6  C4  UNK     1      14.521   8.606  10.493  1.00  0.00     0.007 A 
HETATM    7  C5  UNK     1      15.296   7.452  10.548  1.00  0.00     0.088 A 
HETATM    8  C6  UNK     1      17.267   8.751  10.001  1.00  0.00     0.018 A 
HETATM    9  C8  UNK     1      16.667   7.524  10.303  1.00  0.00     0.039 A 
HETATM   10  C9  UNK     1      16.261  12.302   9.595  1.00  0.00     0.095 A 
HETATM   11  C10 UNK     1      13.052   8.539  10.754  1.00  0.00     0.054 C 
HETATM   12  C11 UNK     1      14.813  12.216   9.859  1.00  0.00     0.289 A 
ENDROOT
BRANCH   7  13
HETATM   13  O2  UNK     1      14.734   6.246  10.839  1.00  0.00    -0.274 OA
BRANCH  13  14
HETATM   14  C17 UNK     1      14.702   5.352   9.766  1.00  0.00     0.298 C 
HETATM   15  O4  UNK     1      15.532   4.485   9.538  1.00  0.00    -0.259 OA
BRANCH  14  16
HETATM   16  C18 UNK     1      13.504   5.575   8.917  1.00  0.00     0.039 A 
HETATM   17  C19 UNK     1      12.271   5.177   9.388  1.00  0.00     0.017 A 
HETATM   18  C21 UNK     1      11.145   5.386   8.590  1.00  0.00     0.001 A 
HETATM   19  C23 UNK     1      11.278   5.988   7.339  1.00  0.00     0.000 A 
HETATM   20  C22 UNK     1      12.537   6.382   6.886  1.00  0.00     0.001 A 
HETATM   21  C20 UNK     1      13.663   6.173   7.684  1.00  0.00     0.017 A 
ENDBRANCH  14  16
ENDBRANCH  13  14
ENDBRANCH   7  13
BRANCH   5  22
HETATM   22  C7  UNK     1      18.485  11.514   9.342  1.00  0.00    -0.025 A 
HETATM   23  C12 UNK     1      19.379  11.706  10.391  1.00  0.00     0.012 A 
HETATM   24  C14 UNK     1      20.722  11.969  10.118  1.00  0.00     0.001 A 
HETATM   25  C16 UNK     1      21.165  12.039   8.797  1.00  0.00     0.000 A 
HETATM   26  C15 UNK     1      20.265  11.846   7.749  1.00  0.00     0.001 A 
HETATM   27  C13 UNK     1      18.923  11.583   8.022  1.00  0.00     0.012 A 
ENDBRANCH   5  22
TORSDOF 4
ENDMDL
MODEL 10
REMARK VINA RESULT:      -9.1      3.682      8.200
REMARK  4 active torsions:
REMARK  status: ('A' for Active; 'I' for Inactive)
REMARK    1  A    between atoms: C17_21  and  O2_2 
REMARK    2  A    between atoms: C5_9  and  O2_2 
REMARK    3  A    between atoms: C3_7  and  C7_11 
REMARK    4  A    between atoms: C17_21  and  C18_22 
ROOT
HETATM    1  O1  UNK     1      20.227   7.999  33.476  1.00  0.00    -0.274 OA
HETATM    2  O3  UNK     1      20.847   9.749  34.810  1.00  0.00    -0.260 OA
HETATM    3  C1  UNK     1      17.873   7.720  32.902  1.00  0.00     0.010 A 
HETATM    4  C2  UNK     1      19.198   7.298  32.817  1.00  0.00     0.099 A 
HETATM    5  C3  UNK     1      17.549   8.914  33.696  1.00  0.00    -0.007 A 
HETATM    6  C4  UNK     1      19.574   6.173  32.082  1.00  0.00     0.007 A 
HETATM    7  C5  UNK     1      18.597   5.444  31.410  1.00  0.00     0.088 A 
HETATM    8  C6  UNK     1      16.901   6.975  32.220  1.00  0.00     0.018 A 
HETATM    9  C8  UNK     1      17.263   5.845  31.479  1.00  0.00     0.039 A 
HETATM   10  C9  UNK     1      18.552   9.559  34.313  1.00  0.00     0.095 A 
HETATM   11  C10 UNK     1      21.005   5.751  32.014  1.00  0.00     0.054 C 
HETATM   12  C11 UNK     1      19.960   9.130  34.231  1.00  0.00     0.289 A 
ENDROOT
BRANCH   7  13
HETATM   13  O2  UNK     1      18.924   4.340  30.683  1.00  0.00    -0.274 OA
BRANCH  13  14
HETATM   14  C17 UNK     1      18.478   3.136  31.233  1.00  0.00     0.298 C 
HETATM   15  O4  UNK     1      17.928   3.009  32.316  1.00  0.00    -0.259 OA
BRANCH  14  16
HETATM   16  C18 UNK     1      18.746   1.997  30.318  1.00  0.00     0.039 A 
HETATM   17  C19 UNK     1      19.654   1.033  30.704  1.00  0.00     0.017 A 
HETATM   18  C21 UNK     1      19.906  -0.037  29.845  1.00  0.00     0.001 A 
HETATM   19  C23 UNK     1      19.244  -0.119  28.619  1.00  0.00     0.000 A 
HETATM   20  C22 UNK     1      18.330   0.869  28.253  1.00  0.00     0.001 A 
HETATM   21  C20 UNK     1      18.079   1.939  29.113  1.00  0.00     0.017 A 
ENDBRANCH  14  16
ENDBRANCH  13  14
ENDBRANCH   7  13
BRANCH   5  22
HETATM   22  C7  UNK     1      16.219   9.485  33.888  1.00  0.00    -0.025 A 
HETATM   23  C12 UNK     1      15.387   9.684  32.790  1.00  0.00     0.012 A 
HETATM   24  C14 UNK     1      14.116  10.230  32.974  1.00  0.00     0.001 A 
HETATM   25  C16 UNK     1      13.682  10.573  34.254  1.00  0.00     0.000 A 
HETATM   26  C15 UNK     1      14.519  10.372  35.352  1.00  0.00     0.001 A 
HETATM   27  C13 UNK     1      15.789   9.826  35.168  1.00  0.00     0.012 A 
ENDBRANCH   5  22
TORSDOF 4
ENDMDL
