MODEL 1
REMARK VINA RESULT:      -8.0      0.000      0.000
REMARK  3 active torsions:
REMARK  status: ('A' for Active; 'I' for Inactive)
REMARK    1  A    between atoms: C7_11  and  O2_2 
REMARK    2  A    between atoms: C11_15  and  O4_4 
REMARK    3  A    between atoms: C1_5  and  C4_8 
ROOT
HETATM    1  O1  UNK     1      18.849   0.005  33.243  1.00  0.00    -0.309 OA
HETATM    2  O3  UNK     1      18.504   3.168  30.699  1.00  0.00    -0.287 OA
HETATM    3  C1  UNK     1      18.318   1.218  33.657  1.00  0.00     0.093 A 
HETATM    4  C2  UNK     1      19.184   0.928  31.021  1.00  0.00     0.051 A 
HETATM    5  C3  UNK     1      19.271  -0.114  31.944  1.00  0.00     0.090 A 
HETATM    6  C5  UNK     1      18.175   2.291  32.863  1.00  0.00     0.094 A 
HETATM    7  C6  UNK     1      18.614   2.213  31.455  1.00  0.00     0.187 A 
HETATM    8  C8  UNK     1      19.629   0.750  29.710  1.00  0.00     0.054 A 
HETATM    9  C9  UNK     1      19.806  -1.343  31.558  1.00  0.00     0.041 A 
HETATM   10  C11 UNK     1      20.164  -0.481  29.327  1.00  0.00     0.066 A 
HETATM   11  C12 UNK     1      20.252  -1.525  30.249  1.00  0.00     0.039 A 
ENDROOT
BRANCH   3  12
HETATM   12  C4  UNK     1      17.889   1.234  35.071  1.00  0.00     0.031 A 
HETATM   13  C10 UNK     1      18.702   1.860  36.022  1.00  0.00     0.017 A 
HETATM   14  C14 UNK     1      18.318   1.888  37.363  1.00  0.00     0.001 A 
HETATM   15  C15 UNK     1      17.122   1.291  37.759  1.00  0.00     0.003 A 
HETATM   16  C13 UNK     1      16.308   0.665  36.813  1.00  0.00     0.038 A 
HETATM   17  C7  UNK     1      16.691   0.637  35.473  1.00  0.00     0.081 A 
BRANCH  17  18
HETATM   18  O2  UNK     1      15.878   0.018  34.571  1.00  0.00    -0.355 OA
HETATM   19  C16 UNK     1      15.870  -1.407  34.577  1.00  0.00     0.210 C 
ENDBRANCH  17  18
ENDBRANCH   3  12
BRANCH  10  20
HETATM   20  O4  UNK     1      20.600  -0.665  28.050  1.00  0.00    -0.361 OA
HETATM   21  H12 UNK     1      21.556  -0.494  28.016  1.00  0.00     0.217 HD
ENDBRANCH  10  20
TORSDOF 3
ENDMDL
MODEL 2
REMARK VINA RESULT:      -8.0      1.412      3.063
REMARK  3 active torsions:
REMARK  status: ('A' for Active; 'I' for Inactive)
REMARK    1  A    between atoms: C7_11  and  O2_2 
REMARK    2  A    between atoms: C11_15  and  O4_4 
REMARK    3  A    between atoms: C1_5  and  C4_8 
ROOT
HETATM    1  O1  UNK     1      18.341   0.651  32.820  1.00  0.00    -0.309 OA
HETATM    2  O3  UNK     1      20.455  -2.832  32.824  1.00  0.00    -0.287 OA
HETATM    3  C1  UNK     1      18.369  -0.183  33.929  1.00  0.00     0.093 A 
HETATM    4  C2  UNK     1      19.783  -0.904  31.635  1.00  0.00     0.051 A 
HETATM    5  C3  UNK     1      19.040   0.274  31.702  1.00  0.00     0.090 A 
HETATM    6  C5  UNK     1      19.052  -1.336  33.989  1.00  0.00     0.094 A 
HETATM    7  C6  UNK     1      19.822  -1.785  32.812  1.00  0.00     0.187 A 
HETATM    8  C8  UNK     1      20.477  -1.236  30.469  1.00  0.00     0.054 A 
HETATM    9  C9  UNK     1      18.988   1.129  30.600  1.00  0.00     0.041 A 
HETATM   10  C11 UNK     1      20.423  -0.379  29.369  1.00  0.00     0.066 A 
HETATM   11  C12 UNK     1      19.680   0.801  29.434  1.00  0.00     0.039 A 
ENDROOT
BRANCH   3  12
HETATM   12  C4  UNK     1      17.589   0.321  35.077  1.00  0.00     0.031 A 
HETATM   13  C10 UNK     1      16.223   0.032  35.151  1.00  0.00     0.017 A 
HETATM   14  C14 UNK     1      15.464   0.497  36.227  1.00  0.00     0.001 A 
HETATM   15  C15 UNK     1      16.069   1.251  37.232  1.00  0.00     0.003 A 
HETATM   16  C13 UNK     1      17.432   1.542  37.162  1.00  0.00     0.038 A 
HETATM   17  C7  UNK     1      18.190   1.077  36.088  1.00  0.00     0.081 A 
BRANCH  17  18
HETATM   18  O2  UNK     1      19.519   1.376  36.044  1.00  0.00    -0.355 OA
HETATM   19  C16 UNK     1      19.876   2.754  36.116  1.00  0.00     0.210 C 
ENDBRANCH  17  18
ENDBRANCH   3  12
BRANCH  10  20
HETATM   20  O4  UNK     1      21.097  -0.694  28.229  1.00  0.00    -0.361 OA
HETATM   21  H12 UNK     1      21.007  -1.647  28.062  1.00  0.00     0.217 HD
ENDBRANCH  10  20
TORSDOF 3
ENDMDL
MODEL 3
REMARK VINA RESULT:      -7.9     24.147     26.084
REMARK  3 active torsions:
REMARK  status: ('A' for Active; 'I' for Inactive)
REMARK    1  A    between atoms: C7_11  and  O2_2 
REMARK    2  A    between atoms: C11_15  and  O4_4 
REMARK    3  A    between atoms: C1_5  and  C4_8 
ROOT
HETATM    1  O1  UNK     1      13.146   7.470   8.415  1.00  0.00    -0.309 OA
HETATM    2  O3  UNK     1      15.162   4.125   9.578  1.00  0.00    -0.287 OA
HETATM    3  C1  UNK     1      12.605   6.202   8.259  1.00  0.00     0.093 A 
HETATM    4  C2  UNK     1      15.141   6.481   9.387  1.00  0.00     0.051 A 
HETATM    5  C3  UNK     1      14.396   7.583   8.969  1.00  0.00     0.090 A 
HETATM    6  C5  UNK     1      13.219   5.067   8.628  1.00  0.00     0.094 A 
HETATM    7  C6  UNK     1      14.566   5.136   9.231  1.00  0.00     0.187 A 
HETATM    8  C8  UNK     1      16.408   6.656   9.946  1.00  0.00     0.054 A 
HETATM    9  C9  UNK     1      14.916   8.870   9.109  1.00  0.00     0.041 A 
HETATM   10  C11 UNK     1      16.927   7.944  10.084  1.00  0.00     0.066 A 
HETATM   11  C12 UNK     1      16.183   9.048   9.666  1.00  0.00     0.039 A 
ENDROOT
BRANCH   3  12
HETATM   12  C4  UNK     1      11.255   6.196   7.660  1.00  0.00     0.031 A 
HETATM   13  C10 UNK     1      11.114   6.462   6.294  1.00  0.00     0.017 A 
HETATM   14  C14 UNK     1       9.849   6.462   5.705  1.00  0.00     0.001 A 
HETATM   15  C15 UNK     1       8.720   6.196   6.479  1.00  0.00     0.003 A 
HETATM   16  C13 UNK     1       8.855   5.930   7.843  1.00  0.00     0.038 A 
HETATM   17  C7  UNK     1      10.119   5.930   8.431  1.00  0.00     0.081 A 
BRANCH  17  18
HETATM   18  O2  UNK     1      10.222   5.668   9.765  1.00  0.00    -0.355 OA
HETATM   19  C16 UNK     1       9.830   4.370  10.202  1.00  0.00     0.210 C 
ENDBRANCH  17  18
ENDBRANCH   3  12
BRANCH  10  20
HETATM   20  O4  UNK     1      18.162   8.125  10.628  1.00  0.00    -0.361 OA
HETATM   21  H12 UNK     1      18.718   8.608   9.995  1.00  0.00     0.217 HD
ENDBRANCH  10  20
TORSDOF 3
ENDMDL
MODEL 4
REMARK VINA RESULT:      -7.9      0.941      2.060
REMARK  3 active torsions:
REMARK  status: ('A' for Active; 'I' for Inactive)
REMARK    1  A    between atoms: C7_11  and  O2_2 
REMARK    2  A    between atoms: C11_15  and  O4_4 
REMARK    3  A    between atoms: C1_5  and  C4_8 
ROOT
HETATM    1  O1  UNK     1      18.734  -0.226  33.218  1.00  0.00    -0.309 OA
HETATM    2  O3  UNK     1      18.743   3.055  30.802  1.00  0.00    -0.287 OA
HETATM    3  C1  UNK     1      18.209   0.989  33.636  1.00  0.00     0.093 A 
HETATM    4  C2  UNK     1      19.311   0.779  31.082  1.00  0.00     0.051 A 
HETATM    5  C3  UNK     1      19.274  -0.304  31.959  1.00  0.00     0.090 A 
HETATM    6  C5  UNK     1      18.180   2.099  32.883  1.00  0.00     0.094 A 
HETATM    7  C6  UNK     1      18.747   2.064  31.520  1.00  0.00     0.187 A 
HETATM    8  C8  UNK     1      19.872   0.640  29.811  1.00  0.00     0.054 A 
HETATM    9  C9  UNK     1      19.799  -1.537  31.568  1.00  0.00     0.041 A 
HETATM   10  C11 UNK     1      20.398  -0.593  29.423  1.00  0.00     0.066 A 
HETATM   11  C12 UNK     1      20.361  -1.679  30.299  1.00  0.00     0.039 A 
ENDROOT
BRANCH   3  12
HETATM   12  C4  UNK     1      17.649   0.961  35.003  1.00  0.00     0.031 A 
HETATM   13  C10 UNK     1      16.311   0.595  35.183  1.00  0.00     0.017 A 
HETATM   14  C14 UNK     1      15.759   0.562  36.464  1.00  0.00     0.001 A 
HETATM   15  C15 UNK     1      16.542   0.893  37.569  1.00  0.00     0.003 A 
HETATM   16  C13 UNK     1      17.877   1.258  37.395  1.00  0.00     0.038 A 
HETATM   17  C7  UNK     1      18.429   1.292  36.115  1.00  0.00     0.081 A 
BRANCH  17  18
HETATM   18  O2  UNK     1      19.736   1.653  35.972  1.00  0.00    -0.355 OA
HETATM   19  C16 UNK     1      20.060   3.020  36.211  1.00  0.00     0.210 C 
ENDBRANCH  17  18
ENDBRANCH   3  12
BRANCH  10  20
HETATM   20  O4  UNK     1      20.946  -0.739  28.185  1.00  0.00    -0.361 OA
HETATM   21  H12 UNK     1      20.256  -1.032  27.567  1.00  0.00     0.217 HD
ENDBRANCH  10  20
TORSDOF 3
ENDMDL
MODEL 5
REMARK VINA RESULT:      -7.9     13.606     16.594
REMARK  3 active torsions:
REMARK  status: ('A' for Active; 'I' for Inactive)
REMARK    1  A    between atoms: C7_11  and  O2_2 
REMARK    2  A    between atoms: C11_15  and  O4_4 
REMARK    3  A    between atoms: C1_5  and  C4_8 
ROOT
HETATM    1  O1  UNK     1      20.497  -1.942  17.571  1.00  0.00    -0.309 OA
HETATM    2  O3  UNK     1      17.692  -3.132  14.867  1.00  0.00    -0.287 OA
HETATM    3  C1  UNK     1      19.302  -1.256  17.412  1.00  0.00     0.093 A 
HETATM    4  C2  UNK     1      19.813  -3.503  15.839  1.00  0.00     0.051 A 
HETATM    5  C3  UNK     1      20.729  -3.042  16.785  1.00  0.00     0.090 A 
HETATM    6  C5  UNK     1      18.341  -1.605  16.543  1.00  0.00     0.094 A 
HETATM    7  C6  UNK     1      18.542  -2.783  15.674  1.00  0.00     0.187 A 
HETATM    8  C8  UNK     1      20.102  -4.630  15.067  1.00  0.00     0.054 A 
HETATM    9  C9  UNK     1      21.942  -3.708  16.963  1.00  0.00     0.041 A 
HETATM   10  C11 UNK     1      21.317  -5.293  15.247  1.00  0.00     0.066 A 
HETATM   11  C12 UNK     1      22.234  -4.834  16.193  1.00  0.00     0.039 A 
ENDROOT
BRANCH   3  12
HETATM   12  C4  UNK     1      19.152  -0.094  18.311  1.00  0.00     0.031 A 
HETATM   13  C10 UNK     1      19.084  -0.306  19.692  1.00  0.00     0.017 A 
HETATM   14  C14 UNK     1      18.943   0.775  20.562  1.00  0.00     0.001 A 
HETATM   15  C15 UNK     1      18.870   2.072  20.056  1.00  0.00     0.003 A 
HETATM   16  C13 UNK     1      18.938   2.290  18.679  1.00  0.00     0.038 A 
HETATM   17  C7  UNK     1      19.079   1.208  17.809  1.00  0.00     0.081 A 
BRANCH  17  18
HETATM   18  O2  UNK     1      19.142   1.448  16.469  1.00  0.00    -0.355 OA
HETATM   19  C16 UNK     1      19.554   2.750  16.062  1.00  0.00     0.210 C 
ENDBRANCH  17  18
ENDBRANCH   3  12
BRANCH  10  20
HETATM   20  O4  UNK     1      21.607  -6.394  14.499  1.00  0.00    -0.361 OA
HETATM   21  H12 UNK     1      21.214  -7.175  14.922  1.00  0.00     0.217 HD
ENDBRANCH  10  20
TORSDOF 3
ENDMDL
MODEL 6
REMARK VINA RESULT:      -7.8     24.070     26.293
REMARK  3 active torsions:
REMARK  status: ('A' for Active; 'I' for Inactive)
REMARK    1  A    between atoms: C7_11  and  O2_2 
REMARK    2  A    between atoms: C11_15  and  O4_4 
REMARK    3  A    between atoms: C1_5  and  C4_8 
ROOT
HETATM    1  O1  UNK     1      13.065   6.402   8.461  1.00  0.00    -0.309 OA
HETATM    2  O3  UNK     1      14.133  10.210   9.437  1.00  0.00    -0.287 OA
HETATM    3  C1  UNK     1      12.198   7.470   8.281  1.00  0.00     0.093 A 
HETATM    4  C2  UNK     1      14.735   7.927   9.347  1.00  0.00     0.051 A 
HETATM    5  C3  UNK     1      14.306   6.650   8.990  1.00  0.00     0.090 A 
HETATM    6  C5  UNK     1      12.497   8.744   8.579  1.00  0.00     0.094 A 
HETATM    7  C6  UNK     1      13.821   9.063   9.149  1.00  0.00     0.187 A 
HETATM    8  C8  UNK     1      16.011   8.120   9.880  1.00  0.00     0.054 A 
HETATM    9  C9  UNK     1      15.153   5.555   9.164  1.00  0.00     0.041 A 
HETATM   10  C11 UNK     1      16.856   7.024  10.055  1.00  0.00     0.066 A 
HETATM   11  C12 UNK     1      16.429   5.744   9.697  1.00  0.00     0.039 A 
ENDROOT
BRANCH   3  12
HETATM   12  C4  UNK     1      10.893   7.093   7.700  1.00  0.00     0.031 A 
HETATM   13  C10 UNK     1      10.849   6.586   6.397  1.00  0.00     0.017 A 
HETATM   14  C14 UNK     1       9.628   6.223   5.827  1.00  0.00     0.001 A 
HETATM   15  C15 UNK     1       8.448   6.364   6.556  1.00  0.00     0.003 A 
HETATM   16  C13 UNK     1       8.487   6.870   7.856  1.00  0.00     0.038 A 
HETATM   17  C7  UNK     1       9.707   7.233   8.426  1.00  0.00     0.081 A 
BRANCH  17  18
HETATM   18  O2  UNK     1       9.717   7.725   9.697  1.00  0.00    -0.355 OA
HETATM   19  C16 UNK     1       8.966   8.912   9.939  1.00  0.00     0.210 C 
ENDBRANCH  17  18
ENDBRANCH   3  12
BRANCH  10  20
HETATM   20  O4  UNK     1      18.103   7.202  10.573  1.00  0.00    -0.361 OA
HETATM   21  H12 UNK     1      18.566   7.880  10.053  1.00  0.00     0.217 HD
ENDBRANCH  10  20
TORSDOF 3
ENDMDL
MODEL 7
REMARK VINA RESULT:      -7.7     24.296     26.373
REMARK  3 active torsions:
REMARK  status: ('A' for Active; 'I' for Inactive)
REMARK    1  A    between atoms: C7_11  and  O2_2 
REMARK    2  A    between atoms: C11_15  and  O4_4 
REMARK    3  A    between atoms: C1_5  and  C4_8 
ROOT
HETATM    1  O1  UNK     1      12.992   8.377   8.182  1.00  0.00    -0.309 OA
HETATM    2  O3  UNK     1      14.923   5.775  10.652  1.00  0.00    -0.287 OA
HETATM    3  C1  UNK     1      12.426   7.164   8.548  1.00  0.00     0.093 A 
HETATM    4  C2  UNK     1      14.953   7.845   9.513  1.00  0.00     0.051 A 
HETATM    5  C3  UNK     1      14.237   8.689   8.666  1.00  0.00     0.090 A 
HETATM    6  C5  UNK     1      13.013   6.272   9.361  1.00  0.00     0.094 A 
HETATM    7  C6  UNK     1      14.353   6.563   9.910  1.00  0.00     0.187 A 
HETATM    8  C8  UNK     1      16.217   8.216   9.976  1.00  0.00     0.054 A 
HETATM    9  C9  UNK     1      14.782   9.913   8.276  1.00  0.00     0.041 A 
HETATM   10  C11 UNK     1      16.761   9.440   9.584  1.00  0.00     0.066 A 
HETATM   11  C12 UNK     1      16.045  10.287   8.736  1.00  0.00     0.039 A 
ENDROOT
BRANCH   3  12
HETATM   12  C4  UNK     1      11.084   6.931   7.978  1.00  0.00     0.031 A 
HETATM   13  C10 UNK     1      10.971   6.280   6.745  1.00  0.00     0.017 A 
HETATM   14  C14 UNK     1       9.714   6.049   6.186  1.00  0.00     0.001 A 
HETATM   15  C15 UNK     1       8.565   6.468   6.856  1.00  0.00     0.003 A 
HETATM   16  C13 UNK     1       8.672   7.119   8.086  1.00  0.00     0.038 A 
HETATM   17  C7  UNK     1       9.929   7.350   8.645  1.00  0.00     0.081 A 
BRANCH  17  18
HETATM   18  O2  UNK     1      10.005   7.988   9.847  1.00  0.00    -0.355 OA
HETATM   19  C16 UNK     1       9.381   9.265   9.942  1.00  0.00     0.210 C 
ENDBRANCH  17  18
ENDBRANCH   3  12
BRANCH  10  20
HETATM   20  O4  UNK     1      17.993   9.811  10.031  1.00  0.00    -0.361 OA
HETATM   21  H12 UNK     1      18.655   9.195   9.677  1.00  0.00     0.217 HD
ENDBRANCH  10  20
TORSDOF 3
ENDMDL
MODEL 8
REMARK VINA RESULT:      -7.7      1.868      6.636
REMARK  3 active torsions:
REMARK  status: ('A' for Active; 'I' for Inactive)
REMARK    1  A    between atoms: C7_11  and  O2_2 
REMARK    2  A    between atoms: C11_15  and  O4_4 
REMARK    3  A    between atoms: C1_5  and  C4_8 
ROOT
HETATM    1  O1  UNK     1      18.826   0.579  33.315  1.00  0.00    -0.309 OA
HETATM    2  O3  UNK     1      19.403  -2.631  35.758  1.00  0.00    -0.287 OA
HETATM    3  C1  UNK     1      19.308  -0.628  32.830  1.00  0.00     0.093 A 
HETATM    4  C2  UNK     1      18.725  -0.377  35.546  1.00  0.00     0.051 A 
HETATM    5  C3  UNK     1      18.549   0.680  34.655  1.00  0.00     0.090 A 
HETATM    6  C5  UNK     1      19.512  -1.719  33.585  1.00  0.00     0.094 A 
HETATM    7  C6  UNK     1      19.227  -1.660  35.033  1.00  0.00     0.187 A 
HETATM    8  C8  UNK     1      18.425  -0.216  36.901  1.00  0.00     0.054 A 
HETATM    9  C9  UNK     1      18.071   1.908  35.115  1.00  0.00     0.041 A 
HETATM   10  C11 UNK     1      17.949   1.013  37.358  1.00  0.00     0.066 A 
HETATM   11  C12 UNK     1      17.772   2.072  36.467  1.00  0.00     0.039 A 
ENDROOT
BRANCH   3  12
HETATM   12  C4  UNK     1      19.565  -0.630  31.376  1.00  0.00     0.031 A 
HETATM   13  C10 UNK     1      20.158  -1.754  30.790  1.00  0.00     0.017 A 
HETATM   14  C14 UNK     1      20.411  -1.779  29.418  1.00  0.00     0.001 A 
HETATM   15  C15 UNK     1      20.074  -0.682  28.627  1.00  0.00     0.003 A 
HETATM   16  C13 UNK     1      19.483   0.442  29.206  1.00  0.00     0.038 A 
HETATM   17  C7  UNK     1      19.229   0.467  30.577  1.00  0.00     0.081 A 
BRANCH  17  18
HETATM   18  O2  UNK     1      18.652   1.577  31.117  1.00  0.00    -0.355 OA
HETATM   19  C16 UNK     1      18.625   2.751  30.310  1.00  0.00     0.210 C 
ENDBRANCH  17  18
ENDBRANCH   3  12
BRANCH  10  20
HETATM   20  O4  UNK     1      17.653   1.179  38.677  1.00  0.00    -0.361 OA
HETATM   21  H12 UNK     1      16.698   1.051  38.804  1.00  0.00     0.217 HD
ENDBRANCH  10  20
TORSDOF 3
ENDMDL
MODEL 9
REMARK VINA RESULT:      -7.6     23.731     26.363
REMARK  3 active torsions:
REMARK  status: ('A' for Active; 'I' for Inactive)
REMARK    1  A    between atoms: C7_11  and  O2_2 
REMARK    2  A    between atoms: C11_15  and  O4_4 
REMARK    3  A    between atoms: C1_5  and  C4_8 
ROOT
HETATM    1  O1  UNK     1      12.294   8.076   9.325  1.00  0.00    -0.309 OA
HETATM    2  O3  UNK     1      11.918   6.160   5.748  1.00  0.00    -0.287 OA
HETATM    3  C1  UNK     1      13.403   7.688   8.586  1.00  0.00     0.093 A 
HETATM    4  C2  UNK     1      10.847   7.139   7.614  1.00  0.00     0.051 A 
HETATM    5  C3  UNK     1      11.047   7.792   8.829  1.00  0.00     0.090 A 
HETATM    6  C5  UNK     1      13.340   7.060   7.402  1.00  0.00     0.094 A 
HETATM    7  C6  UNK     1      12.020   6.734   6.824  1.00  0.00     0.187 A 
HETATM    8  C8  UNK     1       9.553   6.878   7.157  1.00  0.00     0.054 A 
HETATM    9  C9  UNK     1       9.952   8.190   9.596  1.00  0.00     0.041 A 
HETATM   10  C11 UNK     1       8.459   7.275   7.927  1.00  0.00     0.066 A 
HETATM   11  C12 UNK     1       8.658   7.930   9.144  1.00  0.00     0.039 A 
ENDROOT
BRANCH   3  12
HETATM   12  C4  UNK     1      14.694   8.048   9.208  1.00  0.00     0.031 A 
HETATM   13  C10 UNK     1      15.296   9.264   8.871  1.00  0.00     0.017 A 
HETATM   14  C14 UNK     1      16.516   9.626   9.445  1.00  0.00     0.001 A 
HETATM   15  C15 UNK     1      17.137   8.774  10.357  1.00  0.00     0.003 A 
HETATM   16  C13 UNK     1      16.540   7.559  10.696  1.00  0.00     0.038 A 
HETATM   17  C7  UNK     1      15.321   7.197  10.123  1.00  0.00     0.081 A 
BRANCH  17  18
HETATM   18  O2  UNK     1      14.760   6.005  10.471  1.00  0.00    -0.355 OA
HETATM   19  C16 UNK     1      15.344   4.828   9.918  1.00  0.00     0.210 C 
ENDBRANCH  17  18
ENDBRANCH   3  12
BRANCH  10  20
HETATM   20  O4  UNK     1       7.194   7.025   7.490  1.00  0.00    -0.361 OA
HETATM   21  H12 UNK     1       6.979   7.647   6.775  1.00  0.00     0.217 HD
ENDBRANCH  10  20
TORSDOF 3
ENDMDL
MODEL 10
REMARK VINA RESULT:      -7.6      4.740      6.373
REMARK  3 active torsions:
REMARK  status: ('A' for Active; 'I' for Inactive)
REMARK    1  A    between atoms: C7_11  and  O2_2 
REMARK    2  A    between atoms: C11_15  and  O4_4 
REMARK    3  A    between atoms: C1_5  and  C4_8 
ROOT
HETATM    1  O1  UNK     1      18.857   6.052  31.731  1.00  0.00    -0.309 OA
HETATM    2  O3  UNK     1      18.051   2.991  34.297  1.00  0.00    -0.287 OA
HETATM    3  C1  UNK     1      18.733   6.260  33.097  1.00  0.00     0.093 A 
HETATM    4  C2  UNK     1      18.415   3.687  32.068  1.00  0.00     0.051 A 
HETATM    5  C3  UNK     1      18.694   4.779  31.247  1.00  0.00     0.090 A 
HETATM    6  C5  UNK     1      18.474   5.291  33.989  1.00  0.00     0.094 A 
HETATM    7  C6  UNK     1      18.291   3.903  33.517  1.00  0.00     0.187 A 
HETATM    8  C8  UNK     1      18.260   2.413  31.519  1.00  0.00     0.054 A 
HETATM    9  C9  UNK     1      18.819   4.602  29.869  1.00  0.00     0.041 A 
HETATM   10  C11 UNK     1      18.385   2.238  30.140  1.00  0.00     0.066 A 
HETATM   11  C12 UNK     1      18.664   3.330  29.317  1.00  0.00     0.039 A 
ENDROOT
BRANCH   3  12
HETATM   12  C4  UNK     1      18.934   7.664  33.511  1.00  0.00     0.031 A 
HETATM   13  C10 UNK     1      20.173   8.049  34.034  1.00  0.00     0.017 A 
HETATM   14  C14 UNK     1      20.387   9.369  34.432  1.00  0.00     0.001 A 
HETATM   15  C15 UNK     1      19.365  10.309  34.309  1.00  0.00     0.003 A 
HETATM   16  C13 UNK     1      18.126   9.930  33.788  1.00  0.00     0.038 A 
HETATM   17  C7  UNK     1      17.912   8.611  33.390  1.00  0.00     0.081 A 
BRANCH  17  18
HETATM   18  O2  UNK     1      16.694   8.267  32.885  1.00  0.00    -0.355 OA
HETATM   19  C16 UNK     1      15.628   8.106  33.818  1.00  0.00     0.210 C 
ENDBRANCH  17  18
ENDBRANCH   3  12
BRANCH  10  20
HETATM   20  O4  UNK     1      18.236   0.998  29.596  1.00  0.00    -0.361 OA
HETATM   21  H12 UNK     1      17.777   1.081  28.744  1.00  0.00     0.217 HD
ENDBRANCH  10  20
TORSDOF 3
ENDMDL
