MODEL 1
REMARK VINA RESULT:      -9.0      0.000      0.000
REMARK  5 active torsions:
REMARK  status: ('A' for Active; 'I' for Inactive)
REMARK    1  A    between atoms: C11_16  and  O2_2 
REMARK    2  A    between atoms: C14_19  and  O2_2 
REMARK    3  A    between atoms: C12_17  and  O4_4 
REMARK    4  A    between atoms: C14_19  and  C15_20 
REMARK    5  A    between atoms: C15_20  and  C17_22 
ROOT
HETATM    1  O1  UNK     1      17.762   0.066  33.312  1.00  0.00    -0.271 OA
HETATM    2  O3  UNK     1      16.316   1.257  34.602  1.00  0.00    -0.259 OA
HETATM    3  C1  UNK     1      19.196  -1.956  36.871  1.00  0.00     0.040 C 
HETATM    4  C2  UNK     1      18.697  -1.215  35.649  1.00  0.00    -0.033 A 
HETATM    5  C3  UNK     1      18.331  -1.766  38.118  1.00  0.00     0.005 C 
HETATM    6  C4  UNK     1      17.911  -0.314  38.272  1.00  0.00     0.005 C 
HETATM    7  C5  UNK     1      17.119   0.145  37.050  1.00  0.00     0.045 C 
HETATM    8  C6  UNK     1      17.733  -0.278  35.736  1.00  0.00     0.025 A 
HETATM    9  C7  UNK     1      19.287  -1.533  34.339  1.00  0.00     0.008 A 
HETATM   10  C8  UNK     1      18.794  -0.884  33.209  1.00  0.00     0.126 A 
HETATM   11  C9  UNK     1      17.207   0.416  34.533  1.00  0.00     0.295 A 
HETATM   12  C10 UNK     1      20.331  -2.450  34.150  1.00  0.00     0.018 A 
HETATM   13  C11 UNK     1      19.293  -1.126  31.927  1.00  0.00     0.138 A 
HETATM   14  C12 UNK     1      20.322  -2.045  31.762  1.00  0.00     0.104 A 
HETATM   15  C13 UNK     1      20.843  -2.706  32.872  1.00  0.00     0.040 A 
ENDROOT
BRANCH  13  16
HETATM   16  O2  UNK     1      18.779  -0.470  30.850  1.00  0.00    -0.333 OA
BRANCH  16  17
HETATM   17  C14 UNK     1      19.466   0.702  30.416  1.00  0.00     0.199 C 
HETATM   18  C16 UNK     1      20.239   0.337  29.160  1.00  0.00     0.048 C 
BRANCH  17  19
HETATM   19  C15 UNK     1      18.430   1.787  30.141  1.00  0.00     0.188 C 
HETATM   20  O5  UNK     1      17.496   1.600  29.363  1.00  0.00    -0.289 OA
BRANCH  19  21
HETATM   21  C17 UNK     1      18.540   3.106  30.828  1.00  0.00     0.012 A 
HETATM   22  C19 UNK     1      18.116   3.209  32.134  1.00  0.00     0.015 A 
HETATM   23  C21 UNK     1      18.220   4.442  32.776  1.00  0.00     0.001 A 
HETATM   24  C23 UNK     1      18.745   5.541  32.095  1.00  0.00     0.000 A 
HETATM   25  C22 UNK     1      19.166   5.406  30.772  1.00  0.00     0.001 A 
HETATM   26  C20 UNK     1      19.062   4.171  30.130  1.00  0.00     0.015 A 
ENDBRANCH  19  21
ENDBRANCH  17  19
ENDBRANCH  16  17
ENDBRANCH  13  16
BRANCH  14  27
HETATM   27  O4  UNK     1      20.832  -2.305  30.526  1.00  0.00    -0.353 OA
HETATM   28  C18 UNK     1      21.341  -3.619  30.297  1.00  0.00     0.210 C 
ENDBRANCH  14  27
TORSDOF 5
ENDMDL
MODEL 2
REMARK VINA RESULT:      -8.8      1.276      1.890
REMARK  5 active torsions:
REMARK  status: ('A' for Active; 'I' for Inactive)
REMARK    1  A    between atoms: C11_16  and  O2_2 
REMARK    2  A    between atoms: C14_19  and  O2_2 
REMARK    3  A    between atoms: C12_17  and  O4_4 
REMARK    4  A    between atoms: C14_19  and  C15_20 
REMARK    5  A    between atoms: C15_20  and  C17_22 
ROOT
HETATM    1  O1  UNK     1      17.810   0.222  33.244  1.00  0.00    -0.271 OA
HETATM    2  O3  UNK     1      16.568   0.509  35.128  1.00  0.00    -0.259 OA
HETATM    3  C1  UNK     1      20.134  -2.810  35.299  1.00  0.00     0.040 C 
HETATM    4  C2  UNK     1      19.326  -1.728  34.615  1.00  0.00    -0.033 A 
HETATM    5  C3  UNK     1      19.536  -3.302  36.618  1.00  0.00     0.005 C 
HETATM    6  C4  UNK     1      19.031  -2.137  37.453  1.00  0.00     0.005 C 
HETATM    7  C5  UNK     1      17.962  -1.357  36.690  1.00  0.00     0.045 C 
HETATM    8  C6  UNK     1      18.322  -1.090  35.247  1.00  0.00     0.025 A 
HETATM    9  C7  UNK     1      19.653  -1.372  33.225  1.00  0.00     0.008 A 
HETATM   10  C8  UNK     1      18.877  -0.410  32.582  1.00  0.00     0.126 A 
HETATM   11  C9  UNK     1      17.495  -0.063  34.564  1.00  0.00     0.295 A 
HETATM   12  C10 UNK     1      20.710  -1.938  32.498  1.00  0.00     0.018 A 
HETATM   13  C11 UNK     1      19.115  -0.014  31.263  1.00  0.00     0.138 A 
HETATM   14  C12 UNK     1      20.164  -0.593  30.559  1.00  0.00     0.104 A 
HETATM   15  C13 UNK     1      20.963  -1.553  31.176  1.00  0.00     0.040 A 
ENDROOT
BRANCH  13  16
HETATM   16  O2  UNK     1      18.331   0.930  30.673  1.00  0.00    -0.333 OA
BRANCH  16  17
HETATM   17  C14 UNK     1      18.889   2.233  30.518  1.00  0.00     0.199 C 
HETATM   18  C16 UNK     1      18.800   2.592  29.044  1.00  0.00     0.048 C 
BRANCH  17  19
HETATM   19  C15 UNK     1      18.085   3.201  31.380  1.00  0.00     0.188 C 
HETATM   20  O5  UNK     1      16.898   3.003  31.631  1.00  0.00    -0.289 OA
BRANCH  19  21
HETATM   21  C17 UNK     1      18.745   4.416  31.940  1.00  0.00     0.012 A 
HETATM   22  C19 UNK     1      18.463   4.785  33.236  1.00  0.00     0.015 A 
HETATM   23  C21 UNK     1      19.081   5.920  33.758  1.00  0.00     0.001 A 
HETATM   24  C23 UNK     1      19.967   6.656  32.971  1.00  0.00     0.000 A 
HETATM   25  C22 UNK     1      20.233   6.258  31.661  1.00  0.00     0.001 A 
HETATM   26  C20 UNK     1      19.614   5.122  31.139  1.00  0.00     0.015 A 
ENDBRANCH  19  21
ENDBRANCH  17  19
ENDBRANCH  16  17
ENDBRANCH  13  16
BRANCH  14  27
HETATM   27  O4  UNK     1      20.424  -0.229  29.273  1.00  0.00    -0.353 OA
HETATM   28  C18 UNK     1      19.682  -0.892  28.249  1.00  0.00     0.210 C 
ENDBRANCH  14  27
TORSDOF 5
ENDMDL
MODEL 3
REMARK VINA RESULT:      -8.5     23.522     26.534
REMARK  5 active torsions:
REMARK  status: ('A' for Active; 'I' for Inactive)
REMARK    1  A    between atoms: C11_16  and  O2_2 
REMARK    2  A    between atoms: C14_19  and  O2_2 
REMARK    3  A    between atoms: C12_17  and  O4_4 
REMARK    4  A    between atoms: C14_19  and  C15_20 
REMARK    5  A    between atoms: C15_20  and  C17_22 
ROOT
HETATM    1  O1  UNK     1      15.045  10.051   8.211  1.00  0.00    -0.271 OA
HETATM    2  O3  UNK     1      15.092  11.983   7.012  1.00  0.00    -0.259 OA
HETATM    3  C1  UNK     1      18.808  11.163  10.059  1.00  0.00     0.040 C 
HETATM    4  C2  UNK     1      17.510  10.786   9.378  1.00  0.00    -0.033 A 
HETATM    5  C3  UNK     1      19.230  12.618   9.846  1.00  0.00     0.005 C 
HETATM    6  C4  UNK     1      19.021  13.038   8.401  1.00  0.00     0.005 C 
HETATM    7  C5  UNK     1      17.552  12.891   8.009  1.00  0.00     0.045 C 
HETATM    8  C6  UNK     1      16.932  11.590   8.465  1.00  0.00     0.025 A 
HETATM    9  C7  UNK     1      16.872   9.507   9.728  1.00  0.00     0.008 A 
HETATM   10  C8  UNK     1      15.653   9.184   9.135  1.00  0.00     0.126 A 
HETATM   11  C9  UNK     1      15.633  11.247   7.830  1.00  0.00     0.295 A 
HETATM   12  C10 UNK     1      17.418   8.577  10.624  1.00  0.00     0.018 A 
HETATM   13  C11 UNK     1      14.977   7.993   9.412  1.00  0.00     0.138 A 
HETATM   14  C12 UNK     1      15.534   7.089  10.308  1.00  0.00     0.104 A 
HETATM   15  C13 UNK     1      16.755   7.378  10.912  1.00  0.00     0.040 A 
ENDROOT
BRANCH  13  16
HETATM   16  O2  UNK     1      13.786   7.719   8.811  1.00  0.00    -0.333 OA
BRANCH  16  17
HETATM   17  C14 UNK     1      12.626   7.712   9.641  1.00  0.00     0.199 C 
HETATM   18  C16 UNK     1      11.849   8.983   9.343  1.00  0.00     0.048 C 
BRANCH  17  19
HETATM   19  C15 UNK     1      11.811   6.467   9.311  1.00  0.00     0.188 C 
HETATM   20  O5  UNK     1      11.800   5.489  10.057  1.00  0.00    -0.289 OA
BRANCH  19  21
HETATM   21  C17 UNK     1      11.001   6.423   8.059  1.00  0.00     0.012 A 
HETATM   22  C19 UNK     1      11.654   6.380   6.849  1.00  0.00     0.015 A 
HETATM   23  C21 UNK     1      10.897   6.338   5.679  1.00  0.00     0.001 A 
HETATM   24  C23 UNK     1       9.503   6.341   5.751  1.00  0.00     0.000 A 
HETATM   25  C22 UNK     1       8.869   6.386   6.993  1.00  0.00     0.001 A 
HETATM   26  C20 UNK     1       9.628   6.428   8.162  1.00  0.00     0.015 A 
ENDBRANCH  19  21
ENDBRANCH  17  19
ENDBRANCH  16  17
ENDBRANCH  13  16
BRANCH  14  27
HETATM   27  O4  UNK     1      14.901   5.919  10.600  1.00  0.00    -0.353 OA
HETATM   28  C18 UNK     1      15.305   4.762   9.869  1.00  0.00     0.210 C 
ENDBRANCH  14  27
TORSDOF 5
ENDMDL
MODEL 4
REMARK VINA RESULT:      -8.5     23.959     26.254
REMARK  5 active torsions:
REMARK  status: ('A' for Active; 'I' for Inactive)
REMARK    1  A    between atoms: C11_16  and  O2_2 
REMARK    2  A    between atoms: C14_19  and  O2_2 
REMARK    3  A    between atoms: C12_17  and  O4_4 
REMARK    4  A    between atoms: C14_19  and  C15_20 
REMARK    5  A    between atoms: C15_20  and  C17_22 
ROOT
HETATM    1  O1  UNK     1      11.288   8.725  10.317  1.00  0.00    -0.271 OA
HETATM    2  O3  UNK     1       9.111   9.242   9.909  1.00  0.00    -0.259 OA
HETATM    3  C1  UNK     1      12.213  12.960  10.474  1.00  0.00     0.040 C 
HETATM    4  C2  UNK     1      11.868  11.489  10.386  1.00  0.00    -0.033 A 
HETATM    5  C3  UNK     1      10.999  13.886  10.562  1.00  0.00     0.005 C 
HETATM    6  C4  UNK     1       9.913  13.453   9.591  1.00  0.00     0.005 C 
HETATM    7  C5  UNK     1       9.465  12.025   9.894  1.00  0.00     0.045 C 
HETATM    8  C6  UNK     1      10.610  11.071  10.147  1.00  0.00     0.025 A 
HETATM    9  C7  UNK     1      12.941  10.498  10.566  1.00  0.00     0.008 A 
HETATM   10  C8  UNK     1      12.613   9.144  10.532  1.00  0.00     0.126 A 
HETATM   11  C9  UNK     1      10.258   9.629  10.108  1.00  0.00     0.295 A 
HETATM   12  C10 UNK     1      14.289  10.828  10.765  1.00  0.00     0.018 A 
HETATM   13  C11 UNK     1      13.567   8.137  10.697  1.00  0.00     0.138 A 
HETATM   14  C12 UNK     1      14.896   8.488  10.900  1.00  0.00     0.104 A 
HETATM   15  C13 UNK     1      15.258   9.832  10.932  1.00  0.00     0.040 A 
ENDROOT
BRANCH  13  16
HETATM   16  O2  UNK     1      13.202   6.826  10.657  1.00  0.00    -0.333 OA
BRANCH  16  17
HETATM   17  C14 UNK     1      13.078   6.225   9.370  1.00  0.00     0.199 C 
HETATM   18  C16 UNK     1      14.160   5.163   9.260  1.00  0.00     0.048 C 
BRANCH  17  19
HETATM   19  C15 UNK     1      11.684   5.617   9.259  1.00  0.00     0.188 C 
HETATM   20  O5  UNK     1      11.226   4.893  10.142  1.00  0.00    -0.289 OA
BRANCH  19  21
HETATM   21  C17 UNK     1      10.845   5.905   8.060  1.00  0.00     0.012 A 
HETATM   22  C19 UNK     1       9.489   6.075   8.225  1.00  0.00     0.015 A 
HETATM   23  C21 UNK     1       8.706   6.345   7.104  1.00  0.00     0.001 A 
HETATM   24  C23 UNK     1       9.300   6.438   5.845  1.00  0.00     0.000 A 
HETATM   25  C22 UNK     1      10.677   6.260   5.708  1.00  0.00     0.001 A 
HETATM   26  C20 UNK     1      11.460   5.990   6.831  1.00  0.00     0.015 A 
ENDBRANCH  19  21
ENDBRANCH  17  19
ENDBRANCH  16  17
ENDBRANCH  13  16
BRANCH  14  27
HETATM   27  O4  UNK     1      15.851   7.531  11.064  1.00  0.00    -0.353 OA
HETATM   28  C18 UNK     1      17.056   7.681  10.314  1.00  0.00     0.210 C 
ENDBRANCH  14  27
TORSDOF 5
ENDMDL
MODEL 5
REMARK VINA RESULT:      -8.4      2.465      8.054
REMARK  5 active torsions:
REMARK  status: ('A' for Active; 'I' for Inactive)
REMARK    1  A    between atoms: C11_16  and  O2_2 
REMARK    2  A    between atoms: C14_19  and  O2_2 
REMARK    3  A    between atoms: C12_17  and  O4_4 
REMARK    4  A    between atoms: C14_19  and  C15_20 
REMARK    5  A    between atoms: C15_20  and  C17_22 
ROOT
HETATM    1  O1  UNK     1      19.472  -2.111  33.350  1.00  0.00    -0.271 OA
HETATM    2  O3  UNK     1      20.641  -3.350  31.843  1.00  0.00    -0.259 OA
HETATM    3  C1  UNK     1      19.162   1.071  30.418  1.00  0.00     0.040 C 
HETATM    4  C2  UNK     1      19.310  -0.043  31.432  1.00  0.00    -0.033 A 
HETATM    5  C3  UNK     1      19.544   0.677  28.991  1.00  0.00     0.005 C 
HETATM    6  C4  UNK     1      20.818  -0.150  28.978  1.00  0.00     0.005 C 
HETATM    7  C5  UNK     1      20.638  -1.420  29.806  1.00  0.00     0.045 C 
HETATM    8  C6  UNK     1      19.961  -1.185  31.136  1.00  0.00     0.025 A 
HETATM    9  C7  UNK     1      18.724   0.134  32.770  1.00  0.00     0.008 A 
HETATM   10  C8  UNK     1      18.820  -0.912  33.685  1.00  0.00     0.126 A 
HETATM   11  C9  UNK     1      20.066  -2.301  32.112  1.00  0.00     0.295 A 
HETATM   12  C10 UNK     1      18.075   1.303  33.194  1.00  0.00     0.018 A 
HETATM   13  C11 UNK     1      18.290  -0.830  34.976  1.00  0.00     0.138 A 
HETATM   14  C12 UNK     1      17.644   0.336  35.372  1.00  0.00     0.104 A 
HETATM   15  C13 UNK     1      17.538   1.402  34.483  1.00  0.00     0.040 A 
ENDROOT
BRANCH  13  16
HETATM   16  O2  UNK     1      18.405  -1.877  35.838  1.00  0.00    -0.333 OA
BRANCH  16  17
HETATM   17  C14 UNK     1      19.459  -1.816  36.797  1.00  0.00     0.199 C 
HETATM   18  C16 UNK     1      18.842  -2.051  38.165  1.00  0.00     0.048 C 
BRANCH  17  19
HETATM   19  C15 UNK     1      20.481  -2.894  36.451  1.00  0.00     0.188 C 
HETATM   20  O5  UNK     1      21.460  -2.649  35.748  1.00  0.00    -0.289 OA
BRANCH  19  21
HETATM   21  C17 UNK     1      20.302  -4.279  36.975  1.00  0.00     0.012 A 
HETATM   22  C19 UNK     1      19.246  -5.031  36.511  1.00  0.00     0.015 A 
HETATM   23  C21 UNK     1      19.079  -6.325  37.001  1.00  0.00     0.001 A 
HETATM   24  C23 UNK     1      19.974  -6.835  37.942  1.00  0.00     0.000 A 
HETATM   25  C22 UNK     1      21.035  -6.049  38.394  1.00  0.00     0.001 A 
HETATM   26  C20 UNK     1      21.200  -4.753  37.903  1.00  0.00     0.015 A 
ENDBRANCH  19  21
ENDBRANCH  17  19
ENDBRANCH  16  17
ENDBRANCH  13  16
BRANCH  14  27
HETATM   27  O4  UNK     1      17.117   0.448  36.622  1.00  0.00    -0.353 OA
HETATM   28  C18 UNK     1      17.658   1.464  37.466  1.00  0.00     0.210 C 
ENDBRANCH  14  27
TORSDOF 5
ENDMDL
MODEL 6
REMARK VINA RESULT:      -8.3     24.555     26.300
REMARK  5 active torsions:
REMARK  status: ('A' for Active; 'I' for Inactive)
REMARK    1  A    between atoms: C11_16  and  O2_2 
REMARK    2  A    between atoms: C14_19  and  O2_2 
REMARK    3  A    between atoms: C12_17  and  O4_4 
REMARK    4  A    between atoms: C14_19  and  C15_20 
REMARK    5  A    between atoms: C15_20  and  C17_22 
ROOT
HETATM    1  O1  UNK     1      15.621   8.282  10.239  1.00  0.00    -0.271 OA
HETATM    2  O3  UNK     1      17.873   7.979  10.128  1.00  0.00    -0.259 OA
HETATM    3  C1  UNK     1      16.218  12.544   9.700  1.00  0.00     0.040 C 
HETATM    4  C2  UNK     1      16.041  11.057   9.915  1.00  0.00    -0.033 A 
HETATM    5  C3  UNK     1      17.621  12.950   9.246  1.00  0.00     0.005 C 
HETATM    6  C4  UNK     1      18.685  12.198  10.030  1.00  0.00     0.005 C 
HETATM    7  C5  UNK     1      18.523  10.692   9.838  1.00  0.00     0.045 C 
HETATM    8  C6  UNK     1      17.093  10.217   9.951  1.00  0.00     0.025 A 
HETATM    9  C7  UNK     1      14.680  10.524  10.089  1.00  0.00     0.008 A 
HETATM   10  C8  UNK     1      14.515   9.149  10.239  1.00  0.00     0.126 A 
HETATM   11  C9  UNK     1      16.920   8.751  10.113  1.00  0.00     0.295 A 
HETATM   12  C10 UNK     1      13.524  11.318  10.121  1.00  0.00     0.018 A 
HETATM   13  C11 UNK     1      13.259   8.558  10.406  1.00  0.00     0.138 A 
HETATM   14  C12 UNK     1      12.127   9.364  10.428  1.00  0.00     0.104 A 
HETATM   15  C13 UNK     1      12.259  10.743  10.288  1.00  0.00     0.040 A 
ENDROOT
BRANCH  13  16
HETATM   16  O2  UNK     1      13.144   7.209  10.548  1.00  0.00    -0.333 OA
BRANCH  16  17
HETATM   17  C14 UNK     1      13.087   6.433   9.352  1.00  0.00     0.199 C 
HETATM   18  C16 UNK     1      14.197   5.398   9.430  1.00  0.00     0.048 C 
BRANCH  17  19
HETATM   19  C15 UNK     1      11.713   5.776   9.275  1.00  0.00     0.188 C 
HETATM   20  O5  UNK     1      11.292   5.060  10.182  1.00  0.00    -0.289 OA
BRANCH  19  21
HETATM   21  C17 UNK     1      10.850   6.003   8.081  1.00  0.00     0.012 A 
HETATM   22  C19 UNK     1      11.441   6.063   6.839  1.00  0.00     0.015 A 
HETATM   23  C21 UNK     1      10.634   6.274   5.722  1.00  0.00     0.001 A 
HETATM   24  C23 UNK     1       9.255   6.420   5.877  1.00  0.00     0.000 A 
HETATM   25  C22 UNK     1       8.684   6.355   7.148  1.00  0.00     0.001 A 
HETATM   26  C20 UNK     1       9.493   6.143   8.265  1.00  0.00     0.015 A 
ENDBRANCH  19  21
ENDBRANCH  17  19
ENDBRANCH  16  17
ENDBRANCH  13  16
BRANCH  14  27
HETATM   27  O4  UNK     1      10.889   8.820  10.590  1.00  0.00    -0.353 OA
HETATM   28  C18 UNK     1       9.784   9.558  10.069  1.00  0.00     0.210 C 
ENDBRANCH  14  27
TORSDOF 5
ENDMDL
MODEL 7
REMARK VINA RESULT:      -8.2     24.100     26.306
REMARK  5 active torsions:
REMARK  status: ('A' for Active; 'I' for Inactive)
REMARK    1  A    between atoms: C11_16  and  O2_2 
REMARK    2  A    between atoms: C14_19  and  O2_2 
REMARK    3  A    between atoms: C12_17  and  O4_4 
REMARK    4  A    between atoms: C14_19  and  C15_20 
REMARK    5  A    between atoms: C15_20  and  C17_22 
ROOT
HETATM    1  O1  UNK     1      12.286   8.842   9.487  1.00  0.00    -0.271 OA
HETATM    2  O3  UNK     1      13.343  10.523  10.596  1.00  0.00    -0.259 OA
HETATM    3  C1  UNK     1      15.970   6.554   9.540  1.00  0.00     0.040 C 
HETATM    4  C2  UNK     1      14.706   7.386   9.511  1.00  0.00    -0.033 A 
HETATM    5  C3  UNK     1      17.052   7.090  10.479  1.00  0.00     0.005 C 
HETATM    6  C4  UNK     1      17.180   8.599  10.357  1.00  0.00     0.005 C 
HETATM    7  C5  UNK     1      15.854   9.276  10.699  1.00  0.00     0.045 C 
HETATM    8  C6  UNK     1      14.654   8.613  10.063  1.00  0.00     0.025 A 
HETATM    9  C7  UNK     1      13.508   6.831   8.859  1.00  0.00     0.008 A 
HETATM   10  C8  UNK     1      12.333   7.578   8.875  1.00  0.00     0.126 A 
HETATM   11  C9  UNK     1      13.402   9.412  10.079  1.00  0.00     0.295 A 
HETATM   12  C10 UNK     1      13.473   5.588   8.210  1.00  0.00     0.018 A 
HETATM   13  C11 UNK     1      11.150   7.127   8.284  1.00  0.00     0.138 A 
HETATM   14  C12 UNK     1      11.136   5.889   7.651  1.00  0.00     0.104 A 
HETATM   15  C13 UNK     1      12.297   5.121   7.612  1.00  0.00     0.040 A 
ENDROOT
BRANCH  13  16
HETATM   16  O2  UNK     1      10.022   7.889   8.324  1.00  0.00    -0.333 OA
BRANCH  16  17
HETATM   17  C14 UNK     1       9.162   7.716   9.448  1.00  0.00     0.199 C 
HETATM   18  C16 UNK     1       8.874   9.097  10.015  1.00  0.00     0.048 C 
BRANCH  17  19
HETATM   19  C15 UNK     1       7.886   7.030   8.971  1.00  0.00     0.188 C 
HETATM   20  O5  UNK     1       7.356   7.331   7.903  1.00  0.00    -0.289 OA
BRANCH  19  21
HETATM   21  C17 UNK     1       7.261   5.966   9.808  1.00  0.00     0.012 A 
HETATM   22  C19 UNK     1       7.392   4.653   9.417  1.00  0.00     0.015 A 
HETATM   23  C21 UNK     1       6.808   3.659  10.201  1.00  0.00     0.001 A 
HETATM   24  C23 UNK     1       6.109   4.005  11.358  1.00  0.00     0.000 A 
HETATM   25  C22 UNK     1       5.993   5.344  11.729  1.00  0.00     0.001 A 
HETATM   26  C20 UNK     1       6.577   6.338  10.944  1.00  0.00     0.015 A 
ENDBRANCH  19  21
ENDBRANCH  17  19
ENDBRANCH  16  17
ENDBRANCH  13  16
BRANCH  14  27
HETATM   27  O4  UNK     1      10.000   5.419   7.065  1.00  0.00    -0.353 OA
HETATM   28  C18 UNK     1       9.726   5.860   5.736  1.00  0.00     0.210 C 
ENDBRANCH  14  27
TORSDOF 5
ENDMDL
MODEL 8
REMARK VINA RESULT:      -8.2      4.096      9.172
REMARK  5 active torsions:
REMARK  status: ('A' for Active; 'I' for Inactive)
REMARK    1  A    between atoms: C11_16  and  O2_2 
REMARK    2  A    between atoms: C14_19  and  O2_2 
REMARK    3  A    between atoms: C12_17  and  O4_4 
REMARK    4  A    between atoms: C14_19  and  C15_20 
REMARK    5  A    between atoms: C15_20  and  C17_22 
ROOT
HETATM    1  O1  UNK     1      20.876  -3.565  33.160  1.00  0.00    -0.271 OA
HETATM    2  O3  UNK     1      21.706  -4.182  31.134  1.00  0.00    -0.259 OA
HETATM    3  C1  UNK     1      19.125  -0.050  31.316  1.00  0.00     0.040 C 
HETATM    4  C2  UNK     1      19.771  -1.269  31.939  1.00  0.00    -0.033 A 
HETATM    5  C3  UNK     1      19.101  -0.065  29.787  1.00  0.00     0.005 C 
HETATM    6  C4  UNK     1      20.428  -0.548  29.226  1.00  0.00     0.005 C 
HETATM    7  C5  UNK     1      20.736  -1.958  29.726  1.00  0.00     0.045 C 
HETATM    8  C6  UNK     1      20.481  -2.147  31.203  1.00  0.00     0.025 A 
HETATM    9  C7  UNK     1      19.614  -1.493  33.385  1.00  0.00     0.008 A 
HETATM   10  C8  UNK     1      20.168  -2.640  33.948  1.00  0.00     0.126 A 
HETATM   11  C9  UNK     1      21.074  -3.370  31.802  1.00  0.00     0.295 A 
HETATM   12  C10 UNK     1      18.941  -0.614  34.247  1.00  0.00     0.018 A 
HETATM   13  C11 UNK     1      20.065  -2.933  35.310  1.00  0.00     0.138 A 
HETATM   14  C12 UNK     1      19.388  -2.051  36.144  1.00  0.00     0.104 A 
HETATM   15  C13 UNK     1      18.828  -0.891  35.614  1.00  0.00     0.040 A 
ENDROOT
BRANCH  13  16
HETATM   16  O2  UNK     1      20.621  -4.067  35.818  1.00  0.00    -0.333 OA
BRANCH  16  17
HETATM   17  C14 UNK     1      19.736  -5.146  36.118  1.00  0.00     0.199 C 
HETATM   18  C16 UNK     1      19.849  -6.152  34.984  1.00  0.00     0.048 C 
BRANCH  17  19
HETATM   19  C15 UNK     1      20.161  -5.754  37.451  1.00  0.00     0.188 C 
HETATM   20  O5  UNK     1      20.523  -5.049  38.391  1.00  0.00    -0.289 OA
BRANCH  19  21
HETATM   21  C17 UNK     1      20.135  -7.234  37.630  1.00  0.00     0.012 A 
HETATM   22  C19 UNK     1      21.316  -7.934  37.523  1.00  0.00     0.015 A 
HETATM   23  C21 UNK     1      21.291  -9.318  37.692  1.00  0.00     0.001 A 
HETATM   24  C23 UNK     1      20.086  -9.966  37.963  1.00  0.00     0.000 A 
HETATM   25  C22 UNK     1      18.905  -9.230  38.065  1.00  0.00     0.001 A 
HETATM   26  C20 UNK     1      18.931  -7.845  37.896  1.00  0.00     0.015 A 
ENDBRANCH  19  21
ENDBRANCH  17  19
ENDBRANCH  16  17
ENDBRANCH  13  16
BRANCH  14  27
HETATM   27  O4  UNK     1      19.268  -2.306  37.477  1.00  0.00    -0.353 OA
HETATM   28  C18 UNK     1      18.326  -1.521  38.206  1.00  0.00     0.210 C 
ENDBRANCH  14  27
TORSDOF 5
ENDMDL
MODEL 9
REMARK VINA RESULT:      -8.2      9.282     12.439
REMARK  5 active torsions:
REMARK  status: ('A' for Active; 'I' for Inactive)
REMARK    1  A    between atoms: C11_16  and  O2_2 
REMARK    2  A    between atoms: C14_19  and  O2_2 
REMARK    3  A    between atoms: C12_17  and  O4_4 
REMARK    4  A    between atoms: C14_19  and  C15_20 
REMARK    5  A    between atoms: C15_20  and  C17_22 
ROOT
HETATM    1  O1  UNK     1      26.151  -6.928  38.199  1.00  0.00    -0.271 OA
HETATM    2  O3  UNK     1      27.313  -5.168  39.051  1.00  0.00    -0.259 OA
HETATM    3  C1  UNK     1      29.887  -9.055  37.628  1.00  0.00     0.040 C 
HETATM    4  C2  UNK     1      28.601  -8.279  37.812  1.00  0.00    -0.033 A 
HETATM    5  C3  UNK     1      31.097  -8.443  38.337  1.00  0.00     0.005 C 
HETATM    6  C4  UNK     1      31.128  -6.935  38.155  1.00  0.00     0.005 C 
HETATM    7  C5  UNK     1      29.857  -6.303  38.718  1.00  0.00     0.045 C 
HETATM    8  C6  UNK     1      28.593  -7.037  38.333  1.00  0.00     0.025 A 
HETATM    9  C7  UNK     1      27.332  -8.906  37.408  1.00  0.00     0.008 A 
HETATM   10  C8  UNK     1      26.145  -8.209  37.621  1.00  0.00     0.126 A 
HETATM   11  C9  UNK     1      27.328  -6.292  38.560  1.00  0.00     0.295 A 
HETATM   12  C10 UNK     1      27.237 -10.170  36.807  1.00  0.00     0.018 A 
HETATM   13  C11 UNK     1      24.896  -8.730  37.271  1.00  0.00     0.138 A 
HETATM   14  C12 UNK     1      24.826  -9.987  36.684  1.00  0.00     0.104 A 
HETATM   15  C13 UNK     1      25.995 -10.707  36.450  1.00  0.00     0.040 A 
ENDROOT
BRANCH  13  16
HETATM   16  O2  UNK     1      23.761  -8.014  37.500  1.00  0.00    -0.333 OA
BRANCH  16  17
HETATM   17  C14 UNK     1      22.968  -8.396  38.623  1.00  0.00     0.199 C 
HETATM   18  C16 UNK     1      23.003  -7.244  39.614  1.00  0.00     0.048 C 
BRANCH  17  19
HETATM   19  C15 UNK     1      21.550  -8.672  38.135  1.00  0.00     0.188 C 
HETATM   20  O5  UNK     1      20.856  -9.552  38.642  1.00  0.00    -0.289 OA
BRANCH  19  21
HETATM   21  C17 UNK     1      20.981  -7.860  37.021  1.00  0.00     0.012 A 
HETATM   22  C19 UNK     1      20.402  -6.647  37.315  1.00  0.00     0.015 A 
HETATM   23  C21 UNK     1      19.871  -5.888  36.273  1.00  0.00     0.001 A 
HETATM   24  C23 UNK     1      19.933  -6.363  34.962  1.00  0.00     0.000 A 
HETATM   25  C22 UNK     1      20.525  -7.598  34.695  1.00  0.00     0.001 A 
HETATM   26  C20 UNK     1      21.056  -8.356  35.739  1.00  0.00     0.015 A 
ENDBRANCH  19  21
ENDBRANCH  17  19
ENDBRANCH  16  17
ENDBRANCH  13  16
BRANCH  14  27
HETATM   27  O4  UNK     1      23.625 -10.524  36.330  1.00  0.00    -0.353 OA
HETATM   28  C18 UNK     1      23.646 -11.807  35.705  1.00  0.00     0.210 C 
ENDBRANCH  14  27
TORSDOF 5
ENDMDL
MODEL 10
REMARK VINA RESULT:      -8.1      2.308      4.108
REMARK  5 active torsions:
REMARK  status: ('A' for Active; 'I' for Inactive)
REMARK    1  A    between atoms: C11_16  and  O2_2 
REMARK    2  A    between atoms: C14_19  and  O2_2 
REMARK    3  A    between atoms: C12_17  and  O4_4 
REMARK    4  A    between atoms: C14_19  and  C15_20 
REMARK    5  A    between atoms: C15_20  and  C17_22 
ROOT
HETATM    1  O1  UNK     1      17.766   2.395  34.505  1.00  0.00    -0.271 OA
HETATM    2  O3  UNK     1      17.298   2.335  36.730  1.00  0.00    -0.259 OA
HETATM    3  C1  UNK     1      19.018  -1.753  34.706  1.00  0.00     0.040 C 
HETATM    4  C2  UNK     1      18.602  -0.298  34.670  1.00  0.00    -0.033 A 
HETATM    5  C3  UNK     1      18.632  -2.485  35.992  1.00  0.00     0.005 C 
HETATM    6  C4  UNK     1      18.906  -1.622  37.213  1.00  0.00     0.005 C 
HETATM    7  C5  UNK     1      18.115  -0.318  37.133  1.00  0.00     0.045 C 
HETATM    8  C6  UNK     1      18.168   0.340  35.774  1.00  0.00     0.025 A 
HETATM    9  C7  UNK     1      18.679   0.429  33.393  1.00  0.00     0.008 A 
HETATM   10  C8  UNK     1      18.251   1.754  33.352  1.00  0.00     0.126 A 
HETATM   11  C9  UNK     1      17.712   1.754  35.732  1.00  0.00     0.295 A 
HETATM   12  C10 UNK     1      19.167  -0.127  32.201  1.00  0.00     0.018 A 
HETATM   13  C11 UNK     1      18.285   2.517  32.182  1.00  0.00     0.138 A 
HETATM   14  C12 UNK     1      18.766   1.943  31.011  1.00  0.00     0.104 A 
HETATM   15  C13 UNK     1      19.209   0.623  31.020  1.00  0.00     0.040 A 
ENDROOT
BRANCH  13  16
HETATM   16  O2  UNK     1      17.855   3.809  32.186  1.00  0.00    -0.333 OA
BRANCH  16  17
HETATM   17  C14 UNK     1      18.851   4.825  32.089  1.00  0.00     0.199 C 
HETATM   18  C16 UNK     1      18.396   5.805  31.020  1.00  0.00     0.048 C 
BRANCH  17  19
HETATM   19  C15 UNK     1      18.978   5.500  33.450  1.00  0.00     0.188 C 
HETATM   20  O5  UNK     1      19.663   5.013  34.348  1.00  0.00    -0.289 OA
BRANCH  19  21
HETATM   21  C17 UNK     1      18.263   6.783  33.709  1.00  0.00     0.012 A 
HETATM   22  C19 UNK     1      18.985   7.955  33.709  1.00  0.00     0.015 A 
HETATM   23  C21 UNK     1      18.316   9.154  33.950  1.00  0.00     0.001 A 
HETATM   24  C23 UNK     1      16.940   9.150  34.184  1.00  0.00     0.000 A 
HETATM   25  C22 UNK     1      16.235   7.946  34.178  1.00  0.00     0.001 A 
HETATM   26  C20 UNK     1      16.906   6.747  33.937  1.00  0.00     0.015 A 
ENDBRANCH  19  21
ENDBRANCH  17  19
ENDBRANCH  16  17
ENDBRANCH  13  16
BRANCH  14  27
HETATM   27  O4  UNK     1      18.813   2.659  29.853  1.00  0.00    -0.353 OA
HETATM   28  C18 UNK     1      18.009   2.195  28.770  1.00  0.00     0.210 C 
ENDBRANCH  14  27
TORSDOF 5
ENDMDL
