MODEL 1
REMARK VINA RESULT:      -8.0      0.000      0.000
REMARK  6 active torsions:
REMARK  status: ('A' for Active; 'I' for Inactive)
REMARK    1  A    between atoms: C14_19  and  O2_2 
REMARK    2  A    between atoms: C15_20  and  O2_2 
REMARK    3  A    between atoms: C1_6  and  N1_5 
REMARK    4  A    between atoms: C2_7  and  N1_5 
REMARK    5  A    between atoms: C3_8  and  N1_5 
REMARK    6  A    between atoms: C12_17  and  C14_19 
ROOT
HETATM    1  O1  UNK     1      18.192   2.831  32.613  1.00  0.00    -0.274 OA
HETATM    2  O3  UNK     1      18.439   0.620  32.091  1.00  0.00    -0.259 OA
HETATM    3  C1  UNK     1      17.967   6.493  32.795  1.00  0.00     0.032 A 
HETATM    4  C4  UNK     1      17.932   5.150  33.164  1.00  0.00     0.067 A 
HETATM    5  C5  UNK     1      18.571   4.518  30.903  1.00  0.00    -0.001 A 
HETATM    6  C6  UNK     1      18.235   4.180  32.210  1.00  0.00     0.091 A 
HETATM    7  C7  UNK     1      18.301   6.851  31.487  1.00  0.00     0.030 A 
HETATM    8  C8  UNK     1      18.603   5.867  30.542  1.00  0.00     0.016 A 
HETATM    9  C11 UNK     1      18.876   3.455  29.958  1.00  0.00     0.038 A 
HETATM   10  C12 UNK     1      18.833   2.174  30.346  1.00  0.00     0.115 A 
HETATM   11  C13 UNK     1      18.479   1.792  31.732  1.00  0.00     0.304 A 
ENDROOT
BRANCH   3  12
HETATM   12  N1  UNK     1      17.662   7.493  33.743  1.00  0.00    -0.382 N 
BRANCH  12  13
HETATM   13  C2  UNK     1      16.614   7.280  34.721  1.00  0.00     0.118 C 
HETATM   14  C9  UNK     1      15.255   7.526  34.093  1.00  0.00     0.026 C 
ENDBRANCH  12  13
BRANCH  12  15
HETATM   15  C3  UNK     1      18.401   8.739  33.759  1.00  0.00     0.118 C 
HETATM   16  C10 UNK     1      19.725   8.552  34.473  1.00  0.00     0.026 C 
ENDBRANCH  12  15
ENDBRANCH   3  12
BRANCH  10  17
HETATM   17  C14 UNK     1      19.157   1.175  29.322  1.00  0.00     0.299 C 
HETATM   18  O4  UNK     1      18.505   1.019  28.303  1.00  0.00    -0.259 OA
BRANCH  17  19
HETATM   19  O2  UNK     1      20.265   0.498  29.713  1.00  0.00    -0.318 OA
BRANCH  19  20
HETATM   20  C15 UNK     1      20.542  -0.699  28.978  1.00  0.00     0.174 C 
HETATM   21  C16 UNK     1      20.377  -1.891  29.894  1.00  0.00     0.034 C 
ENDBRANCH  19  20
ENDBRANCH  17  19
ENDBRANCH  10  17
TORSDOF 6
ENDMDL
MODEL 2
REMARK VINA RESULT:      -8.0      0.051      1.617
REMARK  6 active torsions:
REMARK  status: ('A' for Active; 'I' for Inactive)
REMARK    1  A    between atoms: C14_19  and  O2_2 
REMARK    2  A    between atoms: C15_20  and  O2_2 
REMARK    3  A    between atoms: C1_6  and  N1_5 
REMARK    4  A    between atoms: C2_7  and  N1_5 
REMARK    5  A    between atoms: C3_8  and  N1_5 
REMARK    6  A    between atoms: C12_17  and  C14_19 
ROOT
HETATM    1  O1  UNK     1      18.213   2.792  32.588  1.00  0.00    -0.274 OA
HETATM    2  O3  UNK     1      18.454   0.584  32.051  1.00  0.00    -0.259 OA
HETATM    3  C1  UNK     1      17.993   6.453  32.793  1.00  0.00     0.032 A 
HETATM    4  C4  UNK     1      17.958   5.108  33.154  1.00  0.00     0.067 A 
HETATM    5  C5  UNK     1      18.587   4.488  30.886  1.00  0.00    -0.001 A 
HETATM    6  C6  UNK     1      18.256   4.143  32.193  1.00  0.00     0.091 A 
HETATM    7  C7  UNK     1      18.323   6.818  31.486  1.00  0.00     0.030 A 
HETATM    8  C8  UNK     1      18.620   5.839  30.533  1.00  0.00     0.016 A 
HETATM    9  C11 UNK     1      18.887   3.430  29.934  1.00  0.00     0.038 A 
HETATM   10  C12 UNK     1      18.844   2.148  30.315  1.00  0.00     0.115 A 
HETATM   11  C13 UNK     1      18.494   1.758  31.699  1.00  0.00     0.304 A 
ENDROOT
BRANCH   3  12
HETATM   12  N1  UNK     1      17.694   7.448  33.748  1.00  0.00    -0.382 N 
BRANCH  12  13
HETATM   13  C2  UNK     1      18.431   8.695  33.763  1.00  0.00     0.118 C 
HETATM   14  C9  UNK     1      19.764   8.506  34.463  1.00  0.00     0.026 C 
ENDBRANCH  12  13
BRANCH  12  15
HETATM   15  C3  UNK     1      16.637   7.240  34.717  1.00  0.00     0.118 C 
HETATM   16  C10 UNK     1      15.286   7.500  34.081  1.00  0.00     0.026 C 
ENDBRANCH  12  15
ENDBRANCH   3  12
BRANCH  10  17
HETATM   17  C14 UNK     1      19.162   1.154  29.283  1.00  0.00     0.299 C 
HETATM   18  O4  UNK     1      18.523   1.025  28.252  1.00  0.00    -0.259 OA
BRANCH  17  19
HETATM   19  O2  UNK     1      20.247   0.447  29.684  1.00  0.00    -0.318 OA
BRANCH  19  20
HETATM   20  C15 UNK     1      20.495  -0.760  28.954  1.00  0.00     0.174 C 
HETATM   21  C16 UNK     1      20.395  -1.937  29.900  1.00  0.00     0.034 C 
ENDBRANCH  19  20
ENDBRANCH  17  19
ENDBRANCH  10  17
TORSDOF 6
ENDMDL
MODEL 3
REMARK VINA RESULT:      -7.1      3.129      7.506
REMARK  6 active torsions:
REMARK  status: ('A' for Active; 'I' for Inactive)
REMARK    1  A    between atoms: C14_19  and  O2_2 
REMARK    2  A    between atoms: C15_20  and  O2_2 
REMARK    3  A    between atoms: C1_6  and  N1_5 
REMARK    4  A    between atoms: C2_7  and  N1_5 
REMARK    5  A    between atoms: C3_8  and  N1_5 
REMARK    6  A    between atoms: C12_17  and  C14_19 
ROOT
HETATM    1  O1  UNK     1      17.433   5.392  33.699  1.00  0.00    -0.274 OA
HETATM    2  O3  UNK     1      16.732   6.984  35.180  1.00  0.00    -0.259 OA
HETATM    3  C1  UNK     1      18.721   3.367  30.917  1.00  0.00     0.032 A 
HETATM    4  C4  UNK     1      18.170   3.718  32.148  1.00  0.00     0.067 A 
HETATM    5  C5  UNK     1      18.353   6.070  31.553  1.00  0.00    -0.001 A 
HETATM    6  C6  UNK     1      17.994   5.067  32.448  1.00  0.00     0.091 A 
HETATM    7  C7  UNK     1      19.088   4.359  30.006  1.00  0.00     0.030 A 
HETATM    8  C8  UNK     1      18.904   5.709  30.321  1.00  0.00     0.016 A 
HETATM    9  C11 UNK     1      18.141   7.459  31.930  1.00  0.00     0.038 A 
HETATM   10  C12 UNK     1      17.609   7.761  33.120  1.00  0.00     0.115 A 
HETATM   11  C13 UNK     1      17.219   6.711  34.088  1.00  0.00     0.304 A 
ENDROOT
BRANCH   3  12
HETATM   12  N1  UNK     1      18.910   2.007  30.592  1.00  0.00    -0.382 N 
BRANCH  12  13
HETATM   13  C2  UNK     1      18.938   1.001  31.634  1.00  0.00     0.118 C 
HETATM   14  C9  UNK     1      19.667  -0.237  31.146  1.00  0.00     0.026 C 
ENDBRANCH  12  13
BRANCH  12  15
HETATM   15  C3  UNK     1      19.066   1.597  29.211  1.00  0.00     0.118 C 
HETATM   16  C10 UNK     1      17.727   1.636  28.500  1.00  0.00     0.026 C 
ENDBRANCH  12  15
ENDBRANCH   3  12
BRANCH  10  17
HETATM   17  C14 UNK     1      17.435   9.189  33.409  1.00  0.00     0.299 C 
HETATM   18  O4  UNK     1      18.243   9.853  34.037  1.00  0.00    -0.259 OA
BRANCH  17  19
HETATM   19  O2  UNK     1      16.261   9.600  32.869  1.00  0.00    -0.318 OA
BRANCH  19  20
HETATM   20  C15 UNK     1      15.389  10.302  33.761  1.00  0.00     0.174 C 
HETATM   21  C16 UNK     1      14.371   9.332  34.321  1.00  0.00     0.034 C 
ENDBRANCH  19  20
ENDBRANCH  17  19
ENDBRANCH  10  17
TORSDOF 6
ENDMDL
MODEL 4
REMARK VINA RESULT:      -6.9      3.178      4.505
REMARK  6 active torsions:
REMARK  status: ('A' for Active; 'I' for Inactive)
REMARK    1  A    between atoms: C14_19  and  O2_2 
REMARK    2  A    between atoms: C15_20  and  O2_2 
REMARK    3  A    between atoms: C1_6  and  N1_5 
REMARK    4  A    between atoms: C2_7  and  N1_5 
REMARK    5  A    between atoms: C3_8  and  N1_5 
REMARK    6  A    between atoms: C12_17  and  C14_19 
ROOT
HETATM    1  O1  UNK     1      18.378   3.004  35.371  1.00  0.00    -0.274 OA
HETATM    2  O3  UNK     1      18.480   1.664  37.219  1.00  0.00    -0.259 OA
HETATM    3  C1  UNK     1      18.221   4.566  32.050  1.00  0.00     0.032 A 
HETATM    4  C4  UNK     1      18.270   4.413  33.434  1.00  0.00     0.067 A 
HETATM    5  C5  UNK     1      18.339   1.996  33.159  1.00  0.00    -0.001 A 
HETATM    6  C6  UNK     1      18.328   3.127  33.968  1.00  0.00     0.091 A 
HETATM    7  C7  UNK     1      18.230   3.442  31.220  1.00  0.00     0.030 A 
HETATM    8  C8  UNK     1      18.290   2.159  31.772  1.00  0.00     0.016 A 
HETATM    9  C11 UNK     1      18.401   0.684  33.783  1.00  0.00     0.038 A 
HETATM   10  C12 UNK     1      18.447   0.573  35.116  1.00  0.00     0.115 A 
HETATM   11  C13 UNK     1      18.437   1.762  35.997  1.00  0.00     0.304 A 
ENDROOT
BRANCH   3  12
HETATM   12  N1  UNK     1      18.160   5.858  31.485  1.00  0.00    -0.382 N 
BRANCH  12  13
HETATM   13  C2  UNK     1      17.561   6.952  32.221  1.00  0.00     0.118 C 
HETATM   14  C9  UNK     1      16.647   7.754  31.314  1.00  0.00     0.026 C 
ENDBRANCH  12  13
BRANCH  12  15
HETATM   15  C3  UNK     1      18.708   6.109  30.167  1.00  0.00     0.118 C 
HETATM   16  C10 UNK     1      20.212   5.922  30.182  1.00  0.00     0.026 C 
ENDBRANCH  12  15
ENDBRANCH   3  12
BRANCH  10  17
HETATM   17  C14 UNK     1      18.508  -0.792  35.652  1.00  0.00     0.299 C 
HETATM   18  O4  UNK     1      17.528  -1.413  36.026  1.00  0.00    -0.259 OA
BRANCH  17  19
HETATM   19  O2  UNK     1      19.801  -1.201  35.646  1.00  0.00    -0.318 OA
BRANCH  19  20
HETATM   20  C15 UNK     1      20.016  -2.544  35.198  1.00  0.00     0.174 C 
HETATM   21  C16 UNK     1      20.409  -2.520  33.737  1.00  0.00     0.034 C 
ENDBRANCH  19  20
ENDBRANCH  17  19
ENDBRANCH  10  17
TORSDOF 6
ENDMDL
MODEL 5
REMARK VINA RESULT:      -6.8      1.555      2.077
REMARK  6 active torsions:
REMARK  status: ('A' for Active; 'I' for Inactive)
REMARK    1  A    between atoms: C14_19  and  O2_2 
REMARK    2  A    between atoms: C15_20  and  O2_2 
REMARK    3  A    between atoms: C1_6  and  N1_5 
REMARK    4  A    between atoms: C2_7  and  N1_5 
REMARK    5  A    between atoms: C3_8  and  N1_5 
REMARK    6  A    between atoms: C12_17  and  C14_19 
ROOT
HETATM    1  O1  UNK     1      17.944   2.587  33.859  1.00  0.00    -0.274 OA
HETATM    2  O3  UNK     1      18.031   0.407  34.538  1.00  0.00    -0.259 OA
HETATM    3  C1  UNK     1      18.049   5.849  32.173  1.00  0.00     0.032 A 
HETATM    4  C4  UNK     1      17.851   4.875  33.150  1.00  0.00     0.067 A 
HETATM    5  C5  UNK     1      18.645   3.171  31.605  1.00  0.00    -0.001 A 
HETATM    6  C6  UNK     1      18.153   3.548  32.851  1.00  0.00     0.091 A 
HETATM    7  C7  UNK     1      18.541   5.489  30.916  1.00  0.00     0.030 A 
HETATM    8  C8  UNK     1      18.839   4.154  30.632  1.00  0.00     0.016 A 
HETATM    9  C11 UNK     1      18.938   1.768  31.360  1.00  0.00     0.038 A 
HETATM   10  C12 UNK     1      18.738   0.859  32.322  1.00  0.00     0.115 A 
HETATM   11  C13 UNK     1      18.216   1.237  33.655  1.00  0.00     0.304 A 
ENDROOT
BRANCH   3  12
HETATM   12  N1  UNK     1      17.749   7.199  32.452  1.00  0.00    -0.382 N 
BRANCH  12  13
HETATM   13  C2  UNK     1      16.797   7.923  31.634  1.00  0.00     0.118 C 
HETATM   14  C9  UNK     1      15.389   7.429  31.910  1.00  0.00     0.026 C 
ENDBRANCH  12  13
BRANCH  12  15
HETATM   15  C3  UNK     1      18.379   7.876  33.568  1.00  0.00     0.118 C 
HETATM   16  C10 UNK     1      19.883   7.687  33.511  1.00  0.00     0.026 C 
ENDBRANCH  12  15
ENDBRANCH   3  12
BRANCH  10  17
HETATM   17  C14 UNK     1      19.064  -0.531  31.980  1.00  0.00     0.299 C 
HETATM   18  O4  UNK     1      18.309  -1.468  32.176  1.00  0.00    -0.259 OA
BRANCH  17  19
HETATM   19  O2  UNK     1      20.304  -0.561  31.432  1.00  0.00    -0.318 OA
BRANCH  19  20
HETATM   20  C15 UNK     1      20.476  -1.493  30.359  1.00  0.00     0.174 C 
HETATM   21  C16 UNK     1      20.613  -0.731  29.059  1.00  0.00     0.034 C 
ENDBRANCH  19  20
ENDBRANCH  17  19
ENDBRANCH  10  17
TORSDOF 6
ENDMDL
MODEL 6
REMARK VINA RESULT:      -6.7      3.065      4.505
REMARK  6 active torsions:
REMARK  status: ('A' for Active; 'I' for Inactive)
REMARK    1  A    between atoms: C14_19  and  O2_2 
REMARK    2  A    between atoms: C15_20  and  O2_2 
REMARK    3  A    between atoms: C1_6  and  N1_5 
REMARK    4  A    between atoms: C2_7  and  N1_5 
REMARK    5  A    between atoms: C3_8  and  N1_5 
REMARK    6  A    between atoms: C12_17  and  C14_19 
ROOT
HETATM    1  O1  UNK     1      18.313   1.166  32.158  1.00  0.00    -0.274 OA
HETATM    2  O3  UNK     1      18.356  -1.097  32.471  1.00  0.00    -0.259 OA
HETATM    3  C1  UNK     1      18.273   4.835  32.342  1.00  0.00     0.032 A 
HETATM    4  C4  UNK     1      18.269   3.540  31.827  1.00  0.00     0.067 A 
HETATM    5  C5  UNK     1      18.376   2.646  34.087  1.00  0.00    -0.001 A 
HETATM    6  C6  UNK     1      18.320   2.463  32.709  1.00  0.00     0.091 A 
HETATM    7  C7  UNK     1      18.330   5.038  33.723  1.00  0.00     0.030 A 
HETATM    8  C8  UNK     1      18.381   3.947  34.594  1.00  0.00     0.016 A 
HETATM    9  C11 UNK     1      18.429   1.476  34.950  1.00  0.00     0.038 A 
HETATM   10  C12 UNK     1      18.422   0.246  34.421  1.00  0.00     0.115 A 
HETATM   11  C13 UNK     1      18.363   0.028  32.959  1.00  0.00     0.304 A 
ENDROOT
BRANCH   3  12
HETATM   12  N1  UNK     1      18.223   5.942  31.468  1.00  0.00    -0.382 N 
BRANCH  12  13
HETATM   13  C2  UNK     1      17.704   7.214  31.927  1.00  0.00     0.118 C 
HETATM   14  C9  UNK     1      16.214   7.300  31.655  1.00  0.00     0.026 C 
ENDBRANCH  12  13
BRANCH  12  15
HETATM   15  C3  UNK     1      18.702   5.824  30.106  1.00  0.00     0.118 C 
HETATM   16  C10 UNK     1      20.214   5.923  30.073  1.00  0.00     0.026 C 
ENDBRANCH  12  15
ENDBRANCH   3  12
BRANCH  10  17
HETATM   17  C14 UNK     1      18.477  -0.869  35.373  1.00  0.00     0.299 C 
HETATM   18  O4  UNK     1      17.487  -1.392  35.856  1.00  0.00    -0.259 OA
BRANCH  17  19
HETATM   19  O2  UNK     1      19.777  -1.184  35.595  1.00  0.00    -0.318 OA
BRANCH  19  20
HETATM   20  C15 UNK     1      20.086  -2.581  35.542  1.00  0.00     0.174 C 
HETATM   21  C16 UNK     1      20.334  -3.086  36.946  1.00  0.00     0.034 C 
ENDBRANCH  19  20
ENDBRANCH  17  19
ENDBRANCH  10  17
TORSDOF 6
ENDMDL
MODEL 7
REMARK VINA RESULT:      -6.7     13.892     17.833
REMARK  6 active torsions:
REMARK  status: ('A' for Active; 'I' for Inactive)
REMARK    1  A    between atoms: C14_19  and  O2_2 
REMARK    2  A    between atoms: C15_20  and  O2_2 
REMARK    3  A    between atoms: C1_6  and  N1_5 
REMARK    4  A    between atoms: C2_7  and  N1_5 
REMARK    5  A    between atoms: C3_8  and  N1_5 
REMARK    6  A    between atoms: C12_17  and  C14_19 
ROOT
HETATM    1  O1  UNK     1      19.380   1.323  15.095  1.00  0.00    -0.274 OA
HETATM    2  O3  UNK     1      19.471   3.400  16.044  1.00  0.00    -0.259 OA
HETATM    3  C1  UNK     1      19.139  -2.235  14.215  1.00  0.00     0.032 A 
HETATM    4  C4  UNK     1      19.284  -0.854  14.096  1.00  0.00     0.067 A 
HETATM    5  C5  UNK     1      19.032  -0.626  16.506  1.00  0.00    -0.001 A 
HETATM    6  C6  UNK     1      19.229  -0.069  15.246  1.00  0.00     0.091 A 
HETATM    7  C7  UNK     1      18.940  -2.813  15.470  1.00  0.00     0.030 A 
HETATM    8  C8  UNK     1      18.887  -2.012  16.615  1.00  0.00     0.016 A 
HETATM    9  C11 UNK     1      18.984   0.252  17.664  1.00  0.00     0.038 A 
HETATM   10  C12 UNK     1      19.128   1.574  17.515  1.00  0.00     0.115 A 
HETATM   11  C13 UNK     1      19.338   2.189  16.185  1.00  0.00     0.304 A 
ENDROOT
BRANCH   3  12
HETATM   12  N1  UNK     1      19.190  -3.051  13.064  1.00  0.00    -0.382 N 
BRANCH  12  13
HETATM   13  C2  UNK     1      19.540  -2.482  11.778  1.00  0.00     0.118 C 
HETATM   14  C9  UNK     1      18.954  -3.323  10.659  1.00  0.00     0.026 C 
ENDBRANCH  12  13
BRANCH  12  15
HETATM   15  C3  UNK     1      18.907  -4.469  13.156  1.00  0.00     0.118 C 
HETATM   16  C10 UNK     1      20.196  -5.249  13.325  1.00  0.00     0.026 C 
ENDBRANCH  12  15
ENDBRANCH   3  12
BRANCH  10  17
HETATM   17  C14 UNK     1      19.065   2.376  18.742  1.00  0.00     0.299 C 
HETATM   18  O4  UNK     1      19.645   3.440  18.882  1.00  0.00    -0.259 OA
BRANCH  17  19
HETATM   19  O2  UNK     1      18.278   1.733  19.638  1.00  0.00    -0.318 OA
BRANCH  19  20
HETATM   20  C15 UNK     1      18.739   1.769  20.994  1.00  0.00     0.174 C 
HETATM   21  C16 UNK     1      19.738   0.653  21.205  1.00  0.00     0.034 C 
ENDBRANCH  19  20
ENDBRANCH  17  19
ENDBRANCH  10  17
TORSDOF 6
ENDMDL
MODEL 8
REMARK VINA RESULT:      -6.6      1.412      2.741
REMARK  6 active torsions:
REMARK  status: ('A' for Active; 'I' for Inactive)
REMARK    1  A    between atoms: C14_19  and  O2_2 
REMARK    2  A    between atoms: C15_20  and  O2_2 
REMARK    3  A    between atoms: C1_6  and  N1_5 
REMARK    4  A    between atoms: C2_7  and  N1_5 
REMARK    5  A    between atoms: C3_8  and  N1_5 
REMARK    6  A    between atoms: C12_17  and  C14_19 
ROOT
HETATM    1  O1  UNK     1      18.549   3.119  30.446  1.00  0.00    -0.274 OA
HETATM    2  O3  UNK     1      18.994   1.100  29.473  1.00  0.00    -0.259 OA
HETATM    3  C1  UNK     1      17.848   6.012  32.599  1.00  0.00     0.032 A 
HETATM    4  C4  UNK     1      18.083   5.240  31.463  1.00  0.00     0.067 A 
HETATM    5  C5  UNK     1      18.318   3.263  32.862  1.00  0.00    -0.001 A 
HETATM    6  C6  UNK     1      18.315   3.874  31.612  1.00  0.00     0.091 A 
HETATM    7  C7  UNK     1      17.848   5.416  33.862  1.00  0.00     0.030 A 
HETATM    8  C8  UNK     1      18.082   4.045  33.995  1.00  0.00     0.016 A 
HETATM    9  C11 UNK     1      18.568   1.832  32.945  1.00  0.00     0.038 A 
HETATM   10  C12 UNK     1      18.790   1.120  31.834  1.00  0.00     0.115 A 
HETATM   11  C13 UNK     1      18.791   1.749  30.494  1.00  0.00     0.304 A 
ENDROOT
BRANCH   3  12
HETATM   12  N1  UNK     1      17.611   7.397  32.473  1.00  0.00    -0.382 N 
BRANCH  12  13
HETATM   13  C2  UNK     1      18.380   8.345  33.254  1.00  0.00     0.118 C 
HETATM   14  C9  UNK     1      17.460   9.387  33.864  1.00  0.00     0.026 C 
ENDBRANCH  12  13
BRANCH  12  15
HETATM   15  C3  UNK     1      16.607   7.890  31.552  1.00  0.00     0.118 C 
HETATM   16  C10 UNK     1      15.242   7.350  31.931  1.00  0.00     0.026 C 
ENDBRANCH  12  15
ENDBRANCH   3  12
BRANCH  10  17
HETATM   17  C14 UNK     1      19.031  -0.315  32.020  1.00  0.00     0.299 C 
HETATM   18  O4  UNK     1      18.170  -1.103  32.376  1.00  0.00    -0.259 OA
BRANCH  17  19
HETATM   19  O2  UNK     1      20.330  -0.576  31.734  1.00  0.00    -0.318 OA
BRANCH  19  20
HETATM   20  C15 UNK     1      20.612  -1.925  31.346  1.00  0.00     0.174 C 
HETATM   21  C16 UNK     1      20.469  -2.048  29.845  1.00  0.00     0.034 C 
ENDBRANCH  19  20
ENDBRANCH  17  19
ENDBRANCH  10  17
TORSDOF 6
ENDMDL
MODEL 9
REMARK VINA RESULT:      -6.5      3.047      4.629
REMARK  6 active torsions:
REMARK  status: ('A' for Active; 'I' for Inactive)
REMARK    1  A    between atoms: C14_19  and  O2_2 
REMARK    2  A    between atoms: C15_20  and  O2_2 
REMARK    3  A    between atoms: C1_6  and  N1_5 
REMARK    4  A    between atoms: C2_7  and  N1_5 
REMARK    5  A    between atoms: C3_8  and  N1_5 
REMARK    6  A    between atoms: C12_17  and  C14_19 
ROOT
HETATM    1  O1  UNK     1      19.074   7.901  33.616  1.00  0.00    -0.274 OA
HETATM    2  O3  UNK     1      20.800   6.506  33.071  1.00  0.00    -0.259 OA
HETATM    3  C1  UNK     1      15.991   9.871  33.941  1.00  0.00     0.032 A 
HETATM    4  C4  UNK     1      17.265   9.365  34.191  1.00  0.00     0.067 A 
HETATM    5  C5  UNK     1      17.065   7.914  32.247  1.00  0.00    -0.001 A 
HETATM    6  C6  UNK     1      17.784   8.392  33.339  1.00  0.00     0.091 A 
HETATM    7  C7  UNK     1      15.253   9.403  32.851  1.00  0.00     0.030 A 
HETATM    8  C8  UNK     1      15.788   8.427  32.005  1.00  0.00     0.016 A 
HETATM    9  C11 UNK     1      17.666   6.898  31.398  1.00  0.00     0.038 A 
HETATM   10  C12 UNK     1      18.893   6.435  31.667  1.00  0.00     0.115 A 
HETATM   11  C13 UNK     1      19.676   6.928  32.822  1.00  0.00     0.304 A 
ENDROOT
BRANCH   3  12
HETATM   12  N1  UNK     1      15.444  10.855  34.791  1.00  0.00    -0.382 N 
BRANCH  12  13
HETATM   13  C2  UNK     1      14.128  10.674  35.370  1.00  0.00     0.118 C 
HETATM   14  C9  UNK     1      13.984  11.525  36.618  1.00  0.00     0.026 C 
ENDBRANCH  12  13
BRANCH  12  15
HETATM   15  C3  UNK     1      16.196  12.052  35.108  1.00  0.00     0.118 C 
HETATM   16  C10 UNK     1      16.143  13.024  33.945  1.00  0.00     0.026 C 
ENDBRANCH  12  15
ENDBRANCH   3  12
BRANCH  10  17
HETATM   17  C14 UNK     1      19.414   5.412  30.753  1.00  0.00     0.299 C 
HETATM   18  O4  UNK     1      20.205   5.650  29.856  1.00  0.00    -0.259 OA
BRANCH  17  19
HETATM   19  O2  UNK     1      18.870   4.216  31.088  1.00  0.00    -0.318 OA
BRANCH  19  20
HETATM   20  C15 UNK     1      18.694   3.299  30.002  1.00  0.00     0.174 C 
HETATM   21  C16 UNK     1      18.882   1.887  30.513  1.00  0.00     0.034 C 
ENDBRANCH  19  20
ENDBRANCH  17  19
ENDBRANCH  10  17
TORSDOF 6
ENDMDL
MODEL 10
REMARK VINA RESULT:      -6.5     14.352     18.344
REMARK  6 active torsions:
REMARK  status: ('A' for Active; 'I' for Inactive)
REMARK    1  A    between atoms: C14_19  and  O2_2 
REMARK    2  A    between atoms: C15_20  and  O2_2 
REMARK    3  A    between atoms: C1_6  and  N1_5 
REMARK    4  A    between atoms: C2_7  and  N1_5 
REMARK    5  A    between atoms: C3_8  and  N1_5 
REMARK    6  A    between atoms: C12_17  and  C14_19 
ROOT
HETATM    1  O1  UNK     1      19.415   0.751  14.734  1.00  0.00    -0.274 OA
HETATM    2  O3  UNK     1      19.423   2.789  15.768  1.00  0.00    -0.259 OA
HETATM    3  C1  UNK     1      19.275  -2.772  13.701  1.00  0.00     0.032 A 
HETATM    4  C4  UNK     1      19.405  -1.386  13.646  1.00  0.00     0.067 A 
HETATM    5  C5  UNK     1      19.023  -1.259  16.046  1.00  0.00    -0.001 A 
HETATM    6  C6  UNK     1      19.277  -0.648  14.821  1.00  0.00     0.091 A 
HETATM    7  C7  UNK     1      19.020  -3.402  14.921  1.00  0.00     0.030 A 
HETATM    8  C8  UNK     1      18.894  -2.649  16.092  1.00  0.00     0.016 A 
HETATM    9  C11 UNK     1      18.901  -0.429  17.234  1.00  0.00     0.038 A 
HETATM   10  C12 UNK     1      19.032   0.900  17.145  1.00  0.00     0.115 A 
HETATM   11  C13 UNK     1      19.303   1.571  15.853  1.00  0.00     0.304 A 
ENDROOT
BRANCH   3  12
HETATM   12  N1  UNK     1      19.400  -3.539  12.524  1.00  0.00    -0.382 N 
BRANCH  12  13
HETATM   13  C2  UNK     1      19.771  -4.938  12.597  1.00  0.00     0.118 C 
HETATM   14  C9  UNK     1      18.687  -5.799  11.976  1.00  0.00     0.026 C 
ENDBRANCH  12  13
BRANCH  12  15
HETATM   15  C3  UNK     1      19.145  -2.942  11.228  1.00  0.00     0.118 C 
HETATM   16  C10 UNK     1      20.430  -2.865  10.428  1.00  0.00     0.026 C 
ENDBRANCH  12  15
ENDBRANCH   3  12
BRANCH  10  17
HETATM   17  C14 UNK     1      18.893   1.651  18.398  1.00  0.00     0.299 C 
HETATM   18  O4  UNK     1      18.304   2.716  18.483  1.00  0.00    -0.259 OA
BRANCH  17  19
HETATM   19  O2  UNK     1      19.515   0.963  19.386  1.00  0.00    -0.318 OA
BRANCH  19  20
HETATM   20  C15 UNK     1      18.939   1.108  20.689  1.00  0.00     0.174 C 
HETATM   21  C16 UNK     1      19.822   2.012  21.521  1.00  0.00     0.034 C 
ENDBRANCH  19  20
ENDBRANCH  17  19
ENDBRANCH  10  17
TORSDOF 6
ENDMDL
