MODEL 1
REMARK VINA RESULT:     -11.7      0.000      0.000
REMARK  5 active torsions:
REMARK  status: ('A' for Active; 'I' for Inactive)
REMARK    1  A    between atoms: C2_11  and  N1_8 
REMARK       I    between atoms: C9_18  and  N1_8 
REMARK    2  A    between atoms: C10_19  and  N2_9 
REMARK       I    between atoms: C16_25  and  N2_9 
REMARK    3  A    between atoms: C1_10  and  C2_11 
REMARK    4  A    between atoms: C8_17  and  C9_18 
REMARK    5  A    between atoms: C13_22  and  C16_25 
ROOT
HETATM    1  S1  UNK     1      17.889  -1.836  37.856  1.00  0.00    -0.083 SA
HETATM    2  C8  UNK     1      19.357  -1.529  35.770  1.00  0.00     0.066 A 
HETATM    3  C10 UNK     1      18.887  -2.467  36.633  1.00  0.00     0.092 A 
HETATM    4  C17 UNK     1      18.884  -0.231  36.114  1.00  0.00     0.027 A 
HETATM    5  C21 UNK     1      18.075  -0.254  37.229  1.00  0.00     0.053 A 
ENDROOT
BRANCH   3   6
HETATM    6  N2  UNK     1      19.094  -3.850  36.671  1.00  0.00    -0.316 N 
HETATM    7  C16 UNK     1      20.201  -4.497  37.202  1.00  0.00     0.262 C 
HETATM    8  O5  UNK     1      21.195  -4.006  37.733  1.00  0.00    -0.267 OA
HETATM    9  H10 UNK     1      18.332  -4.423  36.322  1.00  0.00     0.169 HD
BRANCH   7  10
HETATM   10  C13 UNK     1      20.094  -5.955  37.076  1.00  0.00     0.108 A 
HETATM   11  C15 UNK     1      19.955  -6.638  38.218  1.00  0.00     0.037 A 
HETATM   12  C12 UNK     1      19.842  -8.089  38.195  1.00  0.00    -0.001 A 
HETATM   13  C14 UNK     1      19.881  -8.747  36.971  1.00  0.00     0.089 A 
HETATM   14  C18 UNK     1      19.696  -8.843  39.363  1.00  0.00     0.014 A 
HETATM   15  O3  UNK     1      20.028  -8.023  35.772  1.00  0.00    -0.274 OA
HETATM   16  C20 UNK     1      19.779 -10.135  36.881  1.00  0.00     0.038 A 
HETATM   17  C19 UNK     1      20.138  -6.635  35.762  1.00  0.00     0.304 A 
HETATM   18  O6  UNK     1      20.266  -6.013  34.713  1.00  0.00    -0.259 OA
HETATM   19  C23 UNK     1      19.632 -10.879  38.049  1.00  0.00     0.003 A 
HETATM   20  C22 UNK     1      19.592 -10.235  39.287  1.00  0.00     0.001 A 
ENDBRANCH   7  10
ENDBRANCH   3   6
BRANCH   2  21
HETATM   21  C9  UNK     1      20.220  -1.825  34.655  1.00  0.00     0.254 C 
HETATM   22  O4  UNK     1      21.418  -2.135  34.799  1.00  0.00    -0.268 OA
HETATM   23  N1  UNK     1      19.637  -1.777  33.380  1.00  0.00    -0.353 N 
HETATM   24  H6  UNK     1      18.626  -1.717  33.303  1.00  0.00     0.163 HD
BRANCH  23  25
HETATM   25  C2  UNK     1      20.363  -2.077  32.166  1.00  0.00     0.161 C 
BRANCH  25  26
HETATM   26  C1  UNK     1      19.952  -1.185  31.030  1.00  0.00    -0.038 A 
HETATM   27  C4  UNK     1      19.229  -0.025  31.298  1.00  0.00     0.048 A 
HETATM   28  C3  UNK     1      18.874   0.762  30.222  1.00  0.00     0.105 A 
HETATM   29  O1  UNK     1      18.168   1.925  30.283  1.00  0.00    -0.323 OA
HETATM   30  C5  UNK     1      19.215   0.424  28.933  1.00  0.00     0.105 A 
HETATM   31  C11 UNK     1      18.107   2.281  28.886  1.00  0.00     0.352 A 
HETATM   32  O2  UNK     1      18.768   1.333  28.024  1.00  0.00    -0.323 OA
HETATM   33  C7  UNK     1      19.931  -0.721  28.649  1.00  0.00     0.040 A 
HETATM   34  C6  UNK     1      20.304  -1.535  29.720  1.00  0.00     0.012 A 
ENDBRANCH  25  26
ENDBRANCH  23  25
ENDBRANCH   2  21
TORSDOF 5
ENDMDL
MODEL 2
REMARK VINA RESULT:     -10.9      3.653      8.374
REMARK  5 active torsions:
REMARK  status: ('A' for Active; 'I' for Inactive)
REMARK    1  A    between atoms: C2_11  and  N1_8 
REMARK       I    between atoms: C9_18  and  N1_8 
REMARK    2  A    between atoms: C10_19  and  N2_9 
REMARK       I    between atoms: C16_25  and  N2_9 
REMARK    3  A    between atoms: C1_10  and  C2_11 
REMARK    4  A    between atoms: C8_17  and  C9_18 
REMARK    5  A    between atoms: C13_22  and  C16_25 
ROOT
HETATM    1  S1  UNK     1      17.959  -0.916  37.444  1.00  0.00    -0.083 SA
HETATM    2  C8  UNK     1      19.735  -1.858  35.844  1.00  0.00     0.066 A 
HETATM    3  C10 UNK     1      18.928  -0.787  36.053  1.00  0.00     0.092 A 
HETATM    4  C17 UNK     1      19.563  -2.837  36.864  1.00  0.00     0.027 A 
HETATM    5  C21 UNK     1      18.626  -2.451  37.798  1.00  0.00     0.053 A 
ENDROOT
BRANCH   3   6
HETATM    6  N2  UNK     1      18.772   0.390  35.311  1.00  0.00    -0.316 N 
HETATM    7  C16 UNK     1      18.846   1.684  35.806  1.00  0.00     0.262 C 
HETATM    8  O5  UNK     1      19.058   2.054  36.959  1.00  0.00    -0.267 OA
HETATM    9  H10 UNK     1      18.646   0.271  34.311  1.00  0.00     0.169 HD
BRANCH   7  10
HETATM   10  C13 UNK     1      18.633   2.684  34.753  1.00  0.00     0.108 A 
HETATM   11  C15 UNK     1      19.270   3.850  34.908  1.00  0.00     0.037 A 
HETATM   12  C12 UNK     1      19.121   4.906  33.917  1.00  0.00    -0.001 A 
HETATM   13  C14 UNK     1      18.308   4.679  32.812  1.00  0.00     0.089 A 
HETATM   14  C18 UNK     1      19.768   6.138  34.039  1.00  0.00     0.014 A 
HETATM   15  O3  UNK     1      17.640   3.450  32.654  1.00  0.00    -0.274 OA
HETATM   16  C20 UNK     1      18.123   5.649  31.827  1.00  0.00     0.038 A 
HETATM   17  C19 UNK     1      17.763   2.423  33.585  1.00  0.00     0.304 A 
HETATM   18  O6  UNK     1      17.177   1.355  33.439  1.00  0.00    -0.259 OA
HETATM   19  C23 UNK     1      18.772   6.875  31.955  1.00  0.00     0.003 A 
HETATM   20  C22 UNK     1      19.592   7.119  33.059  1.00  0.00     0.001 A 
ENDBRANCH   7  10
ENDBRANCH   3   6
BRANCH   2  21
HETATM   21  C9  UNK     1      20.643  -1.976  34.732  1.00  0.00     0.254 C 
HETATM   22  O4  UNK     1      21.881  -1.958  34.874  1.00  0.00    -0.268 OA
HETATM   23  N1  UNK     1      20.065  -2.145  33.465  1.00  0.00    -0.353 N 
HETATM   24  H6  UNK     1      19.074  -2.352  33.400  1.00  0.00     0.163 HD
BRANCH  23  25
HETATM   25  C2  UNK     1      20.843  -2.307  32.257  1.00  0.00     0.161 C 
BRANCH  25  26
HETATM   26  C1  UNK     1      20.319  -1.459  31.133  1.00  0.00    -0.038 A 
HETATM   27  C4  UNK     1      19.571  -0.322  31.426  1.00  0.00     0.048 A 
HETATM   28  C3  UNK     1      19.111   0.425  30.361  1.00  0.00     0.105 A 
HETATM   29  O1  UNK     1      18.366   1.561  30.446  1.00  0.00    -0.323 OA
HETATM   30  C5  UNK     1      19.377   0.070  29.058  1.00  0.00     0.105 A 
HETATM   31  C11 UNK     1      18.194   1.881  29.049  1.00  0.00     0.352 A 
HETATM   32  O2  UNK     1      18.832   0.939  28.164  1.00  0.00    -0.323 OA
HETATM   33  C7  UNK     1      20.117  -1.053  28.750  1.00  0.00     0.040 A 
HETATM   34  C6  UNK     1      20.594  -1.827  29.810  1.00  0.00     0.012 A 
ENDBRANCH  25  26
ENDBRANCH  23  25
ENDBRANCH   2  21
TORSDOF 5
ENDMDL
MODEL 3
REMARK VINA RESULT:     -10.1      5.277      7.996
REMARK  5 active torsions:
REMARK  status: ('A' for Active; 'I' for Inactive)
REMARK    1  A    between atoms: C2_11  and  N1_8 
REMARK       I    between atoms: C9_18  and  N1_8 
REMARK    2  A    between atoms: C10_19  and  N2_9 
REMARK       I    between atoms: C16_25  and  N2_9 
REMARK    3  A    between atoms: C1_10  and  C2_11 
REMARK    4  A    between atoms: C8_17  and  C9_18 
REMARK    5  A    between atoms: C13_22  and  C16_25 
ROOT
HETATM    1  S1  UNK     1      20.724  -1.457  30.661  1.00  0.00    -0.083 SA
HETATM    2  C8  UNK     1      19.473   0.520  29.599  1.00  0.00     0.066 A 
HETATM    3  C10 UNK     1      19.741  -0.077  30.790  1.00  0.00     0.092 A 
HETATM    4  C17 UNK     1      20.096  -0.176  28.524  1.00  0.00     0.027 A 
HETATM    5  C21 UNK     1      20.808  -1.272  28.961  1.00  0.00     0.053 A 
ENDROOT
BRANCH   3   6
HETATM    6  N2  UNK     1      19.340   0.265  32.086  1.00  0.00    -0.316 N 
HETATM    7  C16 UNK     1      18.355  -0.369  32.831  1.00  0.00     0.262 C 
HETATM    8  O5  UNK     1      17.655  -1.329  32.517  1.00  0.00    -0.267 OA
HETATM    9  H10 UNK     1      19.863   1.013  32.531  1.00  0.00     0.169 HD
BRANCH   7  10
HETATM   10  C13 UNK     1      18.188   0.247  34.152  1.00  0.00     0.108 A 
HETATM   11  C15 UNK     1      18.259  -0.579  35.202  1.00  0.00     0.037 A 
HETATM   12  C12 UNK     1      18.104  -0.062  36.554  1.00  0.00    -0.001 A 
HETATM   13  C14 UNK     1      17.884   1.300  36.732  1.00  0.00     0.089 A 
HETATM   14  C18 UNK     1      18.170  -0.888  37.679  1.00  0.00     0.014 A 
HETATM   15  O3  UNK     1      17.812   2.165  35.623  1.00  0.00    -0.274 OA
HETATM   16  C20 UNK     1      17.729   1.858  37.999  1.00  0.00     0.038 A 
HETATM   17  C19 UNK     1      17.955   1.699  34.319  1.00  0.00     0.304 A 
HETATM   18  O6  UNK     1      17.890   2.460  33.359  1.00  0.00    -0.259 OA
HETATM   19  C23 UNK     1      17.796   1.028  39.116  1.00  0.00     0.003 A 
HETATM   20  C22 UNK     1      18.016  -0.342  38.957  1.00  0.00     0.001 A 
ENDBRANCH   7  10
ENDBRANCH   3   6
BRANCH   2  21
HETATM   21  C9  UNK     1      18.663   1.703  29.458  1.00  0.00     0.254 C 
HETATM   22  O4  UNK     1      17.479   1.661  29.075  1.00  0.00    -0.268 OA
HETATM   23  N1  UNK     1      19.266   2.921  29.804  1.00  0.00    -0.353 N 
HETATM   24  H6  UNK     1      20.155   2.909  30.295  1.00  0.00     0.163 HD
BRANCH  23  25
HETATM   25  C2  UNK     1      18.576   4.190  29.745  1.00  0.00     0.161 C 
BRANCH  25  26
HETATM   26  C1  UNK     1      18.920   5.071  30.912  1.00  0.00    -0.038 A 
HETATM   27  C4  UNK     1      17.927   5.417  31.824  1.00  0.00     0.048 A 
HETATM   28  C3  UNK     1      18.290   6.228  32.879  1.00  0.00     0.105 A 
HETATM   29  O1  UNK     1      17.465   6.672  33.866  1.00  0.00    -0.323 OA
HETATM   30  C5  UNK     1      19.580   6.683  33.032  1.00  0.00     0.105 A 
HETATM   31  C11 UNK     1      18.381   7.457  34.658  1.00  0.00     0.352 A 
HETATM   32  O2  UNK     1      19.724   7.468  34.134  1.00  0.00    -0.323 OA
HETATM   33  C7  UNK     1      20.577   6.351  32.138  1.00  0.00     0.040 A 
HETATM   34  C6  UNK     1      20.235   5.530  31.061  1.00  0.00     0.012 A 
ENDBRANCH  25  26
ENDBRANCH  23  25
ENDBRANCH   2  21
TORSDOF 5
ENDMDL
MODEL 4
REMARK VINA RESULT:     -10.0      3.568     10.969
REMARK  5 active torsions:
REMARK  status: ('A' for Active; 'I' for Inactive)
REMARK    1  A    between atoms: C2_11  and  N1_8 
REMARK       I    between atoms: C9_18  and  N1_8 
REMARK    2  A    between atoms: C10_19  and  N2_9 
REMARK       I    between atoms: C16_25  and  N2_9 
REMARK    3  A    between atoms: C1_10  and  C2_11 
REMARK    4  A    between atoms: C8_17  and  C9_18 
REMARK    5  A    between atoms: C13_22  and  C16_25 
ROOT
HETATM    1  S1  UNK     1      20.436  -0.457  29.227  1.00  0.00    -0.083 SA
HETATM    2  C8  UNK     1      19.640  -1.135  31.574  1.00  0.00     0.066 A 
HETATM    3  C10 UNK     1      19.798  -0.065  30.753  1.00  0.00     0.092 A 
HETATM    4  C17 UNK     1      20.055  -2.338  30.934  1.00  0.00     0.027 A 
HETATM    5  C21 UNK     1      20.510  -2.113  29.654  1.00  0.00     0.053 A 
ENDROOT
BRANCH   3   6
HETATM    6  N2  UNK     1      19.523   1.290  30.966  1.00  0.00    -0.316 N 
HETATM    7  C16 UNK     1      18.453   2.000  30.439  1.00  0.00     0.262 C 
HETATM    8  O5  UNK     1      17.556   1.598  29.700  1.00  0.00    -0.267 OA
HETATM    9  H10 UNK     1      20.140   1.773  31.611  1.00  0.00     0.169 HD
BRANCH   7  10
HETATM   10  C13 UNK     1      18.466   3.404  30.864  1.00  0.00     0.108 A 
HETATM   11  C15 UNK     1      18.224   3.631  32.161  1.00  0.00     0.037 A 
HETATM   12  C12 UNK     1      18.215   4.991  32.678  1.00  0.00    -0.001 A 
HETATM   13  C14 UNK     1      18.461   6.044  31.804  1.00  0.00     0.089 A 
HETATM   14  C18 UNK     1      17.967   5.274  34.024  1.00  0.00     0.014 A 
HETATM   15  O3  UNK     1      18.715   5.800  30.441  1.00  0.00    -0.274 OA
HETATM   16  C20 UNK     1      18.466   7.370  32.236  1.00  0.00     0.038 A 
HETATM   17  C19 UNK     1      18.730   4.510  29.917  1.00  0.00     0.304 A 
HETATM   18  O6  UNK     1      18.952   4.307  28.728  1.00  0.00    -0.259 OA
HETATM   19  C23 UNK     1      18.219   7.643  33.580  1.00  0.00     0.003 A 
HETATM   20  C22 UNK     1      17.970   6.598  34.471  1.00  0.00     0.001 A 
ENDBRANCH   7  10
ENDBRANCH   3   6
BRANCH   2  21
HETATM   21  C9  UNK     1      19.117  -1.051  32.914  1.00  0.00     0.254 C 
HETATM   22  O4  UNK     1      18.138  -0.339  33.206  1.00  0.00    -0.268 OA
HETATM   23  N1  UNK     1      19.750  -1.841  33.885  1.00  0.00    -0.353 N 
HETATM   24  H6  UNK     1      20.409  -2.553  33.587  1.00  0.00     0.163 HD
BRANCH  23  25
HETATM   25  C2  UNK     1      19.324  -1.888  35.266  1.00  0.00     0.161 C 
BRANCH  25  26
HETATM   26  C1  UNK     1      19.825  -3.119  35.966  1.00  0.00    -0.038 A 
HETATM   27  C4  UNK     1      19.888  -4.324  35.272  1.00  0.00     0.048 A 
HETATM   28  C3  UNK     1      20.354  -5.427  35.957  1.00  0.00     0.105 A 
HETATM   29  O1  UNK     1      20.486  -6.684  35.452  1.00  0.00    -0.323 OA
HETATM   30  C5  UNK     1      20.744  -5.349  37.275  1.00  0.00     0.105 A 
HETATM   31  C11 UNK     1      21.003  -7.388  36.600  1.00  0.00     0.352 A 
HETATM   32  O2  UNK     1      21.169  -6.547  37.760  1.00  0.00    -0.323 OA
HETATM   33  C7  UNK     1      20.688  -4.164  37.979  1.00  0.00     0.040 A 
HETATM   34  C6  UNK     1      20.220  -3.032  37.307  1.00  0.00     0.012 A 
ENDBRANCH  25  26
ENDBRANCH  23  25
ENDBRANCH   2  21
TORSDOF 5
ENDMDL
MODEL 5
REMARK VINA RESULT:      -9.8      2.558     10.295
REMARK  5 active torsions:
REMARK  status: ('A' for Active; 'I' for Inactive)
REMARK    1  A    between atoms: C2_11  and  N1_8 
REMARK       I    between atoms: C9_18  and  N1_8 
REMARK    2  A    between atoms: C10_19  and  N2_9 
REMARK       I    between atoms: C16_25  and  N2_9 
REMARK    3  A    between atoms: C1_10  and  C2_11 
REMARK    4  A    between atoms: C8_17  and  C9_18 
REMARK    5  A    between atoms: C13_22  and  C16_25 
ROOT
HETATM    1  S1  UNK     1      17.728   1.153  37.582  1.00  0.00    -0.083 SA
HETATM    2  C8  UNK     1      18.758  -0.959  36.545  1.00  0.00     0.066 A 
HETATM    3  C10 UNK     1      18.421   0.327  36.269  1.00  0.00     0.092 A 
HETATM    4  C17 UNK     1      18.440  -1.296  37.892  1.00  0.00     0.027 A 
HETATM    5  C21 UNK     1      17.873  -0.238  38.569  1.00  0.00     0.053 A 
ENDROOT
BRANCH   3   6
HETATM    6  N2  UNK     1      18.555   1.066  35.088  1.00  0.00    -0.316 N 
HETATM    7  C16 UNK     1      17.579   1.238  34.116  1.00  0.00     0.262 C 
HETATM    8  O5  UNK     1      16.433   0.793  34.093  1.00  0.00    -0.267 OA
HETATM    9  H10 UNK     1      19.433   1.560  34.970  1.00  0.00     0.169 HD
BRANCH   7  10
HETATM   10  C13 UNK     1      18.054   2.072  33.007  1.00  0.00     0.108 A 
HETATM   11  C15 UNK     1      17.934   3.395  33.168  1.00  0.00     0.037 A 
HETATM   12  C12 UNK     1      18.376   4.305  32.121  1.00  0.00    -0.001 A 
HETATM   13  C14 UNK     1      18.925   3.775  30.958  1.00  0.00     0.089 A 
HETATM   14  C18 UNK     1      18.269   5.692  32.247  1.00  0.00     0.014 A 
HETATM   15  O3  UNK     1      19.049   2.382  30.794  1.00  0.00    -0.274 OA
HETATM   16  C20 UNK     1      19.367   4.592  29.919  1.00  0.00     0.038 A 
HETATM   17  C19 UNK     1      18.634   1.488  31.777  1.00  0.00     0.304 A 
HETATM   18  O6  UNK     1      18.747   0.276  31.625  1.00  0.00    -0.259 OA
HETATM   19  C23 UNK     1      19.258   5.974  30.052  1.00  0.00     0.003 A 
HETATM   20  C22 UNK     1      18.710   6.523  31.213  1.00  0.00     0.001 A 
ENDBRANCH   7  10
ENDBRANCH   3   6
BRANCH   2  21
HETATM   21  C9  UNK     1      19.360  -1.855  35.591  1.00  0.00     0.254 C 
HETATM   22  O4  UNK     1      19.802  -1.466  34.493  1.00  0.00    -0.268 OA
HETATM   23  N1  UNK     1      19.456  -3.203  35.969  1.00  0.00    -0.353 N 
HETATM   24  H6  UNK     1      19.273  -3.457  36.935  1.00  0.00     0.163 HD
BRANCH  23  25
HETATM   25  C2  UNK     1      20.061  -4.217  35.135  1.00  0.00     0.161 C 
BRANCH  25  26
HETATM   26  C1  UNK     1      20.013  -5.574  35.777  1.00  0.00    -0.038 A 
HETATM   27  C4  UNK     1      19.864  -5.673  37.158  1.00  0.00     0.048 A 
HETATM   28  C3  UNK     1      19.825  -6.941  37.701  1.00  0.00     0.105 A 
HETATM   29  O1  UNK     1      19.688  -7.239  39.022  1.00  0.00    -0.323 OA
HETATM   30  C5  UNK     1      19.930  -8.068  36.918  1.00  0.00     0.105 A 
HETATM   31  C11 UNK     1      19.716  -8.681  38.982  1.00  0.00     0.352 A 
HETATM   32  O2  UNK     1      19.870  -9.213  37.651  1.00  0.00    -0.323 OA
HETATM   33  C7  UNK     1      20.079  -7.989  35.549  1.00  0.00     0.040 A 
HETATM   34  C6  UNK     1      20.120  -6.717  34.974  1.00  0.00     0.012 A 
ENDBRANCH  25  26
ENDBRANCH  23  25
ENDBRANCH   2  21
TORSDOF 5
ENDMDL
MODEL 6
REMARK VINA RESULT:      -9.8      4.802      6.407
REMARK  5 active torsions:
REMARK  status: ('A' for Active; 'I' for Inactive)
REMARK    1  A    between atoms: C2_11  and  N1_8 
REMARK       I    between atoms: C9_18  and  N1_8 
REMARK    2  A    between atoms: C10_19  and  N2_9 
REMARK       I    between atoms: C16_25  and  N2_9 
REMARK    3  A    between atoms: C1_10  and  C2_11 
REMARK    4  A    between atoms: C8_17  and  C9_18 
REMARK    5  A    between atoms: C13_22  and  C16_25 
ROOT
HETATM    1  S1  UNK     1      20.577  -9.144  37.508  1.00  0.00    -0.083 SA
HETATM    2  C8  UNK     1      20.331  -6.587  37.435  1.00  0.00     0.066 A 
HETATM    3  C10 UNK     1      21.241  -7.582  37.601  1.00  0.00     0.092 A 
HETATM    4  C17 UNK     1      19.026  -7.116  37.219  1.00  0.00     0.027 A 
HETATM    5  C21 UNK     1      19.018  -8.494  37.235  1.00  0.00     0.053 A 
ENDROOT
BRANCH   3   6
HETATM    6  N2  UNK     1      22.619  -7.520  37.834  1.00  0.00    -0.316 N 
HETATM    7  C16 UNK     1      23.252  -7.716  39.054  1.00  0.00     0.262 C 
HETATM    8  O5  UNK     1      22.750  -7.976  40.145  1.00  0.00    -0.267 OA
HETATM    9  H10 UNK     1      23.202  -7.371  37.017  1.00  0.00     0.169 HD
BRANCH   7  10
HETATM   10  C13 UNK     1      24.709  -7.578  38.942  1.00  0.00     0.108 A 
HETATM   11  C15 UNK     1      25.411  -8.717  38.926  1.00  0.00     0.037 A 
HETATM   12  C12 UNK     1      26.862  -8.682  38.818  1.00  0.00    -0.001 A 
HETATM   13  C14 UNK     1      27.501  -7.450  38.732  1.00  0.00     0.089 A 
HETATM   14  C18 UNK     1      27.634  -9.847  38.798  1.00  0.00     0.014 A 
HETATM   15  O3  UNK     1      26.757  -6.255  38.749  1.00  0.00    -0.274 OA
HETATM   16  C20 UNK     1      28.887  -7.349  38.628  1.00  0.00     0.038 A 
HETATM   17  C19 UNK     1      25.368  -6.256  38.852  1.00  0.00     0.304 A 
HETATM   18  O6  UNK     1      24.729  -5.209  38.866  1.00  0.00    -0.259 OA
HETATM   19  C23 UNK     1      29.650  -8.514  38.608  1.00  0.00     0.003 A 
HETATM   20  C22 UNK     1      29.026  -9.760  38.693  1.00  0.00     0.001 A 
ENDBRANCH   7  10
ENDBRANCH   3   6
BRANCH   2  21
HETATM   21  C9  UNK     1      20.658  -5.185  37.473  1.00  0.00     0.254 C 
HETATM   22  O4  UNK     1      21.832  -4.772  37.516  1.00  0.00    -0.268 OA
HETATM   23  N1  UNK     1      19.579  -4.288  37.427  1.00  0.00    -0.353 N 
HETATM   24  H6  UNK     1      18.656  -4.640  37.194  1.00  0.00     0.163 HD
BRANCH  23  25
HETATM   25  C2  UNK     1      19.745  -2.852  37.426  1.00  0.00     0.161 C 
BRANCH  25  26
HETATM   26  C1  UNK     1      19.362  -2.243  36.108  1.00  0.00    -0.038 A 
HETATM   27  C4  UNK     1      20.150  -2.486  34.987  1.00  0.00     0.048 A 
HETATM   28  C3  UNK     1      19.758  -1.905  33.798  1.00  0.00     0.105 A 
HETATM   29  O1  UNK     1      20.398  -2.023  32.603  1.00  0.00    -0.323 OA
HETATM   30  C5  UNK     1      18.634  -1.116  33.714  1.00  0.00     0.105 A 
HETATM   31  C11 UNK     1      19.548  -1.221  31.756  1.00  0.00     0.352 A 
HETATM   32  O2  UNK     1      18.428  -0.642  32.455  1.00  0.00    -0.323 OA
HETATM   33  C7  UNK     1      17.840  -0.864  34.814  1.00  0.00     0.040 A 
HETATM   34  C6  UNK     1      18.215  -1.441  36.030  1.00  0.00     0.012 A 
ENDBRANCH  25  26
ENDBRANCH  23  25
ENDBRANCH   2  21
TORSDOF 5
ENDMDL
MODEL 7
REMARK VINA RESULT:      -9.7      5.477     12.313
REMARK  5 active torsions:
REMARK  status: ('A' for Active; 'I' for Inactive)
REMARK    1  A    between atoms: C2_11  and  N1_8 
REMARK       I    between atoms: C9_18  and  N1_8 
REMARK    2  A    between atoms: C10_19  and  N2_9 
REMARK       I    between atoms: C16_25  and  N2_9 
REMARK    3  A    between atoms: C1_10  and  C2_11 
REMARK    4  A    between atoms: C8_17  and  C9_18 
REMARK    5  A    between atoms: C13_22  and  C16_25 
ROOT
HETATM    1  S1  UNK     1      18.718   3.048  29.652  1.00  0.00    -0.083 SA
HETATM    2  C8  UNK     1      18.408   2.212  32.061  1.00  0.00     0.066 A 
HETATM    3  C10 UNK     1      18.206   3.286  31.255  1.00  0.00     0.092 A 
HETATM    4  C17 UNK     1      19.008   1.137  31.344  1.00  0.00     0.027 A 
HETATM    5  C21 UNK     1      19.231   1.458  30.023  1.00  0.00     0.053 A 
ENDROOT
BRANCH   3   6
HETATM    6  N2  UNK     1      17.651   4.539  31.535  1.00  0.00    -0.316 N 
HETATM    7  C16 UNK     1      18.306   5.611  32.125  1.00  0.00     0.262 C 
HETATM    8  O5  UNK     1      19.473   5.680  32.508  1.00  0.00    -0.267 OA
HETATM    9  H10 UNK     1      16.695   4.681  31.226  1.00  0.00     0.169 HD
BRANCH   7  10
HETATM   10  C13 UNK     1      17.425   6.775  32.274  1.00  0.00     0.108 A 
HETATM   11  C15 UNK     1      17.123   7.130  33.528  1.00  0.00     0.037 A 
HETATM   12  C12 UNK     1      16.255   8.271  33.778  1.00  0.00    -0.001 A 
HETATM   13  C14 UNK     1      15.750   8.982  32.695  1.00  0.00     0.089 A 
HETATM   14  C18 UNK     1      15.913   8.677  35.071  1.00  0.00     0.014 A 
HETATM   15  O3  UNK     1      16.072   8.604  31.377  1.00  0.00    -0.274 OA
HETATM   16  C20 UNK     1      14.914  10.084  32.867  1.00  0.00     0.038 A 
HETATM   17  C19 UNK     1      16.899   7.517  31.107  1.00  0.00     0.304 A 
HETATM   18  O6  UNK     1      17.174   7.195  29.956  1.00  0.00    -0.259 OA
HETATM   19  C23 UNK     1      14.578  10.482  34.158  1.00  0.00     0.003 A 
HETATM   20  C22 UNK     1      15.075   9.780  35.258  1.00  0.00     0.001 A 
ENDBRANCH   7  10
ENDBRANCH   3   6
BRANCH   2  21
HETATM   21  C9  UNK     1      18.055   2.177  33.457  1.00  0.00     0.254 C 
HETATM   22  O4  UNK     1      18.363   3.088  34.248  1.00  0.00    -0.268 OA
HETATM   23  N1  UNK     1      17.310   1.069  33.889  1.00  0.00    -0.353 N 
HETATM   24  H6  UNK     1      16.906   0.447  33.195  1.00  0.00     0.163 HD
BRANCH  23  25
HETATM   25  C2  UNK     1      16.854   0.905  35.251  1.00  0.00     0.161 C 
BRANCH  25  26
HETATM   26  C1  UNK     1      17.627  -0.158  35.977  1.00  0.00    -0.038 A 
HETATM   27  C4  UNK     1      18.542  -0.939  35.276  1.00  0.00     0.048 A 
HETATM   28  C3  UNK     1      19.228  -1.903  35.987  1.00  0.00     0.105 A 
HETATM   29  O1  UNK     1      20.155  -2.760  35.478  1.00  0.00    -0.323 OA
HETATM   30  C5  UNK     1      19.022  -2.093  37.334  1.00  0.00     0.105 A 
HETATM   31  C11 UNK     1      20.512  -3.509  36.658  1.00  0.00     0.352 A 
HETATM   32  O2  UNK     1      19.796  -3.092  37.839  1.00  0.00    -0.323 OA
HETATM   33  C7  UNK     1      18.120  -1.329  38.045  1.00  0.00     0.040 A 
HETATM   34  C6  UNK     1      17.413  -0.346  37.349  1.00  0.00     0.012 A 
ENDBRANCH  25  26
ENDBRANCH  23  25
ENDBRANCH   2  21
TORSDOF 5
ENDMDL
MODEL 8
REMARK VINA RESULT:      -9.7      4.911      6.581
REMARK  5 active torsions:
REMARK  status: ('A' for Active; 'I' for Inactive)
REMARK    1  A    between atoms: C2_11  and  N1_8 
REMARK       I    between atoms: C9_18  and  N1_8 
REMARK    2  A    between atoms: C10_19  and  N2_9 
REMARK       I    between atoms: C16_25  and  N2_9 
REMARK    3  A    between atoms: C1_10  and  C2_11 
REMARK    4  A    between atoms: C8_17  and  C9_18 
REMARK    5  A    between atoms: C13_22  and  C16_25 
ROOT
HETATM    1  S1  UNK     1      20.326  -9.475  37.366  1.00  0.00    -0.083 SA
HETATM    2  C8  UNK     1      20.335  -6.908  37.466  1.00  0.00     0.066 A 
HETATM    3  C10 UNK     1      21.153  -7.991  37.426  1.00  0.00     0.092 A 
HETATM    4  C17 UNK     1      18.965  -7.297  37.446  1.00  0.00     0.027 A 
HETATM    5  C21 UNK     1      18.817  -8.666  37.393  1.00  0.00     0.053 A 
ENDROOT
BRANCH   3   6
HETATM    6  N2  UNK     1      22.549  -8.074  37.426  1.00  0.00    -0.316 N 
HETATM    7  C16 UNK     1      23.364  -8.156  38.547  1.00  0.00     0.262 C 
HETATM    8  O5  UNK     1      23.037  -8.175  39.733  1.00  0.00    -0.267 OA
HETATM    9  H10 UNK     1      22.992  -8.131  36.515  1.00  0.00     0.169 HD
BRANCH   7  10
HETATM   10  C13 UNK     1      24.784  -8.228  38.187  1.00  0.00     0.108 A 
HETATM   11  C15 UNK     1      25.602  -7.394  38.839  1.00  0.00     0.037 A 
HETATM   12  C12 UNK     1      27.029  -7.390  38.550  1.00  0.00    -0.001 A 
HETATM   13  C14 UNK     1      27.522  -8.266  37.588  1.00  0.00     0.089 A 
HETATM   14  C18 UNK     1      27.919  -6.537  39.206  1.00  0.00     0.014 A 
HETATM   15  O3  UNK     1      26.656  -9.142  36.906  1.00  0.00    -0.274 OA
HETATM   16  C20 UNK     1      28.877  -8.312  37.265  1.00  0.00     0.038 A 
HETATM   17  C19 UNK     1      25.288  -9.168  37.160  1.00  0.00     0.304 A 
HETATM   18  O6  UNK     1      24.541  -9.934  36.560  1.00  0.00    -0.259 OA
HETATM   19  C23 UNK     1      29.759  -7.458  37.924  1.00  0.00     0.003 A 
HETATM   20  C22 UNK     1      29.281  -6.572  38.892  1.00  0.00     0.001 A 
ENDBRANCH   7  10
ENDBRANCH   3   6
BRANCH   2  21
HETATM   21  C9  UNK     1      20.805  -5.547  37.520  1.00  0.00     0.254 C 
HETATM   22  O4  UNK     1      22.017  -5.258  37.525  1.00  0.00    -0.268 OA
HETATM   23  N1  UNK     1      19.824  -4.544  37.536  1.00  0.00    -0.353 N 
HETATM   24  H6  UNK     1      18.861  -4.794  37.333  1.00  0.00     0.163 HD
BRANCH  23  25
HETATM   25  C2  UNK     1      20.137  -3.133  37.559  1.00  0.00     0.161 C 
BRANCH  25  26
HETATM   26  C1  UNK     1      19.554  -2.410  36.378  1.00  0.00    -0.038 A 
HETATM   27  C4  UNK     1      20.178  -2.509  35.138  1.00  0.00     0.048 A 
HETATM   28  C3  UNK     1      19.606  -1.827  34.084  1.00  0.00     0.105 A 
HETATM   29  O1  UNK     1      20.069  -1.801  32.805  1.00  0.00    -0.323 OA
HETATM   30  C5  UNK     1      18.464  -1.076  34.242  1.00  0.00     0.105 A 
HETATM   31  C11 UNK     1      19.089  -0.950  32.175  1.00  0.00     0.352 A 
HETATM   32  O2  UNK     1      18.068  -0.486  33.081  1.00  0.00    -0.323 OA
HETATM   33  C7  UNK     1      17.832  -0.965  35.464  1.00  0.00     0.040 A 
HETATM   34  C6  UNK     1      18.391  -1.647  36.547  1.00  0.00     0.012 A 
ENDBRANCH  25  26
ENDBRANCH  23  25
ENDBRANCH   2  21
TORSDOF 5
ENDMDL
MODEL 9
REMARK VINA RESULT:      -9.5     27.032     28.683
REMARK  5 active torsions:
REMARK  status: ('A' for Active; 'I' for Inactive)
REMARK    1  A    between atoms: C2_11  and  N1_8 
REMARK       I    between atoms: C9_18  and  N1_8 
REMARK    2  A    between atoms: C10_19  and  N2_9 
REMARK       I    between atoms: C16_25  and  N2_9 
REMARK    3  A    between atoms: C1_10  and  C2_11 
REMARK    4  A    between atoms: C8_17  and  C9_18 
REMARK    5  A    between atoms: C13_22  and  C16_25 
ROOT
HETATM    1  S1  UNK     1       8.545   6.492   6.529  1.00  0.00    -0.083 SA
HETATM    2  C8  UNK     1      10.700   6.033   7.850  1.00  0.00     0.066 A 
HETATM    3  C10 UNK     1       9.348   6.075   7.968  1.00  0.00     0.092 A 
HETATM    4  C17 UNK     1      11.110   6.353   6.524  1.00  0.00     0.027 A 
HETATM    5  C21 UNK     1      10.038   6.624   5.702  1.00  0.00     0.053 A 
ENDROOT
BRANCH   3   6
HETATM    6  N2  UNK     1       8.526   5.833   9.074  1.00  0.00    -0.316 N 
HETATM    7  C16 UNK     1       7.516   4.884   9.151  1.00  0.00     0.262 C 
HETATM    8  O5  UNK     1       7.148   4.085   8.292  1.00  0.00    -0.267 OA
HETATM    9  H10 UNK     1       8.733   6.373   9.909  1.00  0.00     0.169 HD
BRANCH   7  10
HETATM   10  C13 UNK     1       6.850   4.899  10.458  1.00  0.00     0.108 A 
HETATM   11  C15 UNK     1       6.349   3.732  10.879  1.00  0.00     0.037 A 
HETATM   12  C12 UNK     1       5.669   3.647  12.164  1.00  0.00    -0.001 A 
HETATM   13  C14 UNK     1       5.552   4.795  12.940  1.00  0.00     0.089 A 
HETATM   14  C18 UNK     1       5.131   2.450  12.642  1.00  0.00     0.014 A 
HETATM   15  O3  UNK     1       6.082   6.020  12.491  1.00  0.00    -0.274 OA
HETATM   16  C20 UNK     1       4.913   4.780  14.178  1.00  0.00     0.038 A 
HETATM   17  C19 UNK     1       6.737   6.133  11.268  1.00  0.00     0.304 A 
HETATM   18  O6  UNK     1       7.195   7.204  10.886  1.00  0.00    -0.259 OA
HETATM   19  C23 UNK     1       4.379   3.582  14.649  1.00  0.00     0.003 A 
HETATM   20  C22 UNK     1       4.487   2.420  13.883  1.00  0.00     0.001 A 
ENDBRANCH   7  10
ENDBRANCH   3   6
BRANCH   2  21
HETATM   21  C9  UNK     1      11.591   5.703   8.933  1.00  0.00     0.254 C 
HETATM   22  O4  UNK     1      11.222   5.056   9.931  1.00  0.00    -0.268 OA
HETATM   23  N1  UNK     1      12.923   6.123   8.799  1.00  0.00    -0.353 N 
HETATM   24  H6  UNK     1      13.242   6.470   7.900  1.00  0.00     0.163 HD
BRANCH  23  25
HETATM   25  C2  UNK     1      13.943   5.844   9.785  1.00  0.00     0.161 C 
BRANCH  25  26
HETATM   26  C1  UNK     1      15.031   6.879   9.777  1.00  0.00    -0.038 A 
HETATM   27  C4  UNK     1      14.738   8.176   9.364  1.00  0.00     0.048 A 
HETATM   28  C3  UNK     1      15.770   9.092   9.374  1.00  0.00     0.105 A 
HETATM   29  O1  UNK     1      15.680  10.399   9.005  1.00  0.00    -0.323 OA
HETATM   30  C5  UNK     1      17.041   8.748   9.774  1.00  0.00     0.105 A 
HETATM   31  C11 UNK     1      17.037  10.839   9.220  1.00  0.00     0.352 A 
HETATM   32  O2  UNK     1      17.906   9.796   9.707  1.00  0.00    -0.323 OA
HETATM   33  C7  UNK     1      17.349   7.468  10.186  1.00  0.00     0.040 A 
HETATM   34  C6  UNK     1      16.322   6.521  10.186  1.00  0.00     0.012 A 
ENDBRANCH  25  26
ENDBRANCH  23  25
ENDBRANCH   2  21
TORSDOF 5
ENDMDL
MODEL 10
REMARK VINA RESULT:      -9.4      4.969     10.422
REMARK  5 active torsions:
REMARK  status: ('A' for Active; 'I' for Inactive)
REMARK    1  A    between atoms: C2_11  and  N1_8 
REMARK       I    between atoms: C9_18  and  N1_8 
REMARK    2  A    between atoms: C10_19  and  N2_9 
REMARK       I    between atoms: C16_25  and  N2_9 
REMARK    3  A    between atoms: C1_10  and  C2_11 
REMARK    4  A    between atoms: C8_17  and  C9_18 
REMARK    5  A    between atoms: C13_22  and  C16_25 
ROOT
HETATM    1  S1  UNK     1      19.044  -7.511  38.292  1.00  0.00    -0.083 SA
HETATM    2  C8  UNK     1      21.538  -6.985  38.609  1.00  0.00     0.066 A 
HETATM    3  C10 UNK     1      20.367  -6.450  38.178  1.00  0.00     0.092 A 
HETATM    4  C17 UNK     1      21.357  -8.324  39.058  1.00  0.00     0.027 A 
HETATM    5  C21 UNK     1      20.048  -8.736  38.940  1.00  0.00     0.053 A 
ENDROOT
BRANCH   3   6
HETATM    6  N2  UNK     1      20.085  -5.181  37.662  1.00  0.00    -0.316 N 
HETATM    7  C16 UNK     1      20.002  -4.844  36.318  1.00  0.00     0.262 C 
HETATM    8  O5  UNK     1      20.152  -5.567  35.336  1.00  0.00    -0.267 OA
HETATM    9  H10 UNK     1      19.871  -4.460  38.345  1.00  0.00     0.169 HD
BRANCH   7  10
HETATM   10  C13 UNK     1      19.690  -3.422  36.129  1.00  0.00     0.108 A 
HETATM   11  C15 UNK     1      18.988  -2.837  37.106  1.00  0.00     0.037 A 
HETATM   12  C12 UNK     1      18.629  -1.429  37.009  1.00  0.00    -0.001 A 
HETATM   13  C14 UNK     1      19.029  -0.710  35.888  1.00  0.00     0.089 A 
HETATM   14  C18 UNK     1      17.897  -0.778  38.004  1.00  0.00     0.014 A 
HETATM   15  O3  UNK     1      19.768  -1.331  34.864  1.00  0.00    -0.274 OA
HETATM   16  C20 UNK     1      18.717   0.640  35.735  1.00  0.00     0.038 A 
HETATM   17  C19 UNK     1      20.126  -2.675  34.928  1.00  0.00     0.304 A 
HETATM   18  O6  UNK     1      20.770  -3.208  34.031  1.00  0.00    -0.259 OA
HETATM   19  C23 UNK     1      17.987   1.283  36.732  1.00  0.00     0.003 A 
HETATM   20  C22 UNK     1      17.578   0.576  37.864  1.00  0.00     0.001 A 
ENDBRANCH   7  10
ENDBRANCH   3   6
BRANCH   2  21
HETATM   21  C9  UNK     1      22.793  -6.277  38.609  1.00  0.00     0.254 C 
HETATM   22  O4  UNK     1      22.873  -5.056  38.378  1.00  0.00    -0.268 OA
HETATM   23  N1  UNK     1      23.938  -7.029  38.916  1.00  0.00    -0.353 N 
HETATM   24  H6  UNK     1      23.825  -7.966  39.291  1.00  0.00     0.163 HD
BRANCH  23  25
HETATM   25  C2  UNK     1      25.263  -6.457  38.986  1.00  0.00     0.161 C 
BRANCH  25  26
HETATM   26  C1  UNK     1      26.332  -7.513  38.962  1.00  0.00    -0.038 A 
HETATM   27  C4  UNK     1      27.603  -7.189  38.495  1.00  0.00     0.048 A 
HETATM   28  C3  UNK     1      28.551  -8.192  38.493  1.00  0.00     0.105 A 
HETATM   29  O1  UNK     1      29.840  -8.069  38.074  1.00  0.00    -0.323 OA
HETATM   30  C5  UNK     1      28.262  -9.463  38.931  1.00  0.00     0.105 A 
HETATM   31  C11 UNK     1      30.330  -9.407  38.301  1.00  0.00     0.352 A 
HETATM   32  O2  UNK     1      29.334 -10.297  38.843  1.00  0.00    -0.323 OA
HETATM   33  C7  UNK     1      27.008  -9.802  39.397  1.00  0.00     0.040 A 
HETATM   34  C6  UNK     1      26.030  -8.805  39.411  1.00  0.00     0.012 A 
ENDBRANCH  25  26
ENDBRANCH  23  25
ENDBRANCH   2  21
TORSDOF 5
ENDMDL
