MODEL 1
REMARK VINA RESULT:      -8.9      0.000      0.000
REMARK  3 active torsions:
REMARK  status: ('A' for Active; 'I' for Inactive)
REMARK    1  A    between atoms: C12_16  and  O3_3 
REMARK    2  A    between atoms: C13_17  and  O3_3 
REMARK    3  A    between atoms: C13_17  and  C14_18 
ROOT
HETATM    1  O1  UNK     1      19.557   1.048  29.180  1.00  0.00    -0.274 OA
HETATM    2  O2  UNK     1      20.431  -0.762  28.070  1.00  0.00    -0.259 OA
HETATM    3  C1  UNK     1      19.630  -1.444  32.648  1.00  0.00     0.040 C 
HETATM    4  C2  UNK     1      20.511  -2.556  32.066  1.00  0.00     0.009 C 
HETATM    5  C3  UNK     1      19.551  -0.477  31.519  1.00  0.00    -0.033 A 
HETATM    6  C4  UNK     1      20.440  -2.417  30.542  1.00  0.00     0.046 C 
HETATM    7  C5  UNK     1      19.994  -1.007  30.376  1.00  0.00     0.025 A 
HETATM    8  C6  UNK     1      19.058   0.883  31.570  1.00  0.00     0.005 A 
HETATM    9  C7  UNK     1      19.076   1.621  30.383  1.00  0.00     0.093 A 
HETATM   10  C8  UNK     1      20.025  -0.265  29.113  1.00  0.00     0.295 A 
HETATM   11  C9  UNK     1      18.569   1.493  32.728  1.00  0.00     0.017 A 
HETATM   12  C10 UNK     1      18.625   2.938  30.328  1.00  0.00     0.075 A 
HETATM   13  C11 UNK     1      18.113   2.815  32.686  1.00  0.00     0.038 A 
HETATM   14  C12 UNK     1      18.141   3.534  31.489  1.00  0.00     0.082 A 
ENDROOT
BRANCH  14  15
HETATM   15  O3  UNK     1      17.695   4.820  31.460  1.00  0.00    -0.275 OA
BRANCH  15  16
HETATM   16  C13 UNK     1      18.681   5.778  31.704  1.00  0.00     0.298 C 
HETATM   17  O4  UNK     1      19.659   5.987  31.000  1.00  0.00    -0.259 OA
BRANCH  16  18
HETATM   18  C14 UNK     1      18.394   6.543  32.944  1.00  0.00     0.039 A 
HETATM   19  C15 UNK     1      19.413   7.256  33.538  1.00  0.00     0.017 A 
HETATM   20  C17 UNK     1      19.143   7.974  34.703  1.00  0.00     0.001 A 
HETATM   21  C19 UNK     1      17.859   7.962  35.247  1.00  0.00     0.000 A 
HETATM   22  C18 UNK     1      16.846   7.232  34.628  1.00  0.00     0.001 A 
HETATM   23  C16 UNK     1      17.116   6.514  33.463  1.00  0.00     0.017 A 
ENDBRANCH  16  18
ENDBRANCH  15  16
ENDBRANCH  14  15
TORSDOF 3
ENDMDL
MODEL 2
REMARK VINA RESULT:      -8.8      1.520      2.233
REMARK  3 active torsions:
REMARK  status: ('A' for Active; 'I' for Inactive)
REMARK    1  A    between atoms: C12_16  and  O3_3 
REMARK    2  A    between atoms: C13_17  and  O3_3 
REMARK    3  A    between atoms: C13_17  and  C14_18 
ROOT
HETATM    1  O1  UNK     1      18.867   0.367  33.065  1.00  0.00    -0.274 OA
HETATM    2  O2  UNK     1      19.523  -1.691  33.846  1.00  0.00    -0.259 OA
HETATM    3  C1  UNK     1      20.424  -0.917  29.301  1.00  0.00     0.040 C 
HETATM    4  C2  UNK     1      20.574  -2.402  29.653  1.00  0.00     0.009 C 
HETATM    5  C3  UNK     1      19.849  -0.351  30.552  1.00  0.00    -0.033 A 
HETATM    6  C4  UNK     1      20.579  -2.490  31.183  1.00  0.00     0.046 C 
HETATM    7  C5  UNK     1      19.932  -1.207  31.572  1.00  0.00     0.025 A 
HETATM    8  C6  UNK     1      19.263   0.962  30.725  1.00  0.00     0.005 A 
HETATM    9  C7  UNK     1      18.779   1.290  31.994  1.00  0.00     0.093 A 
HETATM   10  C8  UNK     1      19.438  -0.897  32.916  1.00  0.00     0.295 A 
HETATM   11  C9  UNK     1      19.157   1.910  29.705  1.00  0.00     0.017 A 
HETATM   12  C10 UNK     1      18.196   2.527  32.263  1.00  0.00     0.075 A 
HETATM   13  C11 UNK     1      18.574   3.156  29.961  1.00  0.00     0.038 A 
HETATM   14  C12 UNK     1      18.096   3.463  31.237  1.00  0.00     0.082 A 
ENDROOT
BRANCH  14  15
HETATM   15  O3  UNK     1      17.530   4.678  31.475  1.00  0.00    -0.275 OA
BRANCH  15  16
HETATM   16  C13 UNK     1      18.420   5.752  31.409  1.00  0.00     0.298 C 
HETATM   17  O4  UNK     1      19.099   6.054  30.438  1.00  0.00    -0.259 OA
BRANCH  16  18
HETATM   18  C14 UNK     1      18.441   6.513  32.684  1.00  0.00     0.039 A 
HETATM   19  C15 UNK     1      19.620   7.104  33.087  1.00  0.00     0.017 A 
HETATM   20  C17 UNK     1      19.640   7.819  34.285  1.00  0.00     0.001 A 
HETATM   21  C19 UNK     1      18.480   7.926  35.052  1.00  0.00     0.000 A 
HETATM   22  C18 UNK     1      17.301   7.318  34.623  1.00  0.00     0.001 A 
HETATM   23  C16 UNK     1      17.282   6.603  33.425  1.00  0.00     0.017 A 
ENDBRANCH  16  18
ENDBRANCH  15  16
ENDBRANCH  14  15
TORSDOF 3
ENDMDL
MODEL 3
REMARK VINA RESULT:      -8.6     22.326     24.187
REMARK  3 active torsions:
REMARK  status: ('A' for Active; 'I' for Inactive)
REMARK    1  A    between atoms: C12_16  and  O3_3 
REMARK    2  A    between atoms: C13_17  and  O3_3 
REMARK    3  A    between atoms: C13_17  and  C14_18 
ROOT
HETATM    1  O1  UNK     1      11.180   5.469   9.962  1.00  0.00    -0.274 OA
HETATM    2  O2  UNK     1       8.892   5.300   9.890  1.00  0.00    -0.259 OA
HETATM    3  C1  UNK     1      10.932   6.340   5.788  1.00  0.00     0.040 C 
HETATM    4  C2  UNK     1       9.418   6.579   5.733  1.00  0.00     0.009 C 
HETATM    5  C3  UNK     1      11.155   6.048   7.231  1.00  0.00    -0.033 A 
HETATM    6  C4  UNK     1       8.825   5.915   6.980  1.00  0.00     0.046 C 
HETATM    7  C5  UNK     1      10.009   5.820   7.877  1.00  0.00     0.025 A 
HETATM    8  C6  UNK     1      12.426   5.991   7.921  1.00  0.00     0.005 A 
HETATM    9  C7  UNK     1      12.405   5.701   9.288  1.00  0.00     0.093 A 
HETATM   10  C8  UNK     1       9.949   5.510   9.308  1.00  0.00     0.295 A 
HETATM   11  C9  UNK     1      13.660   6.205   7.303  1.00  0.00     0.017 A 
HETATM   12  C10 UNK     1      13.574   5.623  10.043  1.00  0.00     0.075 A 
HETATM   13  C11 UNK     1      14.841   6.131   8.049  1.00  0.00     0.038 A 
HETATM   14  C12 UNK     1      14.798   5.841   9.414  1.00  0.00     0.082 A 
ENDROOT
BRANCH  14  15
HETATM   15  O3  UNK     1      15.953   5.771  10.131  1.00  0.00    -0.275 OA
BRANCH  15  16
HETATM   16  C13 UNK     1      16.782   6.887  10.000  1.00  0.00     0.298 C 
HETATM   17  O4  UNK     1      17.915   6.882   9.540  1.00  0.00    -0.259 OA
BRANCH  16  18
HETATM   18  C14 UNK     1      16.108   8.118  10.487  1.00  0.00     0.039 A 
HETATM   19  C15 UNK     1      16.044   9.216   9.655  1.00  0.00     0.017 A 
HETATM   20  C17 UNK     1      15.412  10.372  10.113  1.00  0.00     0.001 A 
HETATM   21  C19 UNK     1      14.858  10.403  11.392  1.00  0.00     0.000 A 
HETATM   22  C18 UNK     1      14.937   9.280  12.214  1.00  0.00     0.001 A 
HETATM   23  C16 UNK     1      15.569   8.124  11.756  1.00  0.00     0.017 A 
ENDBRANCH  16  18
ENDBRANCH  15  16
ENDBRANCH  14  15
TORSDOF 3
ENDMDL
MODEL 4
REMARK VINA RESULT:      -8.4     14.337     16.754
REMARK  3 active torsions:
REMARK  status: ('A' for Active; 'I' for Inactive)
REMARK    1  A    between atoms: C12_16  and  O3_3 
REMARK    2  A    between atoms: C13_17  and  O3_3 
REMARK    3  A    between atoms: C13_17  and  C14_18 
ROOT
HETATM    1  O1  UNK     1      32.339  -7.084  37.729  1.00  0.00    -0.274 OA
HETATM    2  O2  UNK     1      34.382  -7.636  36.839  1.00  0.00    -0.259 OA
HETATM    3  C1  UNK     1      32.958  -3.248  35.956  1.00  0.00     0.040 C 
HETATM    4  C2  UNK     1      34.141  -3.639  35.062  1.00  0.00     0.009 C 
HETATM    5  C3  UNK     1      32.623  -4.537  36.622  1.00  0.00    -0.033 A 
HETATM    6  C4  UNK     1      34.719  -4.933  35.645  1.00  0.00     0.046 C 
HETATM    7  C5  UNK     1      33.580  -5.451  36.450  1.00  0.00     0.025 A 
HETATM    8  C6  UNK     1      31.431  -4.837  37.388  1.00  0.00     0.005 A 
HETATM    9  C7  UNK     1      31.319  -6.121  37.928  1.00  0.00     0.093 A 
HETATM   10  C8  UNK     1      33.497  -6.806  37.002  1.00  0.00     0.295 A 
HETATM   11  C9  UNK     1      30.401  -3.923  37.618  1.00  0.00     0.017 A 
HETATM   12  C10 UNK     1      30.211  -6.509  38.680  1.00  0.00     0.075 A 
HETATM   13  C11 UNK     1      29.283  -4.300  38.371  1.00  0.00     0.038 A 
HETATM   14  C12 UNK     1      29.190  -5.588  38.900  1.00  0.00     0.082 A 
ENDROOT
BRANCH  14  15
HETATM   15  O3  UNK     1      28.098  -5.945  39.631  1.00  0.00    -0.275 OA
BRANCH  15  16
HETATM   16  C13 UNK     1      27.000  -6.348  38.869  1.00  0.00     0.298 C 
HETATM   17  O4  UNK     1      26.163  -5.603  38.378  1.00  0.00    -0.259 OA
BRANCH  16  18
HETATM   18  C14 UNK     1      26.967  -7.824  38.709  1.00  0.00     0.039 A 
HETATM   19  C15 UNK     1      26.550  -8.355  37.507  1.00  0.00     0.017 A 
HETATM   20  C17 UNK     1      26.520  -9.742  37.357  1.00  0.00     0.001 A 
HETATM   21  C19 UNK     1      26.907 -10.565  38.413  1.00  0.00     0.000 A 
HETATM   22  C18 UNK     1      27.324 -10.003  39.619  1.00  0.00     0.001 A 
HETATM   23  C16 UNK     1      27.355  -8.617  39.769  1.00  0.00     0.017 A 
ENDBRANCH  16  18
ENDBRANCH  15  16
ENDBRANCH  14  15
TORSDOF 3
ENDMDL
MODEL 5
REMARK VINA RESULT:      -8.4     14.905     17.969
REMARK  3 active torsions:
REMARK  status: ('A' for Active; 'I' for Inactive)
REMARK    1  A    between atoms: C12_16  and  O3_3 
REMARK    2  A    between atoms: C13_17  and  O3_3 
REMARK    3  A    between atoms: C13_17  and  C14_18 
ROOT
HETATM    1  O1  UNK     1      20.177  -1.336  12.419  1.00  0.00    -0.274 OA
HETATM    2  O2  UNK     1      21.164  -1.306  10.346  1.00  0.00    -0.259 OA
HETATM    3  C1  UNK     1      19.093  -5.363  11.495  1.00  0.00     0.040 C 
HETATM    4  C2  UNK     1      20.003  -5.530  10.272  1.00  0.00     0.009 C 
HETATM    5  C3  UNK     1      19.406  -3.976  11.937  1.00  0.00    -0.033 A 
HETATM    6  C4  UNK     1      20.361  -4.117   9.798  1.00  0.00     0.046 C 
HETATM    7  C5  UNK     1      20.097  -3.302  11.015  1.00  0.00     0.025 A 
HETATM    8  C6  UNK     1      19.035  -3.357  13.193  1.00  0.00     0.005 A 
HETATM    9  C7  UNK     1      19.437  -2.036  13.404  1.00  0.00     0.093 A 
HETATM   10  C8  UNK     1      20.533  -1.915  11.200  1.00  0.00     0.295 A 
HETATM   11  C9  UNK     1      18.302  -4.000  14.193  1.00  0.00     0.017 A 
HETATM   12  C10 UNK     1      19.130  -1.351  14.579  1.00  0.00     0.075 A 
HETATM   13  C11 UNK     1      17.988  -3.325  15.377  1.00  0.00     0.038 A 
HETATM   14  C12 UNK     1      18.400  -2.005  15.569  1.00  0.00     0.082 A 
ENDROOT
BRANCH  14  15
HETATM   15  O3  UNK     1      18.090  -1.357  16.725  1.00  0.00    -0.275 OA
BRANCH  15  16
HETATM   16  C13 UNK     1      19.195  -0.979  17.489  1.00  0.00     0.298 C 
HETATM   17  O4  UNK     1      20.152  -1.692  17.757  1.00  0.00    -0.259 OA
BRANCH  16  18
HETATM   18  C14 UNK     1      19.078   0.429  17.946  1.00  0.00     0.039 A 
HETATM   19  C15 UNK     1      18.861   0.681  19.284  1.00  0.00     0.017 A 
HETATM   20  C17 UNK     1      18.751   2.004  19.712  1.00  0.00     0.001 A 
HETATM   21  C19 UNK     1      18.861   3.046  18.791  1.00  0.00     0.000 A 
HETATM   22  C18 UNK     1      19.079   2.765  17.443  1.00  0.00     0.001 A 
HETATM   23  C16 UNK     1      19.189   1.442  17.015  1.00  0.00     0.017 A 
ENDBRANCH  16  18
ENDBRANCH  15  16
ENDBRANCH  14  15
TORSDOF 3
ENDMDL
MODEL 6
REMARK VINA RESULT:      -8.3     22.565     24.486
REMARK  3 active torsions:
REMARK  status: ('A' for Active; 'I' for Inactive)
REMARK    1  A    between atoms: C12_16  and  O3_3 
REMARK    2  A    between atoms: C13_17  and  O3_3 
REMARK    3  A    between atoms: C13_17  and  C14_18 
ROOT
HETATM    1  O1  UNK     1      13.833   4.705   8.994  1.00  0.00    -0.274 OA
HETATM    2  O2  UNK     1      15.995   4.316   9.661  1.00  0.00    -0.259 OA
HETATM    3  C1  UNK     1      14.490   8.722  10.286  1.00  0.00     0.040 C 
HETATM    4  C2  UNK     1      16.014   8.629  10.432  1.00  0.00     0.009 C 
HETATM    5  C3  UNK     1      14.134   7.360   9.802  1.00  0.00    -0.033 A 
HETATM    6  C4  UNK     1      16.353   7.138  10.533  1.00  0.00     0.046 C 
HETATM    7  C5  UNK     1      15.147   6.502   9.935  1.00  0.00     0.025 A 
HETATM    8  C6  UNK     1      12.863   6.937   9.251  1.00  0.00     0.005 A 
HETATM    9  C7  UNK     1      12.745   5.602   8.855  1.00  0.00     0.093 A 
HETATM   10  C8  UNK     1      15.059   5.096   9.533  1.00  0.00     0.295 A 
HETATM   11  C9  UNK     1      11.760   7.779   9.098  1.00  0.00     0.017 A 
HETATM   12  C10 UNK     1      11.565   5.096   8.312  1.00  0.00     0.075 A 
HETATM   13  C11 UNK     1      10.569   7.284   8.555  1.00  0.00     0.038 A 
HETATM   14  C12 UNK     1      10.472   5.947   8.164  1.00  0.00     0.082 A 
ENDROOT
BRANCH  14  15
HETATM   15  O3  UNK     1       9.310   5.476   7.636  1.00  0.00    -0.275 OA
BRANCH  15  16
HETATM   16  C13 UNK     1       8.173   6.198   8.008  1.00  0.00     0.298 C 
HETATM   17  O4  UNK     1       7.709   7.154   7.403  1.00  0.00    -0.259 OA
BRANCH  16  18
HETATM   18  C14 UNK     1       7.571   5.651   9.250  1.00  0.00     0.039 A 
HETATM   19  C15 UNK     1       7.312   6.508  10.298  1.00  0.00     0.017 A 
HETATM   20  C17 UNK     1       6.746   5.994  11.465  1.00  0.00     0.001 A 
HETATM   21  C19 UNK     1       6.452   4.634  11.556  1.00  0.00     0.000 A 
HETATM   22  C18 UNK     1       6.724   3.788  10.482  1.00  0.00     0.001 A 
HETATM   23  C16 UNK     1       7.290   4.302   9.316  1.00  0.00     0.017 A 
ENDBRANCH  16  18
ENDBRANCH  15  16
ENDBRANCH  14  15
TORSDOF 3
ENDMDL
MODEL 7
REMARK VINA RESULT:      -8.2      2.000      2.914
REMARK  3 active torsions:
REMARK  status: ('A' for Active; 'I' for Inactive)
REMARK    1  A    between atoms: C12_16  and  O3_3 
REMARK    2  A    between atoms: C13_17  and  O3_3 
REMARK    3  A    between atoms: C13_17  and  C14_18 
ROOT
HETATM    1  O1  UNK     1      18.690   0.398  31.911  1.00  0.00    -0.274 OA
HETATM    2  O2  UNK     1      18.920  -1.871  32.177  1.00  0.00    -0.259 OA
HETATM    3  C1  UNK     1      18.269   0.534  36.159  1.00  0.00     0.040 C 
HETATM    4  C2  UNK     1      18.746  -0.896  36.444  1.00  0.00     0.009 C 
HETATM    5  C3  UNK     1      18.399   0.623  34.678  1.00  0.00    -0.033 A 
HETATM    6  C4  UNK     1      18.614  -1.670  35.129  1.00  0.00     0.046 C 
HETATM    7  C5  UNK     1      18.589  -0.575  34.121  1.00  0.00     0.025 A 
HETATM    8  C6  UNK     1      18.330   1.822  33.869  1.00  0.00     0.005 A 
HETATM    9  C7  UNK     1      18.481   1.675  32.487  1.00  0.00     0.093 A 
HETATM   10  C8  UNK     1      18.749  -0.767  32.677  1.00  0.00     0.295 A 
HETATM   11  C9  UNK     1      18.120   3.102  34.386  1.00  0.00     0.017 A 
HETATM   12  C10 UNK     1      18.432   2.767  31.621  1.00  0.00     0.075 A 
HETATM   13  C11 UNK     1      18.068   4.206  33.528  1.00  0.00     0.038 A 
HETATM   14  C12 UNK     1      18.223   4.038  32.151  1.00  0.00     0.082 A 
ENDROOT
BRANCH  14  15
HETATM   15  O3  UNK     1      18.171   5.119  31.325  1.00  0.00    -0.275 OA
BRANCH  15  16
HETATM   16  C13 UNK     1      19.277   5.967  31.414  1.00  0.00     0.298 C 
HETATM   17  O4  UNK     1      20.302   5.871  30.754  1.00  0.00    -0.259 OA
BRANCH  16  18
HETATM   18  C14 UNK     1      19.057   7.033  32.424  1.00  0.00     0.039 A 
HETATM   19  C15 UNK     1      17.865   7.726  32.412  1.00  0.00     0.017 A 
HETATM   20  C17 UNK     1      17.660   8.729  33.361  1.00  0.00     0.001 A 
HETATM   21  C19 UNK     1      18.651   9.015  34.299  1.00  0.00     0.000 A 
HETATM   22  C18 UNK     1      19.848   8.300  34.289  1.00  0.00     0.001 A 
HETATM   23  C16 UNK     1      20.054   7.298  33.340  1.00  0.00     0.017 A 
ENDBRANCH  16  18
ENDBRANCH  15  16
ENDBRANCH  14  15
TORSDOF 3
ENDMDL
MODEL 8
REMARK VINA RESULT:      -8.2      7.158      9.604
REMARK  3 active torsions:
REMARK  status: ('A' for Active; 'I' for Inactive)
REMARK    1  A    between atoms: C12_16  and  O3_3 
REMARK    2  A    between atoms: C13_17  and  O3_3 
REMARK    3  A    between atoms: C13_17  and  C14_18 
ROOT
HETATM    1  O1  UNK     1      22.377  -6.643  37.844  1.00  0.00    -0.274 OA
HETATM    2  O2  UNK     1      23.499  -8.624  38.141  1.00  0.00    -0.259 OA
HETATM    3  C1  UNK     1      19.037  -9.066  36.739  1.00  0.00     0.040 C 
HETATM    4  C2  UNK     1      19.599 -10.404  37.235  1.00  0.00     0.009 C 
HETATM    5  C3  UNK     1      20.122  -8.112  37.101  1.00  0.00    -0.033 A 
HETATM    6  C4  UNK     1      21.116 -10.222  37.355  1.00  0.00     0.046 C 
HETATM    7  C5  UNK     1      21.249  -8.742  37.437  1.00  0.00     0.025 A 
HETATM    8  C6  UNK     1      20.044  -6.666  37.103  1.00  0.00     0.005 A 
HETATM    9  C7  UNK     1      21.189  -5.960  37.482  1.00  0.00     0.093 A 
HETATM   10  C8  UNK     1      22.469  -8.035  37.837  1.00  0.00     0.295 A 
HETATM   11  C9  UNK     1      18.902  -5.945  36.749  1.00  0.00     0.017 A 
HETATM   12  C10 UNK     1      21.217  -4.566  37.517  1.00  0.00     0.075 A 
HETATM   13  C11 UNK     1      18.916  -4.546  36.781  1.00  0.00     0.038 A 
HETATM   14  C12 UNK     1      20.071  -3.860  37.163  1.00  0.00     0.082 A 
ENDROOT
BRANCH  14  15
HETATM   15  O3  UNK     1      20.074  -2.499  37.191  1.00  0.00    -0.275 OA
BRANCH  15  16
HETATM   16  C13 UNK     1      19.808  -1.896  35.960  1.00  0.00     0.298 C 
HETATM   17  O4  UNK     1      20.489  -2.009  34.951  1.00  0.00    -0.259 OA
BRANCH  16  18
HETATM   18  C14 UNK     1      18.563  -1.088  36.015  1.00  0.00     0.039 A 
HETATM   19  C15 UNK     1      17.921  -0.773  34.836  1.00  0.00     0.017 A 
HETATM   20  C17 UNK     1      16.752  -0.013  34.888  1.00  0.00     0.001 A 
HETATM   21  C19 UNK     1      16.252   0.414  36.118  1.00  0.00     0.000 A 
HETATM   22  C18 UNK     1      16.921   0.083  37.296  1.00  0.00     0.001 A 
HETATM   23  C16 UNK     1      18.090  -0.676  37.244  1.00  0.00     0.017 A 
ENDBRANCH  16  18
ENDBRANCH  15  16
ENDBRANCH  14  15
TORSDOF 3
ENDMDL
MODEL 9
REMARK VINA RESULT:      -8.2     15.249     18.415
REMARK  3 active torsions:
REMARK  status: ('A' for Active; 'I' for Inactive)
REMARK    1  A    between atoms: C12_16  and  O3_3 
REMARK    2  A    between atoms: C13_17  and  O3_3 
REMARK    3  A    between atoms: C13_17  and  C14_18 
ROOT
HETATM    1  O1  UNK     1      30.753  -4.615  38.578  1.00  0.00    -0.274 OA
HETATM    2  O2  UNK     1      28.718  -4.006  39.451  1.00  0.00    -0.259 OA
HETATM    3  C1  UNK     1      29.176  -8.584  38.500  1.00  0.00     0.040 C 
HETATM    4  C2  UNK     1      27.709  -8.212  38.750  1.00  0.00     0.009 C 
HETATM    5  C3  UNK     1      29.842  -7.252  38.476  1.00  0.00    -0.033 A 
HETATM    6  C4  UNK     1      27.713  -6.804  39.356  1.00  0.00     0.046 C 
HETATM    7  C5  UNK     1      29.045  -6.287  38.939  1.00  0.00     0.025 A 
HETATM    8  C6  UNK     1      31.188  -6.960  38.029  1.00  0.00     0.005 A 
HETATM    9  C7  UNK     1      31.613  -5.630  38.091  1.00  0.00     0.093 A 
HETATM   10  C8  UNK     1      29.457  -4.883  39.021  1.00  0.00     0.295 A 
HETATM   11  C9  UNK     1      32.077  -7.923  37.547  1.00  0.00     0.017 A 
HETATM   12  C10 UNK     1      32.890  -5.245  37.685  1.00  0.00     0.075 A 
HETATM   13  C11 UNK     1      33.361  -7.550  37.136  1.00  0.00     0.038 A 
HETATM   14  C12 UNK     1      33.765  -6.215  37.205  1.00  0.00     0.082 A 
ENDROOT
BRANCH  14  15
HETATM   15  O3  UNK     1      35.017  -5.863  36.801  1.00  0.00    -0.275 OA
BRANCH  15  16
HETATM   16  C13 UNK     1      35.078  -5.327  35.513  1.00  0.00     0.298 C 
HETATM   17  O4  UNK     1      34.736  -4.197  35.196  1.00  0.00    -0.259 OA
BRANCH  16  18
HETATM   18  C14 UNK     1      35.631  -6.310  34.547  1.00  0.00     0.039 A 
HETATM   19  C15 UNK     1      36.617  -7.177  34.968  1.00  0.00     0.017 A 
HETATM   20  C17 UNK     1      37.136  -8.100  34.060  1.00  0.00     0.001 A 
HETATM   21  C19 UNK     1      36.656  -8.135  32.751  1.00  0.00     0.000 A 
HETATM   22  C18 UNK     1      35.659  -7.247  32.350  1.00  0.00     0.001 A 
HETATM   23  C16 UNK     1      35.140  -6.324  33.258  1.00  0.00     0.017 A 
ENDBRANCH  16  18
ENDBRANCH  15  16
ENDBRANCH  14  15
TORSDOF 3
ENDMDL
MODEL 10
REMARK VINA RESULT:      -8.2     14.858     19.050
REMARK  3 active torsions:
REMARK  status: ('A' for Active; 'I' for Inactive)
REMARK    1  A    between atoms: C12_16  and  O3_3 
REMARK    2  A    between atoms: C13_17  and  O3_3 
REMARK    3  A    between atoms: C13_17  and  C14_18 
ROOT
HETATM    1  O1  UNK     1      19.335   1.419  15.244  1.00  0.00    -0.274 OA
HETATM    2  O2  UNK     1      19.542   3.524  16.138  1.00  0.00    -0.259 OA
HETATM    3  C1  UNK     1      18.749   0.110  19.267  1.00  0.00     0.040 C 
HETATM    4  C2  UNK     1      18.538   1.496  19.890  1.00  0.00     0.009 C 
HETATM    5  C3  UNK     1      18.940   0.436  17.827  1.00  0.00    -0.033 A 
HETATM    6  C4  UNK     1      19.125   2.512  18.904  1.00  0.00     0.046 C 
HETATM    7  C5  UNK     1      19.142   1.740  17.632  1.00  0.00     0.025 A 
HETATM    8  C6  UNK     1      18.932  -0.494  16.716  1.00  0.00     0.005 A 
HETATM    9  C7  UNK     1      19.131   0.030  15.436  1.00  0.00     0.093 A 
HETATM   10  C8  UNK     1      19.356   2.325  16.305  1.00  0.00     0.295 A 
HETATM   11  C9  UNK     1      18.741  -1.871  16.852  1.00  0.00     0.017 A 
HETATM   12  C10 UNK     1      19.139  -0.780  14.302  1.00  0.00     0.075 A 
HETATM   13  C11 UNK     1      18.748  -2.695  15.722  1.00  0.00     0.038 A 
HETATM   14  C12 UNK     1      18.947  -2.151  14.451  1.00  0.00     0.082 A 
ENDROOT
BRANCH  14  15
HETATM   15  O3  UNK     1      18.951  -2.962  13.358  1.00  0.00    -0.275 OA
BRANCH  15  16
HETATM   16  C13 UNK     1      20.188  -3.544  13.076  1.00  0.00     0.298 C 
HETATM   17  O4  UNK     1      20.880  -4.164  13.871  1.00  0.00    -0.259 OA
BRANCH  16  18
HETATM   18  C14 UNK     1      20.575  -3.326  11.659  1.00  0.00     0.039 A 
HETATM   19  C15 UNK     1      20.987  -2.071  11.266  1.00  0.00     0.017 A 
HETATM   20  C17 UNK     1      21.350  -1.867   9.934  1.00  0.00     0.001 A 
HETATM   21  C19 UNK     1      21.293  -2.924   9.026  1.00  0.00     0.000 A 
HETATM   22  C18 UNK     1      20.872  -4.184   9.449  1.00  0.00     0.001 A 
HETATM   23  C16 UNK     1      20.509  -4.388  10.780  1.00  0.00     0.017 A 
ENDBRANCH  16  18
ENDBRANCH  15  16
ENDBRANCH  14  15
TORSDOF 3
ENDMDL
