MODEL 1
REMARK VINA RESULT:      -9.8      0.000      0.000
REMARK  6 active torsions:
REMARK  status: ('A' for Active; 'I' for Inactive)
REMARK    1  A    between atoms: C21_26  and  O4_4 
REMARK    2  A    between atoms: C24_29  and  O4_4 
REMARK    3  A    between atoms: C11_16  and  N1_5 
REMARK       I    between atoms: C14_19  and  N1_5 
REMARK    4  A    between atoms: C1_6  and  C11_16 
REMARK    5  A    between atoms: C11_16  and  C12_17 
REMARK    6  A    between atoms: C14_19  and  C15_20 
ROOT
HETATM    1  O1  UNK     1      17.556   2.787  31.223  1.00  0.00    -0.267 OA
HETATM    2  N1  UNK     1      18.352   4.290  32.817  1.00  0.00    -0.351 N 
HETATM    3  C14 UNK     1      17.974   3.047  32.346  1.00  0.00     0.258 C 
HETATM    4  H19 UNK     1      18.742   4.375  33.751  1.00  0.00     0.163 HD
ENDROOT
BRANCH   3   5
HETATM    5  C15 UNK     1      18.121   1.985  33.357  1.00  0.00     0.108 A 
HETATM    6  C16 UNK     1      17.787   2.312  34.612  1.00  0.00     0.037 A 
HETATM    7  C18 UNK     1      17.898   1.332  35.680  1.00  0.00     0.002 A 
HETATM    8  C19 UNK     1      18.358   0.055  35.375  1.00  0.00     0.123 A 
HETATM    9  C20 UNK     1      17.559   1.629  37.001  1.00  0.00     0.014 A 
HETATM   10  O2  UNK     1      18.709  -0.284  34.055  1.00  0.00    -0.271 OA
HETATM   11  C21 UNK     1      18.489  -0.930  36.353  1.00  0.00     0.103 A 
HETATM   12  C17 UNK     1      18.612   0.633  33.011  1.00  0.00     0.304 A 
HETATM   13  O3  UNK     1      18.921   0.328  31.863  1.00  0.00    -0.259 OA
HETATM   14  C23 UNK     1      18.148  -0.626  37.668  1.00  0.00     0.040 A 
HETATM   15  C22 UNK     1      17.684   0.651  37.993  1.00  0.00     0.004 A 
BRANCH  11  16
HETATM   16  O4  UNK     1      18.939  -2.175  36.042  1.00  0.00    -0.349 OA
BRANCH  16  17
HETATM   17  C24 UNK     1      20.311  -2.458  36.317  1.00  0.00     0.171 C 
HETATM   18  C25 UNK     1      20.390  -3.593  37.316  1.00  0.00     0.034 C 
ENDBRANCH  16  17
ENDBRANCH  11  16
ENDBRANCH   3   5
BRANCH   2  19
HETATM   19  C11 UNK     1      18.299   5.484  32.010  1.00  0.00     0.093 C 
BRANCH  19  20
HETATM   20  C1  UNK     1      17.440   6.539  32.712  1.00  0.00    -0.019 C 
HETATM   21  C5  UNK     1      17.232   6.161  34.197  1.00  0.00     0.016 C 
HETATM   22  C2  UNK     1      16.369   7.220  34.907  1.00  0.00    -0.013 C 
HETATM   23  C8  UNK     1      17.073   8.584  34.822  1.00  0.00     0.009 C 
HETATM   24  C9  UNK     1      15.002   7.310  34.207  1.00  0.00     0.009 C 
HETATM   25  C3  UNK     1      17.270   8.987  33.351  1.00  0.00    -0.013 C 
HETATM   26  C10 UNK     1      15.899   9.068  32.660  1.00  0.00     0.009 C 
HETATM   27  C6  UNK     1      18.130   7.922  32.647  1.00  0.00     0.016 C 
HETATM   28  C4  UNK     1      15.189   7.706  32.733  1.00  0.00    -0.013 C 
HETATM   29  C7  UNK     1      16.056   6.646  32.030  1.00  0.00     0.016 C 
ENDBRANCH  19  20
BRANCH  19  30
HETATM   30  C12 UNK     1      19.700   6.032  31.724  1.00  0.00     0.021 C 
HETATM   31  C13 UNK     1      20.126   5.817  30.277  1.00  0.00     0.007 C 
ENDBRANCH  19  30
ENDBRANCH   2  19
TORSDOF 6
ENDMDL
MODEL 2
REMARK VINA RESULT:      -9.0     10.812     14.121
REMARK  6 active torsions:
REMARK  status: ('A' for Active; 'I' for Inactive)
REMARK    1  A    between atoms: C21_26  and  O4_4 
REMARK    2  A    between atoms: C24_29  and  O4_4 
REMARK    3  A    between atoms: C11_16  and  N1_5 
REMARK       I    between atoms: C14_19  and  N1_5 
REMARK    4  A    between atoms: C1_6  and  C11_16 
REMARK    5  A    between atoms: C11_16  and  C12_17 
REMARK    6  A    between atoms: C14_19  and  C15_20 
ROOT
HETATM    1  O1  UNK     1      22.732  -8.394  40.109  1.00  0.00    -0.267 OA
HETATM    2  N1  UNK     1      22.718  -8.635  37.791  1.00  0.00    -0.351 N 
HETATM    3  C14 UNK     1      23.258  -8.270  39.009  1.00  0.00     0.258 C 
HETATM    4  H19 UNK     1      23.275  -8.540  36.946  1.00  0.00     0.163 HD
ENDROOT
BRANCH   3   5
HETATM    5  C15 UNK     1      24.606  -7.685  38.883  1.00  0.00     0.108 A 
HETATM    6  C16 UNK     1      25.623  -8.552  38.808  1.00  0.00     0.037 A 
HETATM    7  C18 UNK     1      26.990  -8.071  38.682  1.00  0.00     0.002 A 
HETATM    8  C19 UNK     1      27.218  -6.699  38.643  1.00  0.00     0.123 A 
HETATM    9  C20 UNK     1      28.080  -8.939  38.599  1.00  0.00     0.014 A 
HETATM   10  O2  UNK     1      26.145  -5.791  38.723  1.00  0.00    -0.271 OA
HETATM   11  C21 UNK     1      28.503  -6.173  38.523  1.00  0.00     0.103 A 
HETATM   12  C17 UNK     1      24.826  -6.222  38.842  1.00  0.00     0.304 A 
HETATM   13  O3  UNK     1      23.897  -5.424  38.911  1.00  0.00    -0.259 OA
HETATM   14  C23 UNK     1      29.586  -7.046  38.442  1.00  0.00     0.040 A 
HETATM   15  C22 UNK     1      29.375  -8.426  38.479  1.00  0.00     0.004 A 
BRANCH  11  16
HETATM   16  O4  UNK     1      28.713  -4.830  38.486  1.00  0.00    -0.349 OA
BRANCH  16  17
HETATM   17  C24 UNK     1      30.040  -4.371  38.744  1.00  0.00     0.171 C 
HETATM   18  C25 UNK     1      30.574  -3.683  37.507  1.00  0.00     0.034 C 
ENDBRANCH  16  17
ENDBRANCH  11  16
ENDBRANCH   3   5
BRANCH   2  19
HETATM   19  C11 UNK     1      21.412  -9.231  37.660  1.00  0.00     0.093 C 
BRANCH  19  20
HETATM   20  C1  UNK     1      20.446  -8.218  37.038  1.00  0.00    -0.019 C 
HETATM   21  C5  UNK     1      20.245  -7.014  37.988  1.00  0.00     0.016 C 
HETATM   22  C2  UNK     1      19.275  -5.994  37.367  1.00  0.00    -0.013 C 
HETATM   23  C8  UNK     1      19.852  -5.498  36.030  1.00  0.00     0.009 C 
HETATM   24  C9  UNK     1      17.919  -6.675  37.113  1.00  0.00     0.009 C 
HETATM   25  C3  UNK     1      20.039  -6.680  35.064  1.00  0.00    -0.013 C 
HETATM   26  C10 UNK     1      18.680  -7.357  34.823  1.00  0.00     0.009 C 
HETATM   27  C6  UNK     1      21.007  -7.698  35.693  1.00  0.00     0.016 C 
HETATM   28  C4  UNK     1      18.098  -7.862  36.153  1.00  0.00    -0.013 C 
HETATM   29  C7  UNK     1      19.071  -8.878  36.778  1.00  0.00     0.016 C 
ENDBRANCH  19  20
BRANCH  19  30
HETATM   30  C12 UNK     1      21.460 -10.512  36.822  1.00  0.00     0.021 C 
HETATM   31  C13 UNK     1      22.794 -10.693  36.108  1.00  0.00     0.007 C 
ENDBRANCH  19  30
ENDBRANCH   2  19
TORSDOF 6
ENDMDL
MODEL 3
REMARK VINA RESULT:      -9.0      2.092      3.547
REMARK  6 active torsions:
REMARK  status: ('A' for Active; 'I' for Inactive)
REMARK    1  A    between atoms: C21_26  and  O4_4 
REMARK    2  A    between atoms: C24_29  and  O4_4 
REMARK    3  A    between atoms: C11_16  and  N1_5 
REMARK       I    between atoms: C14_19  and  N1_5 
REMARK    4  A    between atoms: C1_6  and  C11_16 
REMARK    5  A    between atoms: C11_16  and  C12_17 
REMARK    6  A    between atoms: C14_19  and  C15_20 
ROOT
HETATM    1  O1  UNK     1      18.081   3.220  29.098  1.00  0.00    -0.267 OA
HETATM    2  N1  UNK     1      18.782   4.243  31.072  1.00  0.00    -0.351 N 
HETATM    3  C14 UNK     1      18.521   3.170  30.241  1.00  0.00     0.258 C 
HETATM    4  H19 UNK     1      19.204   4.082  31.981  1.00  0.00     0.163 HD
ENDROOT
BRANCH   3   5
HETATM    5  C15 UNK     1      18.832   1.873  30.870  1.00  0.00     0.108 A 
HETATM    6  C16 UNK     1      19.475   0.983  30.104  1.00  0.00     0.037 A 
HETATM    7  C18 UNK     1      19.825  -0.324  30.636  1.00  0.00     0.002 A 
HETATM    8  C19 UNK     1      19.479  -0.631  31.949  1.00  0.00     0.123 A 
HETATM    9  C20 UNK     1      20.496  -1.282  29.874  1.00  0.00     0.014 A 
HETATM   10  O2  UNK     1      18.803   0.308  32.749  1.00  0.00    -0.271 OA
HETATM   11  C21 UNK     1      19.786  -1.866  32.518  1.00  0.00     0.103 A 
HETATM   12  C17 UNK     1      18.456   1.569  32.269  1.00  0.00     0.304 A 
HETATM   13  O3  UNK     1      17.866   2.381  32.974  1.00  0.00    -0.259 OA
HETATM   14  C23 UNK     1      20.455  -2.816  31.751  1.00  0.00     0.040 A 
HETATM   15  C22 UNK     1      20.811  -2.526  30.432  1.00  0.00     0.004 A 
BRANCH  11  16
HETATM   16  O4  UNK     1      19.443  -2.153  33.802  1.00  0.00    -0.349 OA
BRANCH  16  17
HETATM   17  C24 UNK     1      20.373  -2.919  34.568  1.00  0.00     0.171 C 
HETATM   18  C25 UNK     1      20.486  -2.317  35.952  1.00  0.00     0.034 C 
ENDBRANCH  16  17
ENDBRANCH  11  16
ENDBRANCH   3   5
BRANCH   2  19
HETATM   19  C11 UNK     1      18.560   5.612  30.677  1.00  0.00     0.093 C 
BRANCH  19  20
HETATM   20  C1  UNK     1      18.117   6.430  31.893  1.00  0.00    -0.019 C 
HETATM   21  C5  UNK     1      19.323   7.182  32.503  1.00  0.00     0.016 C 
HETATM   22  C2  UNK     1      18.883   8.005  33.726  1.00  0.00    -0.013 C 
HETATM   23  C8  UNK     1      17.814   9.023  33.291  1.00  0.00     0.009 C 
HETATM   24  C9  UNK     1      18.283   7.061  34.782  1.00  0.00     0.009 C 
HETATM   25  C3  UNK     1      16.597   8.292  32.701  1.00  0.00    -0.013 C 
HETATM   26  C10 UNK     1      16.011   7.346  33.762  1.00  0.00     0.009 C 
HETATM   27  C6  UNK     1      17.046   7.467  31.481  1.00  0.00     0.016 C 
HETATM   28  C4  UNK     1      17.069   6.320  34.198  1.00  0.00    -0.013 C 
HETATM   29  C7  UNK     1      17.515   5.502  32.974  1.00  0.00     0.016 C 
ENDBRANCH  19  20
BRANCH  19  30
HETATM   30  C12 UNK     1      19.812   6.225  30.042  1.00  0.00     0.021 C 
HETATM   31  C13 UNK     1      21.098   5.709  30.677  1.00  0.00     0.007 C 
ENDBRANCH  19  30
ENDBRANCH   2  19
TORSDOF 6
ENDMDL
MODEL 4
REMARK VINA RESULT:      -8.5     11.857     15.200
REMARK  6 active torsions:
REMARK  status: ('A' for Active; 'I' for Inactive)
REMARK    1  A    between atoms: C21_26  and  O4_4 
REMARK    2  A    between atoms: C24_29  and  O4_4 
REMARK    3  A    between atoms: C11_16  and  N1_5 
REMARK       I    between atoms: C14_19  and  N1_5 
REMARK    4  A    between atoms: C1_6  and  C11_16 
REMARK    5  A    between atoms: C11_16  and  C12_17 
REMARK    6  A    between atoms: C14_19  and  C15_20 
ROOT
HETATM    1  O1  UNK     1      24.926 -11.175  36.444  1.00  0.00    -0.267 OA
HETATM    2  N1  UNK     1      23.897  -9.158  36.997  1.00  0.00    -0.351 N 
HETATM    3  C14 UNK     1      24.973 -10.001  36.790  1.00  0.00     0.258 C 
HETATM    4  H19 UNK     1      24.061  -8.182  37.225  1.00  0.00     0.163 HD
ENDROOT
BRANCH   3   5
HETATM    5  C15 UNK     1      26.268  -9.339  37.031  1.00  0.00     0.108 A 
HETATM    6  C16 UNK     1      27.236  -9.591  36.140  1.00  0.00     0.037 A 
HETATM    7  C18 UNK     1      28.549  -8.984  36.292  1.00  0.00     0.002 A 
HETATM    8  C19 UNK     1      28.779  -8.144  37.377  1.00  0.00     0.123 A 
HETATM    9  C20 UNK     1      29.585  -9.217  35.387  1.00  0.00     0.014 A 
HETATM   10  O2  UNK     1      27.760  -7.883  38.311  1.00  0.00    -0.271 OA
HETATM   11  C21 UNK     1      30.016  -7.532  37.580  1.00  0.00     0.103 A 
HETATM   12  C17 UNK     1      26.492  -8.448  38.191  1.00  0.00     0.304 A 
HETATM   13  O3  UNK     1      25.609  -8.215  39.011  1.00  0.00    -0.259 OA
HETATM   14  C23 UNK     1      31.044  -7.770  36.672  1.00  0.00     0.040 A 
HETATM   15  C22 UNK     1      30.831  -8.610  35.577  1.00  0.00     0.004 A 
BRANCH  11  16
HETATM   16  O4  UNK     1      30.228  -6.712  38.644  1.00  0.00    -0.349 OA
BRANCH  16  17
HETATM   17  C24 UNK     1      30.602  -5.364  38.362  1.00  0.00     0.171 C 
HETATM   18  C25 UNK     1      29.649  -4.428  39.073  1.00  0.00     0.034 C 
ENDBRANCH  16  17
ENDBRANCH  11  16
ENDBRANCH   3   5
BRANCH   2  19
HETATM   19  C11 UNK     1      22.529  -9.578  36.821  1.00  0.00     0.093 C 
BRANCH  19  20
HETATM   20  C1  UNK     1      21.589  -8.504  37.377  1.00  0.00    -0.019 C 
HETATM   21  C5  UNK     1      21.056  -7.612  36.232  1.00  0.00     0.016 C 
HETATM   22  C2  UNK     1      20.111  -6.531  36.786  1.00  0.00    -0.013 C 
HETATM   23  C8  UNK     1      18.928  -7.210  37.496  1.00  0.00     0.009 C 
HETATM   24  C9  UNK     1      20.877  -5.660  37.797  1.00  0.00     0.009 C 
HETATM   25  C3  UNK     1      19.438  -8.086  38.652  1.00  0.00    -0.013 C 
HETATM   26  C10 UNK     1      20.207  -7.208  39.653  1.00  0.00     0.009 C 
HETATM   27  C6  UNK     1      20.385  -9.162  38.092  1.00  0.00     0.016 C 
HETATM   28  C4  UNK     1      21.396  -6.529  38.955  1.00  0.00    -0.013 C 
HETATM   29  C7  UNK     1      22.337  -7.610  38.393  1.00  0.00     0.016 C 
ENDBRANCH  19  20
BRANCH  19  30
HETATM   30  C12 UNK     1      22.212  -9.862  35.350  1.00  0.00     0.021 C 
HETATM   31  C13 UNK     1      21.575 -11.231  35.145  1.00  0.00     0.007 C 
ENDBRANCH  19  30
ENDBRANCH   2  19
TORSDOF 6
ENDMDL
MODEL 5
REMARK VINA RESULT:      -8.5      1.734      2.966
REMARK  6 active torsions:
REMARK  status: ('A' for Active; 'I' for Inactive)
REMARK    1  A    between atoms: C21_26  and  O4_4 
REMARK    2  A    between atoms: C24_29  and  O4_4 
REMARK    3  A    between atoms: C11_16  and  N1_5 
REMARK       I    between atoms: C14_19  and  N1_5 
REMARK    4  A    between atoms: C1_6  and  C11_16 
REMARK    5  A    between atoms: C11_16  and  C12_17 
REMARK    6  A    between atoms: C14_19  and  C15_20 
ROOT
HETATM    1  O1  UNK     1      18.505   5.839  31.323  1.00  0.00    -0.267 OA
HETATM    2  N1  UNK     1      18.364   6.248  33.613  1.00  0.00    -0.351 N 
HETATM    3  C14 UNK     1      18.422   5.454  32.483  1.00  0.00     0.258 C 
HETATM    4  H19 UNK     1      18.357   5.814  34.532  1.00  0.00     0.163 HD
ENDROOT
BRANCH   3   5
HETATM    5  C15 UNK     1      18.374   4.014  32.796  1.00  0.00     0.108 A 
HETATM    6  C16 UNK     1      18.382   3.690  34.095  1.00  0.00     0.037 A 
HETATM    7  C18 UNK     1      18.338   2.295  34.503  1.00  0.00     0.002 A 
HETATM    8  C19 UNK     1      18.288   1.309  33.523  1.00  0.00     0.123 A 
HETATM    9  C20 UNK     1      18.343   1.912  35.846  1.00  0.00     0.014 A 
HETATM   10  O2  UNK     1      18.280   1.655  32.159  1.00  0.00    -0.271 OA
HETATM   11  C21 UNK     1      18.244  -0.046  33.848  1.00  0.00     0.103 A 
HETATM   12  C17 UNK     1      18.320   2.982  31.737  1.00  0.00     0.304 A 
HETATM   13  O3  UNK     1      18.313   3.273  30.546  1.00  0.00    -0.259 OA
HETATM   14  C23 UNK     1      18.250  -0.420  35.189  1.00  0.00     0.040 A 
HETATM   15  C22 UNK     1      18.299   0.556  36.187  1.00  0.00     0.004 A 
BRANCH  11  16
HETATM   16  O4  UNK     1      18.195  -1.000  32.880  1.00  0.00    -0.349 OA
BRANCH  16  17
HETATM   17  C24 UNK     1      19.406  -1.703  32.598  1.00  0.00     0.171 C 
HETATM   18  C25 UNK     1      19.908  -1.292  31.231  1.00  0.00     0.034 C 
ENDBRANCH  16  17
ENDBRANCH  11  16
ENDBRANCH   3   5
BRANCH   2  19
HETATM   19  C11 UNK     1      18.398   7.689  33.561  1.00  0.00     0.093 C 
BRANCH  19  20
HETATM   20  C1  UNK     1      16.967   8.233  33.526  1.00  0.00    -0.019 C 
HETATM   21  C5  UNK     1      16.916   9.649  34.146  1.00  0.00     0.016 C 
HETATM   22  C2  UNK     1      15.479  10.200  34.113  1.00  0.00    -0.013 C 
HETATM   23  C8  UNK     1      14.996  10.264  32.654  1.00  0.00     0.009 C 
HETATM   24  C9  UNK     1      14.559   9.261  34.911  1.00  0.00     0.009 C 
HETATM   25  C3  UNK     1      15.021   8.860  32.027  1.00  0.00    -0.013 C 
HETATM   26  C10 UNK     1      14.103   7.928  32.836  1.00  0.00     0.009 C 
HETATM   27  C6  UNK     1      16.459   8.314  32.067  1.00  0.00     0.016 C 
HETATM   28  C4  UNK     1      14.582   7.852  34.295  1.00  0.00    -0.013 C 
HETATM   29  C7  UNK     1      16.021   7.308  34.327  1.00  0.00     0.016 C 
ENDBRANCH  19  20
BRANCH  19  30
HETATM   30  C12 UNK     1      19.169   8.277  34.746  1.00  0.00     0.021 C 
HETATM   31  C13 UNK     1      20.399   9.063  34.310  1.00  0.00     0.007 C 
ENDBRANCH  19  30
ENDBRANCH   2  19
TORSDOF 6
ENDMDL
MODEL 6
REMARK VINA RESULT:      -8.4     12.637     16.841
REMARK  6 active torsions:
REMARK  status: ('A' for Active; 'I' for Inactive)
REMARK    1  A    between atoms: C21_26  and  O4_4 
REMARK    2  A    between atoms: C24_29  and  O4_4 
REMARK    3  A    between atoms: C11_16  and  N1_5 
REMARK       I    between atoms: C14_19  and  N1_5 
REMARK    4  A    between atoms: C1_6  and  C11_16 
REMARK    5  A    between atoms: C11_16  and  C12_17 
REMARK    6  A    between atoms: C14_19  and  C15_20 
ROOT
HETATM    1  O1  UNK     1      28.757  -9.405  39.229  1.00  0.00    -0.267 OA
HETATM    2  N1  UNK     1      28.618  -7.345  38.147  1.00  0.00    -0.351 N 
HETATM    3  C14 UNK     1      28.171  -8.601  38.513  1.00  0.00     0.258 C 
HETATM    4  H19 UNK     1      28.016  -6.739  37.596  1.00  0.00     0.163 HD
ENDROOT
BRANCH   3   5
HETATM    5  C15 UNK     1      26.850  -8.924  37.943  1.00  0.00     0.108 A 
HETATM    6  C16 UNK     1      26.731 -10.129  37.371  1.00  0.00     0.037 A 
HETATM    7  C18 UNK     1      25.466 -10.538  36.782  1.00  0.00     0.002 A 
HETATM    8  C19 UNK     1      24.389  -9.658  36.822  1.00  0.00     0.123 A 
HETATM    9  C20 UNK     1      25.297 -11.785  36.177  1.00  0.00     0.014 A 
HETATM   10  O2  UNK     1      24.520  -8.393  37.423  1.00  0.00    -0.271 OA
HETATM   11  C21 UNK     1      23.151  -9.990  36.274  1.00  0.00     0.103 A 
HETATM   12  C17 UNK     1      25.717  -7.973  37.998  1.00  0.00     0.304 A 
HETATM   13  O3  UNK     1      25.822  -6.868  38.520  1.00  0.00    -0.259 OA
HETATM   14  C23 UNK     1      22.990 -11.236  35.673  1.00  0.00     0.040 A 
HETATM   15  C22 UNK     1      24.060 -12.133  35.624  1.00  0.00     0.004 A 
BRANCH  11  16
HETATM   16  O4  UNK     1      22.106  -9.122  36.320  1.00  0.00    -0.349 OA
BRANCH  16  17
HETATM   17  C24 UNK     1      21.335  -8.967  35.128  1.00  0.00     0.171 C 
HETATM   18  C25 UNK     1      20.588  -7.653  35.191  1.00  0.00     0.034 C 
ENDBRANCH  16  17
ENDBRANCH  11  16
ENDBRANCH   3   5
BRANCH   2  19
HETATM   19  C11 UNK     1      29.882  -6.806  38.583  1.00  0.00     0.093 C 
BRANCH  19  20
HETATM   20  C1  UNK     1      30.934  -7.021  37.492  1.00  0.00    -0.019 C 
HETATM   21  C5  UNK     1      31.747  -8.305  37.775  1.00  0.00     0.016 C 
HETATM   22  C2  UNK     1      32.806  -8.525  36.680  1.00  0.00    -0.013 C 
HETATM   23  C8  UNK     1      32.105  -8.654  35.317  1.00  0.00     0.009 C 
HETATM   24  C9  UNK     1      33.758  -7.317  36.648  1.00  0.00     0.009 C 
HETATM   25  C3  UNK     1      31.308  -7.376  35.010  1.00  0.00    -0.013 C 
HETATM   26  C10 UNK     1      32.267  -6.175  34.986  1.00  0.00     0.009 C 
HETATM   27  C6  UNK     1      30.253  -7.161  36.110  1.00  0.00     0.016 C 
HETATM   28  C4  UNK     1      32.969  -6.032  36.346  1.00  0.00    -0.013 C 
HETATM   29  C7  UNK     1      31.909  -5.820  37.442  1.00  0.00     0.016 C 
ENDBRANCH  19  20
BRANCH  19  30
HETATM   30  C12 UNK     1      29.768  -5.319  38.935  1.00  0.00     0.021 C 
HETATM   31  C13 UNK     1      28.426  -4.725  38.525  1.00  0.00     0.007 C 
ENDBRANCH  19  30
ENDBRANCH   2  19
TORSDOF 6
ENDMDL
MODEL 7
REMARK VINA RESULT:      -8.4     12.622     16.803
REMARK  6 active torsions:
REMARK  status: ('A' for Active; 'I' for Inactive)
REMARK    1  A    between atoms: C21_26  and  O4_4 
REMARK    2  A    between atoms: C24_29  and  O4_4 
REMARK    3  A    between atoms: C11_16  and  N1_5 
REMARK       I    between atoms: C14_19  and  N1_5 
REMARK    4  A    between atoms: C1_6  and  C11_16 
REMARK    5  A    between atoms: C11_16  and  C12_17 
REMARK    6  A    between atoms: C14_19  and  C15_20 
ROOT
HETATM    1  O1  UNK     1      28.480  -9.370  39.423  1.00  0.00    -0.267 OA
HETATM    2  N1  UNK     1      28.430  -7.392  38.191  1.00  0.00    -0.351 N 
HETATM    3  C14 UNK     1      27.945  -8.612  38.622  1.00  0.00     0.258 C 
HETATM    4  H19 UNK     1      27.867  -6.820  37.568  1.00  0.00     0.163 HD
ENDROOT
BRANCH   3   5
HETATM    5  C15 UNK     1      26.649  -8.958  38.009  1.00  0.00     0.108 A 
HETATM    6  C16 UNK     1      26.578 -10.153  37.410  1.00  0.00     0.037 A 
HETATM    7  C18 UNK     1      25.342 -10.584  36.777  1.00  0.00     0.002 A 
HETATM    8  C19 UNK     1      24.241  -9.735  36.805  1.00  0.00     0.123 A 
HETATM    9  C20 UNK     1      25.224 -11.822  36.143  1.00  0.00     0.014 A 
HETATM   10  O2  UNK     1      24.321  -8.479  37.435  1.00  0.00    -0.271 OA
HETATM   11  C21 UNK     1      23.028 -10.088  36.216  1.00  0.00     0.103 A 
HETATM   12  C17 UNK     1      25.490  -8.039  38.051  1.00  0.00     0.304 A 
HETATM   13  O3  UNK     1      25.550  -6.943  38.598  1.00  0.00    -0.259 OA
HETATM   14  C23 UNK     1      22.917 -11.325  35.585  1.00  0.00     0.040 A 
HETATM   15  C22 UNK     1      24.012 -12.191  35.548  1.00  0.00     0.004 A 
BRANCH  11  16
HETATM   16  O4  UNK     1      21.958  -9.249  36.250  1.00  0.00    -0.349 OA
BRANCH  16  17
HETATM   17  C24 UNK     1      21.355  -8.912  35.001  1.00  0.00     0.171 C 
HETATM   18  C25 UNK     1      20.551  -7.642  35.168  1.00  0.00     0.034 C 
ENDBRANCH  16  17
ENDBRANCH  11  16
ENDBRANCH   3   5
BRANCH   2  19
HETATM   19  C11 UNK     1      29.679  -6.838  38.652  1.00  0.00     0.093 C 
BRANCH  19  20
HETATM   20  C1  UNK     1      30.764  -7.075  37.598  1.00  0.00    -0.019 C 
HETATM   21  C5  UNK     1      31.696  -5.844  37.500  1.00  0.00     0.016 C 
HETATM   22  C2  UNK     1      32.787  -6.078  36.441  1.00  0.00    -0.013 C 
HETATM   23  C8  UNK     1      33.615  -7.314  36.832  1.00  0.00     0.009 C 
HETATM   24  C9  UNK     1      32.123  -6.323  35.076  1.00  0.00     0.009 C 
HETATM   25  C3  UNK     1      32.707  -8.553  36.914  1.00  0.00    -0.013 C 
HETATM   26  C10 UNK     1      32.043  -8.785  35.546  1.00  0.00     0.009 C 
HETATM   27  C6  UNK     1      31.615  -8.311  37.972  1.00  0.00     0.016 C 
HETATM   28  C4  UNK     1      31.208  -7.557  35.149  1.00  0.00    -0.013 C 
HETATM   29  C7  UNK     1      30.121  -7.319  36.212  1.00  0.00     0.016 C 
ENDBRANCH  19  20
BRANCH  19  30
HETATM   30  C12 UNK     1      29.551  -5.345  38.967  1.00  0.00     0.021 C 
HETATM   31  C13 UNK     1      28.199  -4.776  38.551  1.00  0.00     0.007 C 
ENDBRANCH  19  30
ENDBRANCH   2  19
TORSDOF 6
ENDMDL
MODEL 8
REMARK VINA RESULT:      -8.3     24.481     28.000
REMARK  6 active torsions:
REMARK  status: ('A' for Active; 'I' for Inactive)
REMARK    1  A    between atoms: C21_26  and  O4_4 
REMARK    2  A    between atoms: C24_29  and  O4_4 
REMARK    3  A    between atoms: C11_16  and  N1_5 
REMARK       I    between atoms: C14_19  and  N1_5 
REMARK    4  A    between atoms: C1_6  and  C11_16 
REMARK    5  A    between atoms: C11_16  and  C12_17 
REMARK    6  A    between atoms: C14_19  and  C15_20 
ROOT
HETATM    1  O1  UNK     1      14.746  10.549  10.896  1.00  0.00    -0.267 OA
HETATM    2  N1  UNK     1      15.070   8.812   9.375  1.00  0.00    -0.351 N 
HETATM    3  C14 UNK     1      15.188  10.108   9.841  1.00  0.00     0.258 C 
HETATM    4  H19 UNK     1      15.531   8.546   8.510  1.00  0.00     0.163 HD
ENDROOT
BRANCH   3   5
HETATM    5  C15 UNK     1      15.934  10.981   8.916  1.00  0.00     0.108 A 
HETATM    6  C16 UNK     1      15.242  11.981   8.358  1.00  0.00     0.037 A 
HETATM    7  C18 UNK     1      15.891  12.895   7.432  1.00  0.00     0.002 A 
HETATM    8  C19 UNK     1      17.239  12.710   7.138  1.00  0.00     0.123 A 
HETATM    9  C20 UNK     1      15.209  13.953   6.828  1.00  0.00     0.014 A 
HETATM   10  O2  UNK     1      17.962  11.656   7.727  1.00  0.00    -0.271 OA
HETATM   11  C21 UNK     1      17.919  13.550   6.258  1.00  0.00     0.103 A 
HETATM   12  C17 UNK     1      17.368  10.766   8.618  1.00  0.00     0.304 A 
HETATM   13  O3  UNK     1      18.006   9.850   9.126  1.00  0.00    -0.259 OA
HETATM   14  C23 UNK     1      17.231  14.602   5.660  1.00  0.00     0.040 A 
HETATM   15  C22 UNK     1      15.878  14.805   5.944  1.00  0.00     0.004 A 
BRANCH  11  16
HETATM   16  O4  UNK     1      19.236  13.358   5.979  1.00  0.00    -0.349 OA
BRANCH  16  17
HETATM   17  C24 UNK     1      19.604  13.269   4.603  1.00  0.00     0.171 C 
HETATM   18  C25 UNK     1      20.968  13.896   4.414  1.00  0.00     0.034 C 
ENDBRANCH  16  17
ENDBRANCH  11  16
ENDBRANCH   3   5
BRANCH   2  19
HETATM   19  C11 UNK     1      14.384   7.776  10.106  1.00  0.00     0.093 C 
BRANCH  19  20
HETATM   20  C1  UNK     1      13.242   7.217   9.253  1.00  0.00    -0.019 C 
HETATM   21  C5  UNK     1      12.844   5.806   9.745  1.00  0.00     0.016 C 
HETATM   22  C2  UNK     1      11.696   5.241   8.890  1.00  0.00    -0.013 C 
HETATM   23  C8  UNK     1      10.481   6.179   8.991  1.00  0.00     0.009 C 
HETATM   24  C9  UNK     1      12.152   5.159   7.423  1.00  0.00     0.009 C 
HETATM   25  C3  UNK     1      10.853   7.582   8.486  1.00  0.00    -0.013 C 
HETATM   26  C10 UNK     1      11.314   7.488   7.022  1.00  0.00     0.009 C 
HETATM   27  C6  UNK     1      12.004   8.140   9.343  1.00  0.00     0.016 C 
HETATM   28  C4  UNK     1      12.532   6.558   6.910  1.00  0.00    -0.013 C 
HETATM   29  C7  UNK     1      13.678   7.119   7.772  1.00  0.00     0.016 C 
ENDBRANCH  19  20
BRANCH  19  30
HETATM   30  C12 UNK     1      15.341   6.656  10.525  1.00  0.00     0.021 C 
HETATM   31  C13 UNK     1      16.729   6.818   9.918  1.00  0.00     0.007 C 
ENDBRANCH  19  30
ENDBRANCH   2  19
TORSDOF 6
ENDMDL
MODEL 9
REMARK VINA RESULT:      -8.3     14.263     17.376
REMARK  6 active torsions:
REMARK  status: ('A' for Active; 'I' for Inactive)
REMARK    1  A    between atoms: C21_26  and  O4_4 
REMARK    2  A    between atoms: C24_29  and  O4_4 
REMARK    3  A    between atoms: C11_16  and  N1_5 
REMARK       I    between atoms: C14_19  and  N1_5 
REMARK    4  A    between atoms: C1_6  and  C11_16 
REMARK    5  A    between atoms: C11_16  and  C12_17 
REMARK    6  A    between atoms: C14_19  and  C15_20 
ROOT
HETATM    1  O1  UNK     1      29.768  -4.989  31.605  1.00  0.00    -0.267 OA
HETATM    2  N1  UNK     1      28.931  -7.145  31.894  1.00  0.00    -0.351 N 
HETATM    3  C14 UNK     1      29.544  -5.974  32.299  1.00  0.00     0.258 C 
HETATM    4  H19 UNK     1      28.743  -7.874  32.577  1.00  0.00     0.163 HD
ENDROOT
BRANCH   3   5
HETATM    5  C15 UNK     1      29.932  -5.995  33.721  1.00  0.00     0.108 A 
HETATM    6  C16 UNK     1      31.163  -5.550  34.005  1.00  0.00     0.037 A 
HETATM    7  C18 UNK     1      31.637  -5.532  35.380  1.00  0.00     0.002 A 
HETATM    8  C19 UNK     1      30.792  -5.986  36.388  1.00  0.00     0.123 A 
HETATM    9  C20 UNK     1      32.911  -5.075  35.721  1.00  0.00     0.014 A 
HETATM   10  O2  UNK     1      29.500  -6.454  36.084  1.00  0.00    -0.271 OA
HETATM   11  C21 UNK     1      31.187  -5.996  37.725  1.00  0.00     0.103 A 
HETATM   12  C17 UNK     1      29.018  -6.481  34.778  1.00  0.00     0.304 A 
HETATM   13  O3  UNK     1      27.890  -6.891  34.522  1.00  0.00    -0.259 OA
HETATM   14  C23 UNK     1      32.459  -5.538  38.058  1.00  0.00     0.040 A 
HETATM   15  C22 UNK     1      33.320  -5.078  37.059  1.00  0.00     0.004 A 
BRANCH  11  16
HETATM   16  O4  UNK     1      30.352  -6.441  38.701  1.00  0.00    -0.349 OA
BRANCH  16  17
HETATM   17  C24 UNK     1      29.279  -5.580  39.083  1.00  0.00     0.171 C 
HETATM   18  C25 UNK     1      28.030  -6.409  39.288  1.00  0.00     0.034 C 
ENDBRANCH  16  17
ENDBRANCH  11  16
ENDBRANCH   3   5
BRANCH   2  19
HETATM   19  C11 UNK     1      28.461  -7.359  30.549  1.00  0.00     0.093 C 
BRANCH  19  20
HETATM   20  C1  UNK     1      29.287  -8.465  29.887  1.00  0.00    -0.019 C 
HETATM   21  C5  UNK     1      30.335  -7.853  28.929  1.00  0.00     0.016 C 
HETATM   22  C2  UNK     1      31.167  -8.962  28.262  1.00  0.00    -0.013 C 
HETATM   23  C8  UNK     1      31.886  -9.779  29.349  1.00  0.00     0.009 C 
HETATM   24  C9  UNK     1      30.231  -9.889  27.468  1.00  0.00     0.009 C 
HETATM   25  C3  UNK     1      30.857 -10.412  30.300  1.00  0.00    -0.013 C 
HETATM   26  C10 UNK     1      29.922 -11.331  29.496  1.00  0.00     0.009 C 
HETATM   27  C6  UNK     1      30.026  -9.298  30.961  1.00  0.00     0.016 C 
HETATM   28  C4  UNK     1      29.194 -10.524  28.410  1.00  0.00    -0.013 C 
HETATM   29  C7  UNK     1      28.367  -9.409  29.077  1.00  0.00     0.016 C 
ENDBRANCH  19  20
BRANCH  19  30
HETATM   30  C12 UNK     1      26.970  -7.712  30.523  1.00  0.00     0.021 C 
HETATM   31  C13 UNK     1      26.097  -6.524  30.138  1.00  0.00     0.007 C 
ENDBRANCH  19  30
ENDBRANCH   2  19
TORSDOF 6
ENDMDL
MODEL 10
REMARK VINA RESULT:      -8.2     24.162     26.701
REMARK  6 active torsions:
REMARK  status: ('A' for Active; 'I' for Inactive)
REMARK    1  A    between atoms: C21_26  and  O4_4 
REMARK    2  A    between atoms: C24_29  and  O4_4 
REMARK    3  A    between atoms: C11_16  and  N1_5 
REMARK       I    between atoms: C14_19  and  N1_5 
REMARK    4  A    between atoms: C1_6  and  C11_16 
REMARK    5  A    between atoms: C11_16  and  C12_17 
REMARK    6  A    between atoms: C14_19  and  C15_20 
ROOT
HETATM    1  O1  UNK     1      15.395   6.285   8.698  1.00  0.00    -0.267 OA
HETATM    2  N1  UNK     1      15.026   8.542   9.150  1.00  0.00    -0.351 N 
HETATM    3  C14 UNK     1      14.651   7.250   8.836  1.00  0.00     0.258 C 
HETATM    4  H19 UNK     1      14.312   9.249   9.299  1.00  0.00     0.163 HD
ENDROOT
BRANCH   3   5
HETATM    5  C15 UNK     1      13.193   7.103   8.669  1.00  0.00     0.108 A 
HETATM    6  C16 UNK     1      12.769   6.763   7.445  1.00  0.00     0.037 A 
HETATM    7  C18 UNK     1      11.349   6.596   7.182  1.00  0.00     0.002 A 
HETATM    8  C19 UNK     1      10.444   6.796   8.220  1.00  0.00     0.123 A 
HETATM    9  C20 UNK     1      10.863   6.240   5.923  1.00  0.00     0.014 A 
HETATM   10  O2  UNK     1      10.895   7.154   9.504  1.00  0.00    -0.271 OA
HETATM   11  C21 UNK     1       9.070   6.651   8.033  1.00  0.00     0.103 A 
HETATM   12  C17 UNK     1      12.249   7.320   9.787  1.00  0.00     0.304 A 
HETATM   13  O3  UNK     1      12.633   7.633  10.910  1.00  0.00    -0.259 OA
HETATM   14  C23 UNK     1       8.593   6.297   6.774  1.00  0.00     0.040 A 
HETATM   15  C22 UNK     1       9.487   6.091   5.720  1.00  0.00     0.004 A 
BRANCH  11  16
HETATM   16  O4  UNK     1       8.197   6.850   9.056  1.00  0.00    -0.349 OA
BRANCH  16  17
HETATM   17  C24 UNK     1       7.402   5.734   9.459  1.00  0.00     0.171 C 
HETATM   18  C25 UNK     1       8.257   4.789  10.276  1.00  0.00     0.034 C 
ENDBRANCH  16  17
ENDBRANCH  11  16
ENDBRANCH   3   5
BRANCH   2  19
HETATM   19  C11 UNK     1      16.398   8.930   9.364  1.00  0.00     0.093 C 
BRANCH  19  20
HETATM   20  C1  UNK     1      16.548  10.435   9.121  1.00  0.00    -0.019 C 
HETATM   21  C5  UNK     1      16.307  11.217  10.433  1.00  0.00     0.016 C 
HETATM   22  C2  UNK     1      16.457  12.730  10.193  1.00  0.00    -0.013 C 
HETATM   23  C8  UNK     1      17.877  13.021   9.679  1.00  0.00     0.009 C 
HETATM   24  C9  UNK     1      15.433  13.178   9.136  1.00  0.00     0.009 C 
HETATM   25  C3  UNK     1      18.128  12.267   8.363  1.00  0.00    -0.013 C 
HETATM   26  C10 UNK     1      17.095  12.717   7.316  1.00  0.00     0.009 C 
HETATM   27  C6  UNK     1      17.972  10.755   8.609  1.00  0.00     0.016 C 
HETATM   28  C4  UNK     1      15.672  12.424   7.817  1.00  0.00    -0.013 C 
HETATM   29  C7  UNK     1      15.524  10.912   8.065  1.00  0.00     0.016 C 
ENDBRANCH  19  20
BRANCH  19  30
HETATM   30  C12 UNK     1      16.873   8.562  10.773  1.00  0.00     0.021 C 
HETATM   31  C13 UNK     1      17.848   7.391  10.772  1.00  0.00     0.007 C 
ENDBRANCH  19  30
ENDBRANCH   2  19
TORSDOF 6
ENDMDL
