MODEL 1
REMARK VINA RESULT:     -10.0      0.000      0.000
REMARK  3 active torsions:
REMARK  status: ('A' for Active; 'I' for Inactive)
REMARK       I    between atoms: C17_23  and  N1_5 
REMARK    1  A    between atoms: N1_5  and  N2_6 
REMARK    2  A    between atoms: C15_21  and  C4_10 
REMARK    3  A    between atoms: C17_23  and  C7_13 
ROOT
HETATM    1  N2  UNK     1      18.889   4.659  30.696  1.00  0.00    -0.183 NA
HETATM    2  C15 UNK     1      19.014   4.981  31.943  1.00  0.00     0.156 C 
ENDROOT
BRANCH   2   3
HETATM    3  C4  UNK     1      18.554   6.265  32.472  1.00  0.00     0.056 A 
HETATM    4  C3  UNK     1      17.134   6.680  32.492  1.00  0.00     0.198 A 
HETATM    5  C1  UNK     1      16.859   8.013  33.062  1.00  0.00     0.050 A 
HETATM    6  O2  UNK     1      16.240   5.965  32.061  1.00  0.00    -0.286 OA
HETATM    7  C2  UNK     1      17.924   8.780  33.538  1.00  0.00     0.089 A 
HETATM    8  C5  UNK     1      15.553   8.503  33.127  1.00  0.00     0.042 A 
HETATM    9  O1  UNK     1      19.228   8.349  33.499  1.00  0.00    -0.321 OA
HETATM   10  C6  UNK     1      17.686  10.043  34.081  1.00  0.00     0.040 A 
HETATM   11  C9  UNK     1      19.471   7.106  32.963  1.00  0.00     0.159 A 
HETATM   12  C11 UNK     1      16.383  10.535  34.148  1.00  0.00     0.026 A 
HETATM   13  C10 UNK     1      15.319   9.767  33.672  1.00  0.00     0.035 A 
HETATM   14 Cl1  UNK     1      13.713  10.382  33.755  1.00  0.00    -0.084 Cl
ENDBRANCH   2   3
BRANCH   1  15
HETATM   15  N1  UNK     1      19.375   3.430  30.392  1.00  0.00    -0.243 N 
HETATM   16  C17 UNK     1      18.501   2.350  30.396  1.00  0.00     0.271 C 
HETATM   17  O3  UNK     1      17.304   2.477  30.665  1.00  0.00    -0.266 OA
HETATM   18  H13 UNK     1      20.373   3.351  30.234  1.00  0.00     0.192 HD
BRANCH  16  19
HETATM   19  C7  UNK     1      19.102   1.044  30.085  1.00  0.00     0.034 A 
HETATM   20  C12 UNK     1      19.566   0.243  31.119  1.00  0.00     0.024 A 
HETATM   21  C8  UNK     1      20.136  -0.994  30.823  1.00  0.00    -0.061 A 
HETATM   22  C14 UNK     1      20.236  -1.418  29.497  1.00  0.00     0.007 A 
HETATM   23  C18 UNK     1      20.638  -1.866  31.924  1.00  0.00     0.048 C 
HETATM   24  C16 UNK     1      19.767  -0.603  28.468  1.00  0.00     0.002 A 
HETATM   25  C13 UNK     1      19.196   0.635  28.763  1.00  0.00     0.017 A 
ENDBRANCH  16  19
ENDBRANCH   1  15
TORSDOF 3
ENDMDL
MODEL 2
REMARK VINA RESULT:     -10.0      1.243      2.006
REMARK  3 active torsions:
REMARK  status: ('A' for Active; 'I' for Inactive)
REMARK       I    between atoms: C17_23  and  N1_5 
REMARK    1  A    between atoms: N1_5  and  N2_6 
REMARK    2  A    between atoms: C15_21  and  C4_10 
REMARK    3  A    between atoms: C17_23  and  C7_13 
ROOT
HETATM    1  N2  UNK     1      18.707   4.634  30.723  1.00  0.00    -0.183 NA
HETATM    2  C15 UNK     1      18.476   4.915  31.964  1.00  0.00     0.156 C 
ENDROOT
BRANCH   2   3
HETATM    3  C4  UNK     1      17.871   6.179  32.383  1.00  0.00     0.056 A 
HETATM    4  C3  UNK     1      18.649   7.323  32.909  1.00  0.00     0.198 A 
HETATM    5  C1  UNK     1      17.866   8.517  33.285  1.00  0.00     0.050 A 
HETATM    6  O2  UNK     1      19.865   7.285  33.027  1.00  0.00    -0.286 OA
HETATM    7  C2  UNK     1      16.480   8.497  33.124  1.00  0.00     0.089 A 
HETATM    8  C5  UNK     1      18.501   9.652  33.794  1.00  0.00     0.042 A 
HETATM    9  O1  UNK     1      15.803   7.409  32.630  1.00  0.00    -0.321 OA
HETATM   10  C6  UNK     1      15.722   9.615  33.474  1.00  0.00     0.040 A 
HETATM   11  C9  UNK     1      16.543   6.303  32.285  1.00  0.00     0.159 A 
HETATM   12  C11 UNK     1      16.353  10.750  33.982  1.00  0.00     0.026 A 
HETATM   13  C10 UNK     1      17.739  10.768  34.141  1.00  0.00     0.035 A 
HETATM   14 Cl1  UNK     1      18.512  12.172  34.771  1.00  0.00    -0.084 Cl
ENDBRANCH   2   3
BRANCH   1  15
HETATM   15  N1  UNK     1      19.273   3.417  30.528  1.00  0.00    -0.243 N 
HETATM   16  C17 UNK     1      18.441   2.315  30.371  1.00  0.00     0.271 C 
HETATM   17  O3  UNK     1      17.213   2.412  30.402  1.00  0.00    -0.266 OA
HETATM   18  H13 UNK     1      20.284   3.363  30.567  1.00  0.00     0.192 HD
BRANCH  16  19
HETATM   19  C7  UNK     1      19.123   1.024  30.193  1.00  0.00     0.034 A 
HETATM   20  C12 UNK     1      19.362   0.221  31.298  1.00  0.00     0.024 A 
HETATM   21  C8  UNK     1      20.009  -1.003  31.128  1.00  0.00    -0.061 A 
HETATM   22  C14 UNK     1      20.410  -1.410  29.855  1.00  0.00     0.007 A 
HETATM   23  C18 UNK     1      20.271  -1.878  32.307  1.00  0.00     0.048 C 
HETATM   24  C16 UNK     1      20.164  -0.592  28.752  1.00  0.00     0.002 A 
HETATM   25  C13 UNK     1      19.517   0.632  28.922  1.00  0.00     0.017 A 
ENDBRANCH  16  19
ENDBRANCH   1  15
TORSDOF 3
ENDMDL
MODEL 3
REMARK VINA RESULT:      -9.4      7.789     12.263
REMARK  3 active torsions:
REMARK  status: ('A' for Active; 'I' for Inactive)
REMARK       I    between atoms: C17_23  and  N1_5 
REMARK    1  A    between atoms: N1_5  and  N2_6 
REMARK    2  A    between atoms: C15_21  and  C4_10 
REMARK    3  A    between atoms: C17_23  and  C7_13 
ROOT
HETATM    1  N2  UNK     1      20.744  -2.874  34.642  1.00  0.00    -0.183 NA
HETATM    2  C15 UNK     1      19.804  -3.693  34.985  1.00  0.00     0.156 C 
ENDROOT
BRANCH   2   3
HETATM    3  C4  UNK     1      19.955  -4.644  36.086  1.00  0.00     0.056 A 
HETATM    4  C3  UNK     1      19.611  -6.079  35.981  1.00  0.00     0.198 A 
HETATM    5  C1  UNK     1      19.827  -6.885  37.198  1.00  0.00     0.050 A 
HETATM    6  O2  UNK     1      19.172  -6.570  34.950  1.00  0.00    -0.286 OA
HETATM    7  C2  UNK     1      20.331  -6.265  38.343  1.00  0.00     0.089 A 
HETATM    8  C5  UNK     1      19.532  -8.251  37.209  1.00  0.00     0.042 A 
HETATM    9  O1  UNK     1      20.637  -4.927  38.390  1.00  0.00    -0.321 OA
HETATM   10  C6  UNK     1      20.542  -7.009  39.504  1.00  0.00     0.040 A 
HETATM   11  C9  UNK     1      20.429  -4.186  37.250  1.00  0.00     0.159 A 
HETATM   12  C11 UNK     1      20.249  -8.372  39.517  1.00  0.00     0.026 A 
HETATM   13  C10 UNK     1      19.746  -8.992  38.372  1.00  0.00     0.035 A 
HETATM   14 Cl1  UNK     1      19.385 -10.675  38.395  1.00  0.00    -0.084 Cl
ENDBRANCH   2   3
BRANCH   1  15
HETATM   15  N1  UNK     1      20.422  -2.070  33.598  1.00  0.00    -0.243 N 
HETATM   16  C17 UNK     1      20.773  -2.472  32.316  1.00  0.00     0.271 C 
HETATM   17  O3  UNK     1      21.363  -3.533  32.101  1.00  0.00    -0.266 OA
HETATM   18  H13 UNK     1      19.989  -1.179  33.814  1.00  0.00     0.192 HD
BRANCH  16  19
HETATM   19  C7  UNK     1      20.416  -1.539  31.237  1.00  0.00     0.034 A 
HETATM   20  C12 UNK     1      19.831  -0.322  31.553  1.00  0.00     0.024 A 
HETATM   21  C8  UNK     1      19.493   0.563  30.530  1.00  0.00    -0.061 A 
HETATM   22  C14 UNK     1      19.745   0.221  29.201  1.00  0.00     0.007 A 
HETATM   23  C18 UNK     1      18.864   1.875  30.856  1.00  0.00     0.048 C 
HETATM   24  C16 UNK     1      20.334  -1.006  28.896  1.00  0.00     0.002 A 
HETATM   25  C13 UNK     1      20.672  -1.891  29.919  1.00  0.00     0.017 A 
ENDBRANCH  16  19
ENDBRANCH   1  15
TORSDOF 3
ENDMDL
MODEL 4
REMARK VINA RESULT:      -9.2      3.512      9.485
REMARK  3 active torsions:
REMARK  status: ('A' for Active; 'I' for Inactive)
REMARK       I    between atoms: C17_23  and  N1_5 
REMARK    1  A    between atoms: N1_5  and  N2_6 
REMARK    2  A    between atoms: C15_21  and  C4_10 
REMARK    3  A    between atoms: C17_23  and  C7_13 
ROOT
HETATM    1  N2  UNK     1      18.515   4.766  31.411  1.00  0.00    -0.183 NA
HETATM    2  C15 UNK     1      17.903   3.626  31.390  1.00  0.00     0.156 C 
ENDROOT
BRANCH   2   3
HETATM    3  C4  UNK     1      18.508   2.420  30.825  1.00  0.00     0.056 A 
HETATM    4  C3  UNK     1      18.892   1.242  31.634  1.00  0.00     0.198 A 
HETATM    5  C1  UNK     1      19.492   0.117  30.890  1.00  0.00     0.050 A 
HETATM    6  O2  UNK     1      18.725   1.200  32.844  1.00  0.00    -0.286 OA
HETATM    7  C2  UNK     1      19.655   0.227  29.508  1.00  0.00     0.089 A 
HETATM    8  C5  UNK     1      19.893  -1.043  31.557  1.00  0.00     0.042 A 
HETATM    9  O1  UNK     1      19.281   1.343  28.801  1.00  0.00    -0.321 OA
HETATM   10  C6  UNK     1      20.221  -0.824  28.787  1.00  0.00     0.040 A 
HETATM   11  C9  UNK     1      18.724   2.385  29.506  1.00  0.00     0.159 A 
HETATM   12  C11 UNK     1      20.621  -1.984  29.450  1.00  0.00     0.026 A 
HETATM   13  C10 UNK     1      20.457  -2.093  30.831  1.00  0.00     0.035 A 
HETATM   14 Cl1  UNK     1      20.956  -3.527  31.644  1.00  0.00    -0.084 Cl
ENDBRANCH   2   3
BRANCH   1  15
HETATM   15  N1  UNK     1      17.795   5.768  31.973  1.00  0.00    -0.243 N 
HETATM   16  C17 UNK     1      18.457   6.700  32.763  1.00  0.00     0.271 C 
HETATM   17  O3  UNK     1      19.672   6.642  32.964  1.00  0.00    -0.266 OA
HETATM   18  H13 UNK     1      16.791   5.753  31.835  1.00  0.00     0.192 HD
BRANCH  16  19
HETATM   19  C7  UNK     1      17.610   7.742  33.362  1.00  0.00     0.034 A 
HETATM   20  C12 UNK     1      18.102   9.032  33.487  1.00  0.00     0.024 A 
HETATM   21  C8  UNK     1      17.299  10.020  34.055  1.00  0.00    -0.061 A 
HETATM   22  C14 UNK     1      16.011   9.706  34.493  1.00  0.00     0.007 A 
HETATM   23  C18 UNK     1      17.815  11.412  34.195  1.00  0.00     0.048 C 
HETATM   24  C16 UNK     1      15.528   8.405  34.361  1.00  0.00     0.002 A 
HETATM   25  C13 UNK     1      16.332   7.417  33.793  1.00  0.00     0.017 A 
ENDBRANCH  16  19
ENDBRANCH   1  15
TORSDOF 3
ENDMDL
MODEL 5
REMARK VINA RESULT:      -8.9      1.859      2.876
REMARK  3 active torsions:
REMARK  status: ('A' for Active; 'I' for Inactive)
REMARK       I    between atoms: C17_23  and  N1_5 
REMARK    1  A    between atoms: N1_5  and  N2_6 
REMARK    2  A    between atoms: C15_21  and  C4_10 
REMARK    3  A    between atoms: C17_23  and  C7_13 
ROOT
HETATM    1  N2  UNK     1      17.381   5.454  32.494  1.00  0.00    -0.183 NA
HETATM    2  C15 UNK     1      16.579   6.350  32.018  1.00  0.00     0.156 C 
ENDROOT
BRANCH   2   3
HETATM    3  C4  UNK     1      16.055   7.446  32.833  1.00  0.00     0.056 A 
HETATM    4  C3  UNK     1      16.828   8.663  33.163  1.00  0.00     0.198 A 
HETATM    5  C1  UNK     1      16.135   9.661  34.000  1.00  0.00     0.050 A 
HETATM    6  O2  UNK     1      17.974   8.833  32.769  1.00  0.00    -0.286 OA
HETATM    7  C2  UNK     1      14.827   9.407  34.416  1.00  0.00     0.089 A 
HETATM    8  C5  UNK     1      16.775  10.846  34.372  1.00  0.00     0.042 A 
HETATM    9  O1  UNK     1      14.149   8.260  34.081  1.00  0.00    -0.321 OA
HETATM   10  C6  UNK     1      14.154  10.338  35.208  1.00  0.00     0.040 A 
HETATM   11  C9  UNK     1      14.807   7.337  33.302  1.00  0.00     0.159 A 
HETATM   12  C11 UNK     1      14.790  11.521  35.581  1.00  0.00     0.026 A 
HETATM   13  C10 UNK     1      16.098  11.774  35.164  1.00  0.00     0.035 A 
HETATM   14 Cl1  UNK     1      16.879  13.236  35.629  1.00  0.00    -0.084 Cl
ENDBRANCH   2   3
BRANCH   1  15
HETATM   15  N1  UNK     1      17.760   4.517  31.589  1.00  0.00    -0.243 N 
HETATM   16  C17 UNK     1      18.018   3.227  32.036  1.00  0.00     0.271 C 
HETATM   17  O3  UNK     1      17.912   2.912  33.223  1.00  0.00    -0.266 OA
HETATM   18  H13 UNK     1      17.895   4.822  30.632  1.00  0.00     0.192 HD
BRANCH  16  19
HETATM   19  C7  UNK     1      18.451   2.271  31.005  1.00  0.00     0.034 A 
HETATM   20  C12 UNK     1      19.291   1.225  31.356  1.00  0.00     0.024 A 
HETATM   21  C8  UNK     1      19.701   0.319  30.378  1.00  0.00    -0.061 A 
HETATM   22  C14 UNK     1      19.267   0.470  29.061  1.00  0.00     0.007 A 
HETATM   23  C18 UNK     1      20.603  -0.812  30.741  1.00  0.00     0.048 C 
HETATM   24  C16 UNK     1      18.423   1.527  28.722  1.00  0.00     0.002 A 
HETATM   25  C13 UNK     1      18.012   2.433  29.699  1.00  0.00     0.017 A 
ENDBRANCH  16  19
ENDBRANCH   1  15
TORSDOF 3
ENDMDL
MODEL 6
REMARK VINA RESULT:      -8.8     15.155     20.096
REMARK  3 active torsions:
REMARK  status: ('A' for Active; 'I' for Inactive)
REMARK       I    between atoms: C17_23  and  N1_5 
REMARK    1  A    between atoms: N1_5  and  N2_6 
REMARK    2  A    between atoms: C15_21  and  C4_10 
REMARK    3  A    between atoms: C17_23  and  C7_13 
ROOT
HETATM    1  N2  UNK     1      19.055  -1.967  15.864  1.00  0.00    -0.183 NA
HETATM    2  C15 UNK     1      19.801  -3.023  15.847  1.00  0.00     0.156 C 
ENDROOT
BRANCH   2   3
HETATM    3  C4  UNK     1      19.564  -4.137  14.929  1.00  0.00     0.056 A 
HETATM    4  C3  UNK     1      20.539  -5.226  14.695  1.00  0.00     0.198 A 
HETATM    5  C1  UNK     1      20.127  -6.264  13.730  1.00  0.00     0.050 A 
HETATM    6  O2  UNK     1      21.621  -5.264  15.263  1.00  0.00    -0.286 OA
HETATM    7  C2  UNK     1      18.877  -6.162  13.116  1.00  0.00     0.089 A 
HETATM    8  C5  UNK     1      20.973  -7.335  13.434  1.00  0.00     0.042 A 
HETATM    9  O1  UNK     1      18.005  -5.131  13.369  1.00  0.00    -0.321 OA
HETATM   10  C6  UNK     1      18.469  -7.133  12.201  1.00  0.00     0.040 A 
HETATM   11  C9  UNK     1      18.402  -4.169  14.268  1.00  0.00     0.159 A 
HETATM   12  C11 UNK     1      19.311  -8.204  11.904  1.00  0.00     0.026 A 
HETATM   13  C10 UNK     1      20.560  -8.304  12.519  1.00  0.00     0.035 A 
HETATM   14 Cl1  UNK     1      21.596  -9.628  12.145  1.00  0.00    -0.084 Cl
ENDBRANCH   2   3
BRANCH   1  15
HETATM   15  N1  UNK     1      19.428  -1.042  16.783  1.00  0.00    -0.243 N 
HETATM   16  C17 UNK     1      18.479  -0.581  17.686  1.00  0.00     0.271 C 
HETATM   17  O3  UNK     1      17.315  -0.987  17.676  1.00  0.00    -0.266 OA
HETATM   18  H13 UNK     1      20.376  -0.687  16.726  1.00  0.00     0.192 HD
BRANCH  16  19
HETATM   19  C7  UNK     1      18.947   0.441  18.635  1.00  0.00     0.034 A 
HETATM   20  C12 UNK     1      19.316   1.692  18.163  1.00  0.00     0.024 A 
HETATM   21  C8  UNK     1      19.760   2.660  19.063  1.00  0.00    -0.061 A 
HETATM   22  C14 UNK     1      19.830   2.366  20.426  1.00  0.00     0.007 A 
HETATM   23  C18 UNK     1      20.159   4.009  18.570  1.00  0.00     0.048 C 
HETATM   24  C16 UNK     1      19.457   1.104  20.887  1.00  0.00     0.002 A 
HETATM   25  C13 UNK     1      19.012   0.136  19.987  1.00  0.00     0.017 A 
ENDBRANCH  16  19
ENDBRANCH   1  15
TORSDOF 3
ENDMDL
MODEL 7
REMARK VINA RESULT:      -8.8      6.024      8.104
REMARK  3 active torsions:
REMARK  status: ('A' for Active; 'I' for Inactive)
REMARK       I    between atoms: C17_23  and  N1_5 
REMARK    1  A    between atoms: N1_5  and  N2_6 
REMARK    2  A    between atoms: C15_21  and  C4_10 
REMARK    3  A    between atoms: C17_23  and  C7_13 
ROOT
HETATM    1  N2  UNK     1      19.201  -1.777  35.667  1.00  0.00    -0.183 NA
HETATM    2  C15 UNK     1      18.136  -1.072  35.465  1.00  0.00     0.156 C 
ENDROOT
BRANCH   2   3
HETATM    3  C4  UNK     1      18.182   0.280  34.909  1.00  0.00     0.056 A 
HETATM    4  C3  UNK     1      18.327   0.566  33.465  1.00  0.00     0.198 A 
HETATM    5  C1  UNK     1      18.358   1.993  33.090  1.00  0.00     0.050 A 
HETATM    6  O2  UNK     1      18.418  -0.323  32.631  1.00  0.00    -0.286 OA
HETATM    7  C2  UNK     1      18.248   2.960  34.091  1.00  0.00     0.089 A 
HETATM    8  C5  UNK     1      18.494   2.375  31.753  1.00  0.00     0.042 A 
HETATM    9  O1  UNK     1      18.113   2.644  35.420  1.00  0.00    -0.321 OA
HETATM   10  C6  UNK     1      18.275   4.315  33.757  1.00  0.00     0.040 A 
HETATM   11  C9  UNK     1      18.088   1.310  35.757  1.00  0.00     0.159 A 
HETATM   12  C11 UNK     1      18.410   4.698  32.424  1.00  0.00     0.026 A 
HETATM   13  C10 UNK     1      18.519   3.731  31.424  1.00  0.00     0.035 A 
HETATM   14 Cl1  UNK     1      18.688   4.211  29.779  1.00  0.00    -0.084 Cl
ENDBRANCH   2   3
BRANCH   1  15
HETATM   15  N1  UNK     1      18.960  -3.005  36.189  1.00  0.00    -0.243 N 
HETATM   16  C17 UNK     1      20.042  -3.814  36.514  1.00  0.00     0.271 C 
HETATM   17  O3  UNK     1      21.207  -3.449  36.344  1.00  0.00    -0.266 OA
HETATM   18  H13 UNK     1      17.992  -3.297  36.262  1.00  0.00     0.192 HD
BRANCH  16  19
HETATM   19  C7  UNK     1      19.705  -5.142  37.049  1.00  0.00     0.034 A 
HETATM   20  C12 UNK     1      20.529  -5.722  38.002  1.00  0.00     0.024 A 
HETATM   21  C8  UNK     1      20.210  -6.981  38.509  1.00  0.00    -0.061 A 
HETATM   22  C14 UNK     1      19.069  -7.646  38.058  1.00  0.00     0.007 A 
HETATM   23  C18 UNK     1      21.086  -7.617  39.535  1.00  0.00     0.048 C 
HETATM   24  C16 UNK     1      18.249  -7.052  37.099  1.00  0.00     0.002 A 
HETATM   25  C13 UNK     1      18.568  -5.793  36.592  1.00  0.00     0.017 A 
ENDBRANCH  16  19
ENDBRANCH   1  15
TORSDOF 3
ENDMDL
MODEL 8
REMARK VINA RESULT:      -8.8      6.345      8.824
REMARK  3 active torsions:
REMARK  status: ('A' for Active; 'I' for Inactive)
REMARK       I    between atoms: C17_23  and  N1_5 
REMARK    1  A    between atoms: N1_5  and  N2_6 
REMARK    2  A    between atoms: C15_21  and  C4_10 
REMARK    3  A    between atoms: C17_23  and  C7_13 
ROOT
HETATM    1  N2  UNK     1      19.579  -2.868  35.467  1.00  0.00    -0.183 NA
HETATM    2  C15 UNK     1      18.830  -1.849  35.738  1.00  0.00     0.156 C 
ENDROOT
BRANCH   2   3
HETATM    3  C4  UNK     1      18.688  -0.715  34.825  1.00  0.00     0.056 A 
HETATM    4  C3  UNK     1      18.564   0.689  35.278  1.00  0.00     0.198 A 
HETATM    5  C1  UNK     1      18.426   1.700  34.212  1.00  0.00     0.050 A 
HETATM    6  O2  UNK     1      18.575   0.995  36.462  1.00  0.00    -0.286 OA
HETATM    7  C2  UNK     1      18.423   1.285  32.879  1.00  0.00     0.089 A 
HETATM    8  C5  UNK     1      18.301   3.055  34.529  1.00  0.00     0.042 A 
HETATM    9  O1  UNK     1      18.542  -0.032  32.509  1.00  0.00    -0.321 OA
HETATM   10  C6  UNK     1      18.293   2.226  31.857  1.00  0.00     0.040 A 
HETATM   11  C9  UNK     1      18.668  -0.965  33.511  1.00  0.00     0.159 A 
HETATM   12  C11 UNK     1      18.168   3.579  32.170  1.00  0.00     0.026 A 
HETATM   13  C10 UNK     1      18.172   3.992  33.503  1.00  0.00     0.035 A 
HETATM   14 Cl1  UNK     1      18.015   5.664  33.883  1.00  0.00    -0.084 Cl
ENDBRANCH   2   3
BRANCH   1  15
HETATM   15  N1  UNK     1      19.586  -3.820  36.433  1.00  0.00    -0.243 N 
HETATM   16  C17 UNK     1      19.933  -5.119  36.084  1.00  0.00     0.271 C 
HETATM   17  O3  UNK     1      20.236  -5.428  34.930  1.00  0.00    -0.266 OA
HETATM   18  H13 UNK     1      19.276  -3.545  37.359  1.00  0.00     0.192 HD
BRANCH  16  19
HETATM   19  C7  UNK     1      19.892  -6.104  37.176  1.00  0.00     0.034 A 
HETATM   20  C12 UNK     1      19.467  -7.397  36.912  1.00  0.00     0.024 A 
HETATM   21  C8  UNK     1      19.427  -8.330  37.947  1.00  0.00    -0.061 A 
HETATM   22  C14 UNK     1      19.814  -7.959  39.236  1.00  0.00     0.007 A 
HETATM   23  C18 UNK     1      18.973  -9.725  37.678  1.00  0.00     0.048 C 
HETATM   24  C16 UNK     1      20.239  -6.655  39.488  1.00  0.00     0.002 A 
HETATM   25  C13 UNK     1      20.279  -5.722  38.453  1.00  0.00     0.017 A 
ENDBRANCH  16  19
ENDBRANCH   1  15
TORSDOF 3
ENDMDL
MODEL 9
REMARK VINA RESULT:      -8.8      1.516      2.028
REMARK  3 active torsions:
REMARK  status: ('A' for Active; 'I' for Inactive)
REMARK       I    between atoms: C17_23  and  N1_5 
REMARK    1  A    between atoms: N1_5  and  N2_6 
REMARK    2  A    between atoms: C15_21  and  C4_10 
REMARK    3  A    between atoms: C17_23  and  C7_13 
ROOT
HETATM    1  N2  UNK     1      17.607   4.951  32.565  1.00  0.00    -0.183 NA
HETATM    2  C15 UNK     1      16.935   5.885  31.974  1.00  0.00     0.156 C 
ENDROOT
BRANCH   2   3
HETATM    3  C4  UNK     1      16.685   7.186  32.595  1.00  0.00     0.056 A 
HETATM    4  C3  UNK     1      15.350   7.822  32.651  1.00  0.00     0.198 A 
HETATM    5  C1  UNK     1      15.291   9.138  33.316  1.00  0.00     0.050 A 
HETATM    6  O2  UNK     1      14.356   7.293  32.176  1.00  0.00    -0.286 OA
HETATM    7  C2  UNK     1      16.463   9.688  33.840  1.00  0.00     0.089 A 
HETATM    8  C5  UNK     1      14.081   9.828  33.422  1.00  0.00     0.042 A 
HETATM    9  O1  UNK     1      17.680   9.056  33.763  1.00  0.00    -0.321 OA
HETATM   10  C6  UNK     1      16.428  10.931  34.471  1.00  0.00     0.040 A 
HETATM   11  C9  UNK     1      17.723   7.831  33.140  1.00  0.00     0.159 A 
HETATM   12  C11 UNK     1      15.221  11.621  34.579  1.00  0.00     0.026 A 
HETATM   13  C10 UNK     1      14.050  11.071  34.056  1.00  0.00     0.035 A 
HETATM   14 Cl1  UNK     1      12.564  11.929  34.191  1.00  0.00    -0.084 Cl
ENDBRANCH   2   3
BRANCH   1  15
HETATM   15  N1  UNK     1      17.734   3.816  31.834  1.00  0.00    -0.243 N 
HETATM   16  C17 UNK     1      18.714   3.765  30.851  1.00  0.00     0.271 C 
HETATM   17  O3  UNK     1      19.466   4.715  30.627  1.00  0.00    -0.266 OA
HETATM   18  H13 UNK     1      17.063   3.076  32.004  1.00  0.00     0.192 HD
BRANCH  16  19
HETATM   19  C7  UNK     1      18.776   2.514  30.079  1.00  0.00     0.034 A 
HETATM   20  C12 UNK     1      19.629   1.501  30.492  1.00  0.00     0.024 A 
HETATM   21  C8  UNK     1      19.688   0.315  29.760  1.00  0.00    -0.061 A 
HETATM   22  C14 UNK     1      18.893   0.156  28.624  1.00  0.00     0.007 A 
HETATM   23  C18 UNK     1      20.599  -0.783  30.192  1.00  0.00     0.048 C 
HETATM   24  C16 UNK     1      18.041   1.183  28.220  1.00  0.00     0.002 A 
HETATM   25  C13 UNK     1      17.982   2.369  28.952  1.00  0.00     0.017 A 
ENDBRANCH  16  19
ENDBRANCH   1  15
TORSDOF 3
ENDMDL
MODEL 10
REMARK VINA RESULT:      -8.7      9.226     14.189
REMARK  3 active torsions:
REMARK  status: ('A' for Active; 'I' for Inactive)
REMARK       I    between atoms: C17_23  and  N1_5 
REMARK    1  A    between atoms: N1_5  and  N2_6 
REMARK    2  A    between atoms: C15_21  and  C4_10 
REMARK    3  A    between atoms: C17_23  and  C7_13 
ROOT
HETATM    1  N2  UNK     1      19.697  -3.974  36.474  1.00  0.00    -0.183 NA
HETATM    2  C15 UNK     1      18.860  -4.952  36.343  1.00  0.00     0.156 C 
ENDROOT
BRANCH   2   3
HETATM    3  C4  UNK     1      19.220  -6.338  36.641  1.00  0.00     0.056 A 
HETATM    4  C3  UNK     1      20.281  -7.080  35.925  1.00  0.00     0.198 A 
HETATM    5  C1  UNK     1      20.501  -8.472  36.362  1.00  0.00     0.050 A 
HETATM    6  O2  UNK     1      20.935  -6.574  35.025  1.00  0.00    -0.286 OA
HETATM    7  C2  UNK     1      19.721  -8.991  37.397  1.00  0.00     0.089 A 
HETATM    8  C5  UNK     1      21.478  -9.263  35.751  1.00  0.00     0.042 A 
HETATM    9  O1  UNK     1      18.747  -8.260  38.033  1.00  0.00    -0.321 OA
HETATM   10  C6  UNK     1      19.914 -10.304  37.825  1.00  0.00     0.040 A 
HETATM   11  C9  UNK     1      18.550  -6.964  37.615  1.00  0.00     0.159 A 
HETATM   12  C11 UNK     1      20.887 -11.096  37.217  1.00  0.00     0.026 A 
HETATM   13  C10 UNK     1      21.667 -10.577  36.183  1.00  0.00     0.035 A 
HETATM   14 Cl1  UNK     1      22.867 -11.561  35.436  1.00  0.00    -0.084 Cl
ENDBRANCH   2   3
BRANCH   1  15
HETATM   15  N1  UNK     1      19.183  -2.761  36.149  1.00  0.00    -0.243 N 
HETATM   16  C17 UNK     1      18.921  -1.855  37.169  1.00  0.00     0.271 C 
HETATM   17  O3  UNK     1      19.142  -2.120  38.353  1.00  0.00    -0.266 OA
HETATM   18  H13 UNK     1      18.958  -2.597  35.174  1.00  0.00     0.192 HD
BRANCH  16  19
HETATM   19  C7  UNK     1      18.339  -0.572  36.747  1.00  0.00     0.034 A 
HETATM   20  C12 UNK     1      18.546  -0.124  35.451  1.00  0.00     0.024 A 
HETATM   21  C8  UNK     1      17.995   1.093  35.050  1.00  0.00    -0.061 A 
HETATM   22  C14 UNK     1      17.242   1.847  35.951  1.00  0.00     0.007 A 
HETATM   23  C18 UNK     1      18.208   1.587  33.660  1.00  0.00     0.048 C 
HETATM   24  C16 UNK     1      17.042   1.385  37.252  1.00  0.00     0.002 A 
HETATM   25  C13 UNK     1      17.593   0.169  37.652  1.00  0.00     0.017 A 
ENDBRANCH  16  19
ENDBRANCH   1  15
TORSDOF 3
ENDMDL
