MODEL 1
REMARK VINA RESULT:      -8.5      0.000      0.000
REMARK  5 active torsions:
REMARK  status: ('A' for Active; 'I' for Inactive)
REMARK    1  A    between atoms: C5_11  and  O2_2 
REMARK    2  A    between atoms: C11_17  and  O4_4 
REMARK    3  A    between atoms: C13_19  and  O5_5 
REMARK    4  A    between atoms: C15_21  and  O6_6 
REMARK    5  A    between atoms: C2_8  and  C4_10 
ROOT
HETATM    1  O1  UNK     1      18.603  -1.732  16.869  1.00  0.00    -0.306 OA
HETATM    2  O3  UNK     1      19.657  -0.292  13.206  1.00  0.00    -0.284 OA
HETATM    3  C1  UNK     1      18.877  -2.112  14.488  1.00  0.00     0.053 A 
HETATM    4  C2  UNK     1      19.023  -0.422  16.700  1.00  0.00     0.123 A 
HETATM    5  C3  UNK     1      18.533  -2.544  15.767  1.00  0.00     0.090 A 
HETATM    6  C5  UNK     1      19.392   0.116  15.524  1.00  0.00     0.152 A 
HETATM    7  C6  UNK     1      19.337  -0.727  14.305  1.00  0.00     0.220 A 
HETATM    8  C7  UNK     1      18.788  -2.984  13.401  1.00  0.00     0.055 A 
HETATM    9  C8  UNK     1      18.098  -3.854  15.967  1.00  0.00     0.041 A 
HETATM   10  C11 UNK     1      18.351  -4.295  13.603  1.00  0.00     0.066 A 
HETATM   11  C12 UNK     1      18.007  -4.728  14.884  1.00  0.00     0.039 A 
ENDROOT
BRANCH   4  12
HETATM   12  C4  UNK     1      19.051   0.339  17.963  1.00  0.00     0.004 A 
HETATM   13  C10 UNK     1      18.798   1.711  17.957  1.00  0.00     0.017 A 
HETATM   14  C14 UNK     1      18.823   2.430  19.152  1.00  0.00     0.040 A 
HETATM   15  C15 UNK     1      19.104   1.778  20.353  1.00  0.00     0.098 A 
HETATM   16  C13 UNK     1      19.357   0.407  20.359  1.00  0.00     0.099 A 
HETATM   17  C9  UNK     1      19.331  -0.313  19.165  1.00  0.00     0.053 A 
BRANCH  15  18
HETATM   18  O6  UNK     1      19.127   2.492  21.512  1.00  0.00    -0.358 OA
HETATM   19  H10 UNK     1      20.041   2.740  21.726  1.00  0.00     0.217 HD
ENDBRANCH  15  18
BRANCH  16  20
HETATM   20  O5  UNK     1      19.632  -0.241  21.526  1.00  0.00    -0.358 OA
HETATM   21  H9  UNK     1      20.201  -1.008  21.349  1.00  0.00     0.217 HD
ENDBRANCH  16  20
ENDBRANCH   4  12
BRANCH   6  22
HETATM   22  O2  UNK     1      19.838   1.413  15.396  1.00  0.00    -0.355 OA
HETATM   23  H7  UNK     1      19.270   1.896  14.772  1.00  0.00     0.218 HD
ENDBRANCH   6  22
BRANCH  10  24
HETATM   24  O4  UNK     1      18.261  -5.152  12.549  1.00  0.00    -0.361 OA
HETATM   25  H8  UNK     1      18.771  -4.790  11.804  1.00  0.00     0.217 HD
ENDBRANCH  10  24
TORSDOF 5
ENDMDL
MODEL 2
REMARK VINA RESULT:      -8.3     11.773     13.970
REMARK  5 active torsions:
REMARK  status: ('A' for Active; 'I' for Inactive)
REMARK    1  A    between atoms: C5_11  and  O2_2 
REMARK    2  A    between atoms: C11_17  and  O4_4 
REMARK    3  A    between atoms: C13_19  and  O5_5 
REMARK    4  A    between atoms: C15_21  and  O6_6 
REMARK    5  A    between atoms: C2_8  and  C4_10 
ROOT
HETATM    1  O1  UNK     1      13.118   7.499   8.679  1.00  0.00    -0.306 OA
HETATM    2  O3  UNK     1      14.860   3.918   9.544  1.00  0.00    -0.284 OA
HETATM    3  C1  UNK     1      15.050   6.268   9.484  1.00  0.00     0.053 A 
HETATM    4  C2  UNK     1      12.440   6.303   8.504  1.00  0.00     0.123 A 
HETATM    5  C3  UNK     1      14.400   7.459   9.166  1.00  0.00     0.090 A 
HETATM    6  C5  UNK     1      12.955   5.088   8.762  1.00  0.00     0.152 A 
HETATM    7  C6  UNK     1      14.339   4.996   9.288  1.00  0.00     0.220 A 
HETATM    8  C7  UNK     1      16.357   6.288   9.976  1.00  0.00     0.055 A 
HETATM    9  C8  UNK     1      15.054   8.679   9.340  1.00  0.00     0.041 A 
HETATM   10  C11 UNK     1      17.009   7.510  10.150  1.00  0.00     0.066 A 
HETATM   11  C12 UNK     1      16.358   8.702   9.832  1.00  0.00     0.039 A 
ENDROOT
BRANCH   4  12
HETATM   12  C4  UNK     1      11.076   6.490   7.976  1.00  0.00     0.004 A 
HETATM   13  C10 UNK     1      10.815   6.274   6.623  1.00  0.00     0.017 A 
HETATM   14  C14 UNK     1       9.525   6.449   6.124  1.00  0.00     0.040 A 
HETATM   15  C15 UNK     1       8.495   6.842   6.977  1.00  0.00     0.098 A 
HETATM   16  C13 UNK     1       8.754   7.058   8.330  1.00  0.00     0.099 A 
HETATM   17  C9  UNK     1      10.044   6.882   8.830  1.00  0.00     0.053 A 
BRANCH  15  18
HETATM   18  O6  UNK     1       7.239   7.011   6.478  1.00  0.00    -0.358 OA
HETATM   19  H10 UNK     1       7.237   7.739   5.835  1.00  0.00     0.217 HD
ENDBRANCH  15  18
BRANCH  16  20
HETATM   20  O5  UNK     1       7.756   7.443   9.174  1.00  0.00    -0.358 OA
HETATM   21  H9  UNK     1       7.086   7.944   8.682  1.00  0.00     0.217 HD
ENDBRANCH  16  20
ENDBRANCH   4  12
BRANCH   6  22
HETATM   22  O2  UNK     1      12.265   3.916   8.546  1.00  0.00    -0.355 OA
HETATM   23  H7  UNK     1      12.064   3.821   7.600  1.00  0.00     0.218 HD
ENDBRANCH   6  22
BRANCH  10  24
HETATM   24  O4  UNK     1      18.283   7.538  10.629  1.00  0.00    -0.361 OA
HETATM   25  H8  UNK     1      18.269   7.310  11.574  1.00  0.00     0.217 HD
ENDBRANCH  10  24
TORSDOF 5
ENDMDL
MODEL 3
REMARK VINA RESULT:      -8.2     15.833     17.935
REMARK  5 active torsions:
REMARK  status: ('A' for Active; 'I' for Inactive)
REMARK    1  A    between atoms: C5_11  and  O2_2 
REMARK    2  A    between atoms: C11_17  and  O4_4 
REMARK    3  A    between atoms: C13_19  and  O5_5 
REMARK    4  A    between atoms: C15_21  and  O6_6 
REMARK    5  A    between atoms: C2_8  and  C4_10 
ROOT
HETATM    1  O1  UNK     1      18.273   3.896  34.468  1.00  0.00    -0.306 OA
HETATM    2  O3  UNK     1      18.402   1.678  31.052  1.00  0.00    -0.284 OA
HETATM    3  C1  UNK     1      18.338   1.713  33.410  1.00  0.00     0.053 A 
HETATM    4  C2  UNK     1      18.281   4.493  33.217  1.00  0.00     0.123 A 
HETATM    5  C3  UNK     1      18.297   2.527  34.539  1.00  0.00     0.090 A 
HETATM    6  C5  UNK     1      18.330   3.824  32.052  1.00  0.00     0.152 A 
HETATM    7  C6  UNK     1      18.360   2.342  32.080  1.00  0.00     0.220 A 
HETATM    8  C7  UNK     1      18.362   0.323  33.543  1.00  0.00     0.055 A 
HETATM    9  C8  UNK     1      18.279   1.955  35.811  1.00  0.00     0.041 A 
HETATM   10  C11 UNK     1      18.343  -0.248  34.817  1.00  0.00     0.066 A 
HETATM   11  C12 UNK     1      18.302   0.567  35.948  1.00  0.00     0.039 A 
ENDROOT
BRANCH   4  12
HETATM   12  C4  UNK     1      18.253   5.966  33.285  1.00  0.00     0.004 A 
HETATM   13  C10 UNK     1      19.254   6.653  33.973  1.00  0.00     0.017 A 
HETATM   14  C14 UNK     1      19.227   8.046  34.035  1.00  0.00     0.040 A 
HETATM   15  C15 UNK     1      18.199   8.753  33.411  1.00  0.00     0.098 A 
HETATM   16  C13 UNK     1      17.200   8.067  32.723  1.00  0.00     0.099 A 
HETATM   17  C9  UNK     1      17.226   6.674  32.659  1.00  0.00     0.053 A 
BRANCH  15  18
HETATM   18  O6  UNK     1      18.184  10.113  33.480  1.00  0.00    -0.358 OA
HETATM   19  H10 UNK     1      17.928  10.393  34.374  1.00  0.00     0.217 HD
ENDBRANCH  15  18
BRANCH  16  20
HETATM   20  O5  UNK     1      16.190   8.746  32.109  1.00  0.00    -0.358 OA
HETATM   21  H9  UNK     1      15.439   8.838  32.717  1.00  0.00     0.217 HD
ENDBRANCH  16  20
ENDBRANCH   4  12
BRANCH   6  22
HETATM   22  O2  UNK     1      18.370   4.449  30.825  1.00  0.00    -0.355 OA
HETATM   23  H7  UNK     1      18.012   3.859  30.142  1.00  0.00     0.218 HD
ENDBRANCH   6  22
BRANCH  10  24
HETATM   24  O4  UNK     1      18.366  -1.602  34.956  1.00  0.00    -0.361 OA
HETATM   25  H8  UNK     1      17.517  -1.965  34.650  1.00  0.00     0.217 HD
ENDBRANCH  10  24
TORSDOF 5
ENDMDL
MODEL 4
REMARK VINA RESULT:      -8.2     13.118     16.570
REMARK  5 active torsions:
REMARK  status: ('A' for Active; 'I' for Inactive)
REMARK    1  A    between atoms: C5_11  and  O2_2 
REMARK    2  A    between atoms: C11_17  and  O4_4 
REMARK    3  A    between atoms: C13_19  and  O5_5 
REMARK    4  A    between atoms: C15_21  and  O6_6 
REMARK    5  A    between atoms: C2_8  and  C4_10 
ROOT
HETATM    1  O1  UNK     1      18.279   4.166  31.102  1.00  0.00    -0.306 OA
HETATM    2  O3  UNK     1      18.672   1.344  34.015  1.00  0.00    -0.284 OA
HETATM    3  C1  UNK     1      18.714   1.857  31.713  1.00  0.00     0.053 A 
HETATM    4  C2  UNK     1      18.142   4.487  32.443  1.00  0.00     0.123 A 
HETATM    5  C3  UNK     1      18.565   2.867  30.766  1.00  0.00     0.090 A 
HETATM    6  C5  UNK     1      18.252   3.606  33.453  1.00  0.00     0.152 A 
HETATM    7  C6  UNK     1      18.557   2.190  33.138  1.00  0.00     0.220 A 
HETATM    8  C7  UNK     1      19.005   0.551  31.313  1.00  0.00     0.055 A 
HETATM    9  C8  UNK     1      18.706   2.577  29.408  1.00  0.00     0.041 A 
HETATM   10  C11 UNK     1      19.146   0.263  29.954  1.00  0.00     0.066 A 
HETATM   11  C12 UNK     1      18.997   1.274  29.004  1.00  0.00     0.039 A 
ENDROOT
BRANCH   4  12
HETATM   12  C4  UNK     1      17.836   5.911  32.664  1.00  0.00     0.004 A 
HETATM   13  C10 UNK     1      18.428   6.598  33.724  1.00  0.00     0.017 A 
HETATM   14  C14 UNK     1      18.139   7.946  33.932  1.00  0.00     0.040 A 
HETATM   15  C15 UNK     1      17.256   8.609  33.080  1.00  0.00     0.098 A 
HETATM   16  C13 UNK     1      16.664   7.924  32.019  1.00  0.00     0.099 A 
HETATM   17  C9  UNK     1      16.953   6.576  31.810  1.00  0.00     0.053 A 
BRANCH  15  18
HETATM   18  O6  UNK     1      16.981   9.926  33.294  1.00  0.00    -0.358 OA
HETATM   19  H10 UNK     1      16.546  10.301  32.511  1.00  0.00     0.217 HD
ENDBRANCH  15  18
BRANCH  16  20
HETATM   20  O5  UNK     1      15.799   8.562  31.180  1.00  0.00    -0.358 OA
HETATM   21  H9  UNK     1      14.916   8.166  31.257  1.00  0.00     0.217 HD
ENDBRANCH  16  20
ENDBRANCH   4  12
BRANCH   6  22
HETATM   22  O2  UNK     1      18.077   3.951  34.776  1.00  0.00    -0.355 OA
HETATM   23  H7  UNK     1      17.226   3.611  35.096  1.00  0.00     0.218 HD
ENDBRANCH   6  22
BRANCH  10  24
HETATM   24  O4  UNK     1      19.430  -1.007  29.554  1.00  0.00    -0.361 OA
HETATM   25  H8  UNK     1      18.617  -1.420  29.217  1.00  0.00     0.217 HD
ENDBRANCH  10  24
TORSDOF 5
ENDMDL
MODEL 5
REMARK VINA RESULT:      -8.2     14.007     15.456
REMARK  5 active torsions:
REMARK  status: ('A' for Active; 'I' for Inactive)
REMARK    1  A    between atoms: C5_11  and  O2_2 
REMARK    2  A    between atoms: C11_17  and  O4_4 
REMARK    3  A    between atoms: C13_19  and  O5_5 
REMARK    4  A    between atoms: C15_21  and  O6_6 
REMARK    5  A    between atoms: C2_8  and  C4_10 
ROOT
HETATM    1  O1  UNK     1       7.648   4.370   9.308  1.00  0.00    -0.306 OA
HETATM    2  O3  UNK     1       6.431   7.314  11.850  1.00  0.00    -0.284 OA
HETATM    3  C1  UNK     1       6.201   5.082  11.123  1.00  0.00     0.053 A 
HETATM    4  C2  UNK     1       8.221   5.632   9.282  1.00  0.00     0.123 A 
HETATM    5  C3  UNK     1       6.660   4.120  10.225  1.00  0.00     0.090 A 
HETATM    6  C5  UNK     1       7.864   6.650  10.084  1.00  0.00     0.152 A 
HETATM    7  C6  UNK     1       6.796   6.427  11.090  1.00  0.00     0.220 A 
HETATM    8  C7  UNK     1       5.190   4.771  12.034  1.00  0.00     0.055 A 
HETATM    9  C8  UNK     1       6.109   2.839  10.234  1.00  0.00     0.041 A 
HETATM   10  C11 UNK     1       4.640   3.487  12.042  1.00  0.00     0.066 A 
HETATM   11  C12 UNK     1       5.099   2.524  11.143  1.00  0.00     0.039 A 
ENDROOT
BRANCH   4  12
HETATM   12  C4  UNK     1       9.268   5.765   8.252  1.00  0.00     0.004 A 
HETATM   13  C10 UNK     1       8.937   6.209   6.972  1.00  0.00     0.017 A 
HETATM   14  C14 UNK     1       9.927   6.336   5.999  1.00  0.00     0.040 A 
HETATM   15  C15 UNK     1      11.250   6.017   6.304  1.00  0.00     0.098 A 
HETATM   16  C13 UNK     1      11.582   5.574   7.584  1.00  0.00     0.099 A 
HETATM   17  C9  UNK     1      10.593   5.447   8.558  1.00  0.00     0.053 A 
BRANCH  15  18
HETATM   18  O6  UNK     1      12.208   6.144   5.345  1.00  0.00    -0.358 OA
HETATM   19  H10 UNK     1      13.087   6.150   5.758  1.00  0.00     0.217 HD
ENDBRANCH  15  18
BRANCH  16  20
HETATM   20  O5  UNK     1      12.871   5.259   7.895  1.00  0.00    -0.358 OA
HETATM   21  H9  UNK     1      12.885   4.555   8.563  1.00  0.00     0.217 HD
ENDBRANCH  16  20
ENDBRANCH   4  12
BRANCH   6  22
HETATM   22  O2  UNK     1       8.431   7.903  10.010  1.00  0.00    -0.355 OA
HETATM   23  H7  UNK     1       8.129   8.354   9.205  1.00  0.00     0.218 HD
ENDBRANCH   6  22
BRANCH  10  24
HETATM   24  O4  UNK     1       3.654   3.175  12.928  1.00  0.00    -0.361 OA
HETATM   25  H8  UNK     1       3.992   3.296  13.831  1.00  0.00     0.217 HD
ENDBRANCH  10  24
TORSDOF 5
ENDMDL
MODEL 6
REMARK VINA RESULT:      -8.2     14.394     18.996
REMARK  5 active torsions:
REMARK  status: ('A' for Active; 'I' for Inactive)
REMARK    1  A    between atoms: C5_11  and  O2_2 
REMARK    2  A    between atoms: C11_17  and  O4_4 
REMARK    3  A    between atoms: C13_19  and  O5_5 
REMARK    4  A    between atoms: C15_21  and  O6_6 
REMARK    5  A    between atoms: C2_8  and  C4_10 
ROOT
HETATM    1  O1  UNK     1      16.819   7.572  32.245  1.00  0.00    -0.306 OA
HETATM    2  O3  UNK     1      19.514   9.523  34.598  1.00  0.00    -0.284 OA
HETATM    3  C1  UNK     1      17.334   9.446  33.700  1.00  0.00     0.053 A 
HETATM    4  C2  UNK     1      18.102   7.083  32.434  1.00  0.00     0.123 A 
HETATM    5  C3  UNK     1      16.461   8.733  32.880  1.00  0.00     0.090 A 
HETATM    6  C5  UNK     1      19.042   7.678  33.190  1.00  0.00     0.152 A 
HETATM    7  C6  UNK     1      18.701   8.938  33.894  1.00  0.00     0.220 A 
HETATM    8  C7  UNK     1      16.915  10.624  34.321  1.00  0.00     0.055 A 
HETATM    9  C8  UNK     1      15.161   9.196  32.678  1.00  0.00     0.041 A 
HETATM   10  C11 UNK     1      15.613  11.085  34.118  1.00  0.00     0.066 A 
HETATM   11  C12 UNK     1      14.738  10.371  33.297  1.00  0.00     0.039 A 
ENDROOT
BRANCH   4  12
HETATM   12  C4  UNK     1      18.354   5.832  31.696  1.00  0.00     0.004 A 
HETATM   13  C10 UNK     1      18.963   5.871  30.442  1.00  0.00     0.017 A 
HETATM   14  C14 UNK     1      19.202   4.688  29.744  1.00  0.00     0.040 A 
HETATM   15  C15 UNK     1      18.830   3.463  30.300  1.00  0.00     0.098 A 
HETATM   16  C13 UNK     1      18.221   3.423  31.553  1.00  0.00     0.099 A 
HETATM   17  C9  UNK     1      17.983   4.606  32.252  1.00  0.00     0.053 A 
BRANCH  15  18
HETATM   18  O6  UNK     1      19.068   2.315  29.608  1.00  0.00    -0.358 OA
HETATM   19  H10 UNK     1      20.012   2.092  29.657  1.00  0.00     0.217 HD
ENDBRANCH  15  18
BRANCH  16  20
HETATM   20  O5  UNK     1      17.853   2.233  32.106  1.00  0.00    -0.358 OA
HETATM   21  H9  UNK     1      16.889   2.131  32.053  1.00  0.00     0.217 HD
ENDBRANCH  16  20
ENDBRANCH   4  12
BRANCH   6  22
HETATM   22  O2  UNK     1      20.320   7.182  33.331  1.00  0.00    -0.355 OA
HETATM   23  H7  UNK     1      20.325   6.467  33.988  1.00  0.00     0.218 HD
ENDBRANCH   6  22
BRANCH  10  24
HETATM   24  O4  UNK     1      15.196  12.232  34.720  1.00  0.00    -0.361 OA
HETATM   25  H8  UNK     1      15.737  12.387  35.513  1.00  0.00     0.217 HD
ENDBRANCH  10  24
TORSDOF 5
ENDMDL
MODEL 7
REMARK VINA RESULT:      -8.1     12.406     14.636
REMARK  5 active torsions:
REMARK  status: ('A' for Active; 'I' for Inactive)
REMARK    1  A    between atoms: C5_11  and  O2_2 
REMARK    2  A    between atoms: C11_17  and  O4_4 
REMARK    3  A    between atoms: C13_19  and  O5_5 
REMARK    4  A    between atoms: C15_21  and  O6_6 
REMARK    5  A    between atoms: C2_8  and  C4_10 
ROOT
HETATM    1  O1  UNK     1      13.195   8.831   8.478  1.00  0.00    -0.306 OA
HETATM    2  O3  UNK     1      15.276   6.394  10.995  1.00  0.00    -0.284 OA
HETATM    3  C1  UNK     1      15.259   8.336   9.656  1.00  0.00     0.053 A 
HETATM    4  C2  UNK     1      12.615   7.703   9.036  1.00  0.00     0.123 A 
HETATM    5  C3  UNK     1      14.495   9.126   8.800  1.00  0.00     0.090 A 
HETATM    6  C5  UNK     1      13.244   6.853   9.866  1.00  0.00     0.152 A 
HETATM    7  C6  UNK     1      14.652   7.130  10.241  1.00  0.00     0.220 A 
HETATM    8  C7  UNK     1      16.579   8.685   9.948  1.00  0.00     0.055 A 
HETATM    9  C8  UNK     1      15.048  10.273   8.230  1.00  0.00     0.041 A 
HETATM   10  C11 UNK     1      17.131   9.833   9.377  1.00  0.00     0.066 A 
HETATM   11  C12 UNK     1      16.366  10.625   8.520  1.00  0.00     0.039 A 
ENDROOT
BRANCH   4  12
HETATM   12  C4  UNK     1      11.219   7.504   8.607  1.00  0.00     0.004 A 
HETATM   13  C10 UNK     1      10.174   8.052   9.351  1.00  0.00     0.017 A 
HETATM   14  C14 UNK     1       8.854   7.865   8.944  1.00  0.00     0.040 A 
HETATM   15  C15 UNK     1       8.577   7.127   7.794  1.00  0.00     0.098 A 
HETATM   16  C13 UNK     1       9.620   6.578   7.049  1.00  0.00     0.099 A 
HETATM   17  C9  UNK     1      10.941   6.766   7.454  1.00  0.00     0.053 A 
BRANCH  15  18
HETATM   18  O6  UNK     1       7.282   6.949   7.408  1.00  0.00    -0.358 OA
HETATM   19  H10 UNK     1       6.710   6.908   8.191  1.00  0.00     0.217 HD
ENDBRANCH  15  18
BRANCH  16  20
HETATM   20  O5  UNK     1       9.362   5.855   5.923  1.00  0.00    -0.358 OA
HETATM   21  H9  UNK     1       9.610   4.927   6.065  1.00  0.00     0.217 HD
ENDBRANCH  16  20
ENDBRANCH   4  12
BRANCH   6  22
HETATM   22  O2  UNK     1      12.649   5.721  10.378  1.00  0.00    -0.355 OA
HETATM   23  H7  UNK     1      13.091   4.930  10.030  1.00  0.00     0.218 HD
ENDBRANCH   6  22
BRANCH  10  24
HETATM   24  O4  UNK     1      18.417  10.181   9.657  1.00  0.00    -0.361 OA
HETATM   25  H8  UNK     1      18.461  11.142   9.794  1.00  0.00     0.217 HD
ENDBRANCH  10  24
TORSDOF 5
ENDMDL
MODEL 8
REMARK VINA RESULT:      -8.1     14.471     17.491
REMARK  5 active torsions:
REMARK  status: ('A' for Active; 'I' for Inactive)
REMARK    1  A    between atoms: C5_11  and  O2_2 
REMARK    2  A    between atoms: C11_17  and  O4_4 
REMARK    3  A    between atoms: C13_19  and  O5_5 
REMARK    4  A    between atoms: C15_21  and  O6_6 
REMARK    5  A    between atoms: C2_8  and  C4_10 
ROOT
HETATM    1  O1  UNK     1      18.098   2.887  33.462  1.00  0.00    -0.306 OA
HETATM    2  O3  UNK     1      19.153   1.392  29.821  1.00  0.00    -0.284 OA
HETATM    3  C1  UNK     1      18.652   3.287  31.133  1.00  0.00     0.053 A 
HETATM    4  C2  UNK     1      18.285   1.528  33.265  1.00  0.00     0.123 A 
HETATM    5  C3  UNK     1      18.288   3.735  32.401  1.00  0.00     0.090 A 
HETATM    6  C5  UNK     1      18.625   0.967  32.091  1.00  0.00     0.152 A 
HETATM    7  C6  UNK     1      18.839   1.844  30.915  1.00  0.00     0.220 A 
HETATM    8  C7  UNK     1      18.831   4.197  30.088  1.00  0.00     0.055 A 
HETATM    9  C8  UNK     1      18.102   5.097  32.633  1.00  0.00     0.041 A 
HETATM   10  C11 UNK     1      18.645   5.560  30.323  1.00  0.00     0.066 A 
HETATM   11  C12 UNK     1      18.280   6.009  31.593  1.00  0.00     0.039 A 
ENDROOT
BRANCH   4  12
HETATM   12  C4  UNK     1      18.048   0.733  34.484  1.00  0.00     0.004 A 
HETATM   13  C10 UNK     1      17.693  -0.612  34.383  1.00  0.00     0.017 A 
HETATM   14  C14 UNK     1      17.471  -1.364  35.536  1.00  0.00     0.040 A 
HETATM   15  C15 UNK     1      17.602  -0.770  36.792  1.00  0.00     0.098 A 
HETATM   16  C13 UNK     1      17.957   0.575  36.893  1.00  0.00     0.099 A 
HETATM   17  C9  UNK     1      18.181   1.327  35.741  1.00  0.00     0.053 A 
BRANCH  15  18
HETATM   18  O6  UNK     1      17.381  -1.515  37.911  1.00  0.00    -0.358 OA
HETATM   19  H10 UNK     1      18.085  -2.176  38.008  1.00  0.00     0.217 HD
ENDBRANCH  15  18
BRANCH  16  20
HETATM   20  O5  UNK     1      18.088   1.166  38.114  1.00  0.00    -0.358 OA
HETATM   21  H9  UNK     1      18.778   0.712  38.626  1.00  0.00     0.217 HD
ENDBRANCH  16  20
ENDBRANCH   4  12
BRANCH   6  22
HETATM   22  O2  UNK     1      18.771  -0.392  31.920  1.00  0.00    -0.355 OA
HETATM   23  H7  UNK     1      18.015  -0.857  32.315  1.00  0.00     0.218 HD
ENDBRANCH   6  22
BRANCH  10  24
HETATM   24  O4  UNK     1      18.817   6.454  29.310  1.00  0.00    -0.361 OA
HETATM   25  H8  UNK     1      18.743   5.986  28.461  1.00  0.00     0.217 HD
ENDBRANCH  10  24
TORSDOF 5
ENDMDL
MODEL 9
REMARK VINA RESULT:      -8.0     17.589     21.402
REMARK  5 active torsions:
REMARK  status: ('A' for Active; 'I' for Inactive)
REMARK    1  A    between atoms: C5_11  and  O2_2 
REMARK    2  A    between atoms: C11_17  and  O4_4 
REMARK    3  A    between atoms: C13_19  and  O5_5 
REMARK    4  A    between atoms: C15_21  and  O6_6 
REMARK    5  A    between atoms: C2_8  and  C4_10 
ROOT
HETATM    1  O1  UNK     1      21.173  -4.614  37.476  1.00  0.00    -0.306 OA
HETATM    2  O3  UNK     1      18.553  -7.694  37.987  1.00  0.00    -0.284 OA
HETATM    3  C1  UNK     1      20.699  -6.807  38.405  1.00  0.00     0.053 A 
HETATM    4  C2  UNK     1      19.892  -4.569  36.950  1.00  0.00     0.123 A 
HETATM    5  C3  UNK     1      21.547  -5.723  38.192  1.00  0.00     0.090 A 
HETATM    6  C5  UNK     1      18.980  -5.550  37.074  1.00  0.00     0.152 A 
HETATM    7  C6  UNK     1      19.342  -6.769  37.838  1.00  0.00     0.220 A 
HETATM    8  C7  UNK     1      21.135  -7.910  39.142  1.00  0.00     0.055 A 
HETATM    9  C8  UNK     1      22.840  -5.735  38.716  1.00  0.00     0.041 A 
HETATM   10  C11 UNK     1      22.428  -7.920  39.666  1.00  0.00     0.066 A 
HETATM   11  C12 UNK     1      23.279  -6.835  39.454  1.00  0.00     0.039 A 
ENDROOT
BRANCH   4  12
HETATM   12  C4  UNK     1      19.621  -3.326  36.206  1.00  0.00     0.004 A 
HETATM   13  C10 UNK     1      18.882  -2.302  36.800  1.00  0.00     0.017 A 
HETATM   14  C14 UNK     1      18.628  -1.126  36.096  1.00  0.00     0.040 A 
HETATM   15  C15 UNK     1      19.109  -0.973  34.796  1.00  0.00     0.098 A 
HETATM   16  C13 UNK     1      19.847  -1.996  34.201  1.00  0.00     0.099 A 
HETATM   17  C9  UNK     1      20.103  -3.172  34.905  1.00  0.00     0.053 A 
BRANCH  15  18
HETATM   18  O6  UNK     1      18.852   0.180  34.118  1.00  0.00    -0.358 OA
HETATM   19  H10 UNK     1      19.650   0.733  34.098  1.00  0.00     0.217 HD
ENDBRANCH  15  18
BRANCH  16  20
HETATM   20  O5  UNK     1      20.323  -1.858  32.931  1.00  0.00    -0.358 OA
HETATM   21  H9  UNK     1      20.949  -2.574  32.736  1.00  0.00     0.217 HD
ENDBRANCH  16  20
ENDBRANCH   4  12
BRANCH   6  22
HETATM   22  O2  UNK     1      17.725  -5.488  36.511  1.00  0.00    -0.355 OA
HETATM   23  H7  UNK     1      17.149  -4.921  37.050  1.00  0.00     0.218 HD
ENDBRANCH   6  22
BRANCH  10  24
HETATM   24  O4  UNK     1      22.861  -8.992  40.386  1.00  0.00    -0.361 OA
HETATM   25  H8  UNK     1      23.489  -8.685  41.062  1.00  0.00     0.217 HD
ENDBRANCH  10  24
TORSDOF 5
ENDMDL
MODEL 10
REMARK VINA RESULT:      -8.0     11.557     12.802
REMARK  5 active torsions:
REMARK  status: ('A' for Active; 'I' for Inactive)
REMARK    1  A    between atoms: C5_11  and  O2_2 
REMARK    2  A    between atoms: C11_17  and  O4_4 
REMARK    3  A    between atoms: C13_19  and  O5_5 
REMARK    4  A    between atoms: C15_21  and  O6_6 
REMARK    5  A    between atoms: C2_8  and  C4_10 
ROOT
HETATM    1  O1  UNK     1      11.288   8.807  20.000  1.00  0.00    -0.306 OA
HETATM    2  O3  UNK     1      14.446   9.523  17.526  1.00  0.00    -0.284 OA
HETATM    3  C1  UNK     1      12.107   9.525  17.830  1.00  0.00     0.053 A 
HETATM    4  C2  UNK     1      12.595   8.617  20.420  1.00  0.00     0.123 A 
HETATM    5  C3  UNK     1      11.072   9.259  18.723  1.00  0.00     0.090 A 
HETATM    6  C5  UNK     1      13.681   8.826  19.656  1.00  0.00     0.152 A 
HETATM    7  C6  UNK     1      13.495   9.312  18.267  1.00  0.00     0.220 A 
HETATM    8  C7  UNK     1      11.827   9.983  16.541  1.00  0.00     0.055 A 
HETATM    9  C8  UNK     1       9.746   9.450  18.332  1.00  0.00     0.041 A 
HETATM   10  C11 UNK     1      10.500  10.174  16.151  1.00  0.00     0.066 A 
HETATM   11  C12 UNK     1       9.462   9.908  17.045  1.00  0.00     0.039 A 
ENDROOT
BRANCH   4  12
HETATM   12  C4  UNK     1      12.685   8.130  21.809  1.00  0.00     0.004 A 
HETATM   13  C10 UNK     1      12.931   6.780  22.062  1.00  0.00     0.017 A 
HETATM   14  C14 UNK     1      13.017   6.321  23.376  1.00  0.00     0.040 A 
HETATM   15  C15 UNK     1      12.856   7.211  24.438  1.00  0.00     0.098 A 
HETATM   16  C13 UNK     1      12.611   8.560  24.186  1.00  0.00     0.099 A 
HETATM   17  C9  UNK     1      12.526   9.021  22.872  1.00  0.00     0.053 A 
BRANCH  15  18
HETATM   18  O6  UNK     1      12.942   6.750  25.717  1.00  0.00    -0.358 OA
HETATM   19  H10 UNK     1      12.050   6.604  26.073  1.00  0.00     0.217 HD
ENDBRANCH  15  18
BRANCH  16  20
HETATM   20  O5  UNK     1      12.452   9.439  25.215  1.00  0.00    -0.358 OA
HETATM   21  H9  UNK     1      12.383  10.343  24.867  1.00  0.00     0.217 HD
ENDBRANCH  16  20
ENDBRANCH   4  12
BRANCH   6  22
HETATM   22  O2  UNK     1      14.967   8.595  20.095  1.00  0.00    -0.355 OA
HETATM   23  H7  UNK     1      14.982   8.555  21.065  1.00  0.00     0.218 HD
ENDBRANCH   6  22
BRANCH  10  24
HETATM   24  O4  UNK     1      10.217  10.620  14.896  1.00  0.00    -0.361 OA
HETATM   25  H8  UNK     1       9.310  10.359  14.666  1.00  0.00     0.217 HD
ENDBRANCH  10  24
TORSDOF 5
ENDMDL
