MODEL 1
REMARK VINA RESULT:      -9.2      0.000      0.000
REMARK  6 active torsions:
REMARK  status: ('A' for Active; 'I' for Inactive)
REMARK    1  A    between atoms: C23_30  and  O3_3 
REMARK    2  A    between atoms: C25_32  and  O3_3 
REMARK    3  A    between atoms: C5_12  and  N1_5 
REMARK    4  A    between atoms: C6_13  and  N2_6 
REMARK       I    between atoms: C7_14  and  N3_7 
REMARK    5  A    between atoms: C5_12  and  C7_14 
REMARK    6  A    between atoms: C12_19  and  C6_13 
ROOT
HETATM    1  N1  UNK     1      15.015   7.302   9.715  1.00  0.00     0.100 N 
HETATM    2  N2  UNK     1      16.738   9.616   9.525  1.00  0.00     0.096 N 
HETATM    3  C1  UNK     1      16.476   7.171   9.770  1.00  0.00     0.303 C 
HETATM    4  C2  UNK     1      14.635   8.471   8.913  1.00  0.00     0.303 C 
HETATM    5  C3  UNK     1      17.119   8.446  10.326  1.00  0.00     0.303 C 
HETATM    6  C4  UNK     1      15.277   9.747   9.471  1.00  0.00     0.303 C 
ENDROOT
BRANCH   2   7
HETATM    7  C6  UNK     1      17.349  10.831  10.060  1.00  0.00     0.312 C 
BRANCH   7   8
HETATM    8  C12 UNK     1      18.370  11.400   9.137  1.00  0.00    -0.011 A 
HETATM    9  C13 UNK     1      19.701  11.759   9.648  1.00  0.00     0.009 A 
HETATM   10  C17 UNK     1      20.637  12.290   8.759  1.00  0.00     0.090 A 
HETATM   11  C20 UNK     1      20.091  11.598  10.984  1.00  0.00     0.051 A 
HETATM   12  O2  UNK     1      20.323  12.482   7.399  1.00  0.00    -0.275 OA
HETATM   13  C22 UNK     1      21.922  12.657   9.161  1.00  0.00     0.041 A 
HETATM   14  C21 UNK     1      19.076  12.151   6.889  1.00  0.00     0.288 A 
HETATM   15  C16 UNK     1      18.099  11.593   7.839  1.00  0.00     0.092 A 
HETATM   16  O4  UNK     1      18.793  12.314   5.707  1.00  0.00    -0.260 OA
HETATM   17  C24 UNK     1      22.291  12.490  10.492  1.00  0.00     0.039 A 
HETATM   18  C23 UNK     1      21.377  11.961  11.402  1.00  0.00     0.069 A 
BRANCH  18  19
HETATM   19  O3  UNK     1      21.737  11.797  12.705  1.00  0.00    -0.351 OA
BRANCH  19  20
HETATM   20  C25 UNK     1      21.078  12.617  13.668  1.00  0.00     0.171 C 
HETATM   21  C26 UNK     1      21.290  12.026  15.045  1.00  0.00     0.034 C 
ENDBRANCH  19  20
ENDBRANCH  18  19
ENDBRANCH   7   8
ENDBRANCH   2   7
BRANCH   1  22
HETATM   22  C5  UNK     1      14.404   6.087   9.182  1.00  0.00     0.375 C 
BRANCH  22  23
HETATM   23  C7  UNK     1      12.909   6.078   9.404  1.00  0.00     0.252 C 
HETATM   24  O1  UNK     1      12.471   6.016  10.553  1.00  0.00    -0.271 OA
HETATM   25  N3  UNK     1      12.148   6.145   8.245  1.00  0.00    -0.316 N 
HETATM   26  C10 UNK     1      10.739   6.152   8.181  1.00  0.00     0.043 A 
HETATM   27  C8  UNK     1      12.677   6.220   6.867  1.00  0.00     0.137 A 
HETATM   28  C11 UNK     1      10.322   6.230   6.850  1.00  0.00    -0.030 A 
HETATM   29  C14 UNK     1       9.811   6.094   9.210  1.00  0.00     0.030 A 
HETATM   30  C9  UNK     1      11.482   6.284   5.910  1.00  0.00     0.061 A 
HETATM   31  C15 UNK     1       8.976   6.252   6.517  1.00  0.00     0.009 A 
HETATM   32  C19 UNK     1       8.036   6.194   7.546  1.00  0.00     0.001 A 
HETATM   33  C18 UNK     1       8.451   6.115   8.882  1.00  0.00     0.002 A 
ENDBRANCH  22  23
ENDBRANCH   1  22
TORSDOF 6
ENDMDL
MODEL 2
REMARK VINA RESULT:      -9.2     31.065     35.659
REMARK  6 active torsions:
REMARK  status: ('A' for Active; 'I' for Inactive)
REMARK    1  A    between atoms: C23_30  and  O3_3 
REMARK    2  A    between atoms: C25_32  and  O3_3 
REMARK    3  A    between atoms: C5_12  and  N1_5 
REMARK    4  A    between atoms: C6_13  and  N2_6 
REMARK       I    between atoms: C7_14  and  N3_7 
REMARK    5  A    between atoms: C5_12  and  C7_14 
REMARK    6  A    between atoms: C12_19  and  C6_13 
ROOT
HETATM    1  N1  UNK     1      26.230  -8.372  38.403  1.00  0.00     0.100 N 
HETATM    2  N2  UNK     1      23.779  -9.330  37.203  1.00  0.00     0.096 N 
HETATM    3  C1  UNK     1      26.191  -9.631  37.648  1.00  0.00     0.303 C 
HETATM    4  C2  UNK     1      24.924  -8.105  39.019  1.00  0.00     0.303 C 
HETATM    5  C3  UNK     1      25.085  -9.599  36.589  1.00  0.00     0.303 C 
HETATM    6  C4  UNK     1      23.818  -8.071  37.959  1.00  0.00     0.303 C 
ENDROOT
BRANCH   2   7
HETATM    7  C6  UNK     1      22.727  -9.295  36.190  1.00  0.00     0.312 C 
BRANCH   7   8
HETATM    8  C12 UNK     1      21.367  -9.408  36.789  1.00  0.00    -0.011 A 
HETATM    9  C13 UNK     1      20.444  -8.265  36.732  1.00  0.00     0.009 A 
HETATM   10  C17 UNK     1      19.177  -8.401  37.301  1.00  0.00     0.090 A 
HETATM   11  C20 UNK     1      20.761  -7.038  36.136  1.00  0.00     0.051 A 
HETATM   12  O2  UNK     1      18.781  -9.604  37.920  1.00  0.00    -0.275 OA
HETATM   13  C22 UNK     1      18.241  -7.366  37.291  1.00  0.00     0.041 A 
HETATM   14  C21 UNK     1      19.630 -10.698  37.986  1.00  0.00     0.288 A 
HETATM   15  C16 UNK     1      20.963 -10.539  37.382  1.00  0.00     0.092 A 
HETATM   16  O4  UNK     1      19.295 -11.750  38.521  1.00  0.00    -0.260 OA
HETATM   17  C24 UNK     1      18.574  -6.154  36.695  1.00  0.00     0.039 A 
HETATM   18  C23 UNK     1      19.832  -5.990  36.118  1.00  0.00     0.069 A 
BRANCH  18  19
HETATM   19  O3  UNK     1      20.160  -4.805  35.533  1.00  0.00    -0.351 OA
BRANCH  19  20
HETATM   20  C25 UNK     1      20.150  -3.647  36.366  1.00  0.00     0.171 C 
HETATM   21  C26 UNK     1      20.178  -2.412  35.491  1.00  0.00     0.034 C 
ENDBRANCH  19  20
ENDBRANCH  18  19
ENDBRANCH   7   8
ENDBRANCH   2   7
BRANCH   1  22
HETATM   22  C5  UNK     1      27.284  -8.406  39.415  1.00  0.00     0.375 C 
BRANCH  22  23
HETATM   23  C7  UNK     1      28.298  -7.309  39.191  1.00  0.00     0.252 C 
HETATM   24  O1  UNK     1      27.997  -6.146  39.464  1.00  0.00    -0.271 OA
HETATM   25  N3  UNK     1      29.516  -7.736  38.681  1.00  0.00    -0.316 N 
HETATM   26  C10 UNK     1      30.622  -6.913  38.384  1.00  0.00     0.043 A 
HETATM   27  C8  UNK     1      29.873  -9.133  38.354  1.00  0.00     0.137 A 
HETATM   28  C11 UNK     1      31.674  -7.688  37.890  1.00  0.00    -0.030 A 
HETATM   29  C14 UNK     1      30.759  -5.540  38.520  1.00  0.00     0.030 A 
HETATM   30  C9  UNK     1      31.312  -9.136  37.828  1.00  0.00     0.061 A 
HETATM   31  C15 UNK     1      32.881  -7.113  37.522  1.00  0.00     0.009 A 
HETATM   32  C19 UNK     1      33.027  -5.732  37.655  1.00  0.00     0.001 A 
HETATM   33  C18 UNK     1      31.974  -4.952  38.151  1.00  0.00     0.002 A 
ENDBRANCH  22  23
ENDBRANCH   1  22
TORSDOF 6
ENDMDL
MODEL 3
REMARK VINA RESULT:      -9.0     33.367     36.292
REMARK  6 active torsions:
REMARK  status: ('A' for Active; 'I' for Inactive)
REMARK    1  A    between atoms: C23_30  and  O3_3 
REMARK    2  A    between atoms: C25_32  and  O3_3 
REMARK    3  A    between atoms: C5_12  and  N1_5 
REMARK    4  A    between atoms: C6_13  and  N2_6 
REMARK       I    between atoms: C7_14  and  N3_7 
REMARK    5  A    between atoms: C5_12  and  C7_14 
REMARK    6  A    between atoms: C12_19  and  C6_13 
ROOT
HETATM    1  N1  UNK     1      29.683  -9.048  37.999  1.00  0.00     0.100 N 
HETATM    2  N2  UNK     1      26.844  -9.376  37.561  1.00  0.00     0.096 N 
HETATM    3  C1  UNK     1      29.128  -9.157  36.644  1.00  0.00     0.303 C 
HETATM    4  C2  UNK     1      28.844  -9.778  38.956  1.00  0.00     0.303 C 
HETATM    5  C3  UNK     1      27.683  -8.647  36.602  1.00  0.00     0.303 C 
HETATM    6  C4  UNK     1      27.399  -9.266  38.916  1.00  0.00     0.303 C 
ENDROOT
BRANCH   2   7
HETATM    7  C6  UNK     1      25.468  -8.884  37.523  1.00  0.00     0.312 C 
BRANCH   7   8
HETATM    8  C12 UNK     1      24.563  -9.805  36.781  1.00  0.00    -0.011 A 
HETATM    9  C13 UNK     1      23.161  -9.428  36.550  1.00  0.00     0.009 A 
HETATM   10  C17 UNK     1      22.338 -10.311  35.851  1.00  0.00     0.090 A 
HETATM   11  C20 UNK     1      22.597  -8.224  36.992  1.00  0.00     0.051 A 
HETATM   12  O2  UNK     1      22.829 -11.542  35.372  1.00  0.00    -0.275 OA
HETATM   13  C22 UNK     1      20.996 -10.030  35.589  1.00  0.00     0.041 A 
HETATM   14  C21 UNK     1      24.147 -11.924  35.573  1.00  0.00     0.288 A 
HETATM   15  C16 UNK     1      25.003 -10.982  36.313  1.00  0.00     0.092 A 
HETATM   16  O4  UNK     1      24.585 -12.992  35.160  1.00  0.00    -0.260 OA
HETATM   17  C24 UNK     1      20.453  -8.830  36.036  1.00  0.00     0.039 A 
HETATM   18  C23 UNK     1      21.253  -7.928  36.736  1.00  0.00     0.069 A 
BRANCH  18  19
HETATM   19  O3  UNK     1      20.723  -6.752  37.174  1.00  0.00    -0.351 OA
BRANCH  19  20
HETATM   20  C25 UNK     1      21.087  -6.326  38.486  1.00  0.00     0.171 C 
HETATM   21  C26 UNK     1      20.042  -6.810  39.468  1.00  0.00     0.034 C 
ENDBRANCH  19  20
ENDBRANCH  18  19
ENDBRANCH   7   8
ENDBRANCH   2   7
BRANCH   1  22
HETATM   22  C5  UNK     1      31.060  -9.537  38.037  1.00  0.00     0.375 C 
BRANCH  22  23
HETATM   23  C7  UNK     1      32.049  -8.416  37.821  1.00  0.00     0.252 C 
HETATM   24  O1  UNK     1      32.206  -7.572  38.705  1.00  0.00    -0.271 OA
HETATM   25  N3  UNK     1      32.711  -8.449  36.601  1.00  0.00    -0.316 N 
HETATM   26  C10 UNK     1      33.677  -7.521  36.160  1.00  0.00     0.043 A 
HETATM   27  C8  UNK     1      32.521  -9.463  35.542  1.00  0.00     0.137 A 
HETATM   28  C11 UNK     1      34.127  -7.871  34.885  1.00  0.00    -0.030 A 
HETATM   29  C14 UNK     1      34.180  -6.400  36.804  1.00  0.00     0.030 A 
HETATM   30  C9  UNK     1      33.458  -9.108  34.383  1.00  0.00     0.061 A 
HETATM   31  C15 UNK     1      35.085  -7.114  34.226  1.00  0.00     0.009 A 
HETATM   32  C19 UNK     1      35.595  -5.985  34.866  1.00  0.00     0.001 A 
HETATM   33  C18 UNK     1      35.145  -5.631  36.145  1.00  0.00     0.002 A 
ENDBRANCH  22  23
ENDBRANCH   1  22
TORSDOF 6
ENDMDL
MODEL 4
REMARK VINA RESULT:      -8.9     22.841     26.733
REMARK  6 active torsions:
REMARK  status: ('A' for Active; 'I' for Inactive)
REMARK    1  A    between atoms: C23_30  and  O3_3 
REMARK    2  A    between atoms: C25_32  and  O3_3 
REMARK    3  A    between atoms: C5_12  and  N1_5 
REMARK    4  A    between atoms: C6_13  and  N2_6 
REMARK       I    between atoms: C7_14  and  N3_7 
REMARK    5  A    between atoms: C5_12  and  C7_14 
REMARK    6  A    between atoms: C12_19  and  C6_13 
ROOT
HETATM    1  N1  UNK     1      18.366   4.370  33.797  1.00  0.00     0.100 N 
HETATM    2  N2  UNK     1      18.383   1.483  33.954  1.00  0.00     0.096 N 
HETATM    3  C1  UNK     1      18.454   3.541  32.588  1.00  0.00     0.303 C 
HETATM    4  C2  UNK     1      18.966   3.672  34.940  1.00  0.00     0.303 C 
HETATM    5  C3  UNK     1      17.785   2.180  32.809  1.00  0.00     0.303 C 
HETATM    6  C4  UNK     1      18.295   2.312  35.163  1.00  0.00     0.303 C 
ENDROOT
BRANCH   2   7
HETATM    7  C6  UNK     1      17.739   0.188  34.165  1.00  0.00     0.312 C 
BRANCH   7   8
HETATM    8  C12 UNK     1      18.731  -0.905  34.371  1.00  0.00    -0.011 A 
HETATM    9  C13 UNK     1      19.442  -1.477  33.218  1.00  0.00     0.009 A 
HETATM   10  C17 UNK     1      20.364  -2.499  33.442  1.00  0.00     0.090 A 
HETATM   11  C20 UNK     1      19.248  -1.053  31.897  1.00  0.00     0.051 A 
HETATM   12  O2  UNK     1      20.617  -2.981  34.742  1.00  0.00    -0.275 OA
HETATM   13  C22 UNK     1      21.082  -3.096  32.404  1.00  0.00     0.041 A 
HETATM   14  C21 UNK     1      19.963  -2.460  35.848  1.00  0.00     0.288 A 
HETATM   15  C16 UNK     1      18.992  -1.382  35.596  1.00  0.00     0.092 A 
HETATM   16  O4  UNK     1      20.176  -2.871  36.984  1.00  0.00    -0.260 OA
HETATM   17  C24 UNK     1      20.876  -2.662  31.099  1.00  0.00     0.039 A 
HETATM   18  C23 UNK     1      19.960  -1.642  30.845  1.00  0.00     0.069 A 
BRANCH  18  19
HETATM   19  O3  UNK     1      19.758  -1.216  29.568  1.00  0.00    -0.351 OA
BRANCH  19  20
HETATM   20  C25 UNK     1      20.155   0.119  29.259  1.00  0.00     0.171 C 
HETATM   21  C26 UNK     1      18.921   0.943  28.963  1.00  0.00     0.034 C 
ENDBRANCH  19  20
ENDBRANCH  18  19
ENDBRANCH   7   8
ENDBRANCH   2   7
BRANCH   1  22
HETATM   22  C5  UNK     1      19.008   5.666  33.585  1.00  0.00     0.375 C 
BRANCH  22  23
HETATM   23  C7  UNK     1      17.996   6.788  33.585  1.00  0.00     0.252 C 
HETATM   24  O1  UNK     1      16.812   6.531  33.363  1.00  0.00    -0.271 OA
HETATM   25  N3  UNK     1      18.521   8.046  33.846  1.00  0.00    -0.316 N 
HETATM   26  C10 UNK     1      17.791   9.251  33.901  1.00  0.00     0.043 A 
HETATM   27  C8  UNK     1      19.943   8.351  34.111  1.00  0.00     0.137 A 
HETATM   28  C11 UNK     1      18.648  10.316  34.188  1.00  0.00    -0.030 A 
HETATM   29  C14 UNK     1      16.433   9.467  33.716  1.00  0.00     0.030 A 
HETATM   30  C9  UNK     1      20.061   9.860  34.350  1.00  0.00     0.061 A 
HETATM   31  C15 UNK     1      18.173  11.614  34.298  1.00  0.00     0.009 A 
HETATM   32  C19 UNK     1      16.809  11.840  34.112  1.00  0.00     0.001 A 
HETATM   33  C18 UNK     1      15.946  10.774  33.824  1.00  0.00     0.002 A 
ENDBRANCH  22  23
ENDBRANCH   1  22
TORSDOF 6
ENDMDL
MODEL 5
REMARK VINA RESULT:      -8.9     22.684     25.272
REMARK  6 active torsions:
REMARK  status: ('A' for Active; 'I' for Inactive)
REMARK    1  A    between atoms: C23_30  and  O3_3 
REMARK    2  A    between atoms: C25_32  and  O3_3 
REMARK    3  A    between atoms: C5_12  and  N1_5 
REMARK    4  A    between atoms: C6_13  and  N2_6 
REMARK       I    between atoms: C7_14  and  N3_7 
REMARK    5  A    between atoms: C5_12  and  C7_14 
REMARK    6  A    between atoms: C12_19  and  C6_13 
ROOT
HETATM    1  N1  UNK     1      18.940   5.961  32.202  1.00  0.00     0.100 N 
HETATM    2  N2  UNK     1      18.809   3.219  31.293  1.00  0.00     0.096 N 
HETATM    3  C1  UNK     1      19.734   5.499  31.057  1.00  0.00     0.303 C 
HETATM    4  C2  UNK     1      18.704   4.858  33.140  1.00  0.00     0.303 C 
HETATM    5  C3  UNK     1      19.048   4.322  30.355  1.00  0.00     0.303 C 
HETATM    6  C4  UNK     1      18.015   3.682  32.438  1.00  0.00     0.303 C 
ENDROOT
BRANCH   2   7
HETATM    7  C6  UNK     1      18.150   2.101  30.622  1.00  0.00     0.312 C 
BRANCH   7   8
HETATM    8  C12 UNK     1      19.034   0.907  30.519  1.00  0.00    -0.011 A 
HETATM    9  C13 UNK     1      19.159  -0.014  31.658  1.00  0.00     0.009 A 
HETATM   10  C17 UNK     1      19.994  -1.124  31.532  1.00  0.00     0.090 A 
HETATM   11  C20 UNK     1      18.482   0.156  32.873  1.00  0.00     0.051 A 
HETATM   12  O2  UNK     1      20.709  -1.367  30.341  1.00  0.00    -0.275 OA
HETATM   13  C22 UNK     1      20.169  -2.048  32.564  1.00  0.00     0.041 A 
HETATM   14  C21 UNK     1      20.610  -0.516  29.250  1.00  0.00     0.288 A 
HETATM   15  C16 UNK     1      19.725   0.651  29.400  1.00  0.00     0.092 A 
HETATM   16  O4  UNK     1      21.227  -0.718  28.210  1.00  0.00    -0.260 OA
HETATM   17  C24 UNK     1      19.489  -1.862  33.763  1.00  0.00     0.039 A 
HETATM   18  C23 UNK     1      18.646  -0.762  33.918  1.00  0.00     0.069 A 
BRANCH  18  19
HETATM   19  O3  UNK     1      17.980  -0.579  35.091  1.00  0.00    -0.351 OA
BRANCH  19  20
HETATM   20  C25 UNK     1      16.606  -0.965  35.123  1.00  0.00     0.171 C 
HETATM   21  C26 UNK     1      15.763   0.249  35.451  1.00  0.00     0.034 C 
ENDBRANCH  19  20
ENDBRANCH  18  19
ENDBRANCH   7   8
ENDBRANCH   2   7
BRANCH   1  22
HETATM   22  C5  UNK     1      19.598   7.081  32.872  1.00  0.00     0.375 C 
BRANCH  22  23
HETATM   23  C7  UNK     1      18.623   7.868  33.715  1.00  0.00     0.252 C 
HETATM   24  O1  UNK     1      18.941   8.192  34.860  1.00  0.00    -0.271 OA
HETATM   25  N3  UNK     1      17.418   8.162  33.092  1.00  0.00    -0.316 N 
HETATM   26  C10 UNK     1      16.346   8.881  33.661  1.00  0.00     0.043 A 
HETATM   27  C8  UNK     1      17.038   7.772  31.718  1.00  0.00     0.137 A 
HETATM   28  C11 UNK     1      15.299   8.984  32.743  1.00  0.00    -0.030 A 
HETATM   29  C14 UNK     1      16.236   9.444  34.925  1.00  0.00     0.030 A 
HETATM   30  C9  UNK     1      15.629   8.312  31.451  1.00  0.00     0.061 A 
HETATM   31  C15 UNK     1      14.124   9.648  33.061  1.00  0.00     0.009 A 
HETATM   32  C19 UNK     1      14.006  10.217  34.330  1.00  0.00     0.001 A 
HETATM   33  C18 UNK     1      15.054  10.115  35.254  1.00  0.00     0.002 A 
ENDBRANCH  22  23
ENDBRANCH   1  22
TORSDOF 6
ENDMDL
MODEL 6
REMARK VINA RESULT:      -8.9      4.084      7.111
REMARK  6 active torsions:
REMARK  status: ('A' for Active; 'I' for Inactive)
REMARK    1  A    between atoms: C23_30  and  O3_3 
REMARK    2  A    between atoms: C25_32  and  O3_3 
REMARK    3  A    between atoms: C5_12  and  N1_5 
REMARK    4  A    between atoms: C6_13  and  N2_6 
REMARK       I    between atoms: C7_14  and  N3_7 
REMARK    5  A    between atoms: C5_12  and  C7_14 
REMARK    6  A    between atoms: C12_19  and  C6_13 
ROOT
HETATM    1  N1  UNK     1       9.052   6.071   8.344  1.00  0.00     0.100 N 
HETATM    2  N2  UNK     1      11.806   6.225   7.477  1.00  0.00     0.096 N 
HETATM    3  C1  UNK     1      10.134   5.460   9.128  1.00  0.00     0.303 C 
HETATM    4  C2  UNK     1       9.403   6.094   6.919  1.00  0.00     0.303 C 
HETATM    5  C3  UNK     1      11.457   6.200   8.903  1.00  0.00     0.303 C 
HETATM    6  C4  UNK     1      10.725   6.836   6.694  1.00  0.00     0.303 C 
ENDROOT
BRANCH   2   7
HETATM    7  C6  UNK     1      13.066   6.936   7.265  1.00  0.00     0.312 C 
BRANCH   7   8
HETATM    8  C12 UNK     1      14.061   6.647   8.335  1.00  0.00    -0.011 A 
HETATM    9  C13 UNK     1      14.606   7.745   9.146  1.00  0.00     0.009 A 
HETATM   10  C17 UNK     1      15.536   7.443  10.141  1.00  0.00     0.090 A 
HETATM   11  C20 UNK     1      14.243   9.088   8.980  1.00  0.00     0.051 A 
HETATM   12  O2  UNK     1      15.952   6.117  10.372  1.00  0.00    -0.275 OA
HETATM   13  C22 UNK     1      16.102   8.426  10.956  1.00  0.00     0.041 A 
HETATM   14  C21 UNK     1      15.454   5.060   9.624  1.00  0.00     0.288 A 
HETATM   15  C16 UNK     1      14.474   5.395   8.577  1.00  0.00     0.092 A 
HETATM   16  O4  UNK     1      15.809   3.902   9.817  1.00  0.00    -0.260 OA
HETATM   17  C24 UNK     1      15.730   9.754  10.775  1.00  0.00     0.039 A 
HETATM   18  C23 UNK     1      14.802  10.085   9.790  1.00  0.00     0.069 A 
BRANCH  18  19
HETATM   19  O3  UNK     1      14.436  11.385   9.612  1.00  0.00    -0.351 OA
BRANCH  19  20
HETATM   20  C25 UNK     1      15.446  12.286   9.163  1.00  0.00     0.171 C 
HETATM   21  C26 UNK     1      15.606  12.139   7.665  1.00  0.00     0.034 C 
ENDBRANCH  19  20
ENDBRANCH  18  19
ENDBRANCH   7   8
ENDBRANCH   2   7
BRANCH   1  22
HETATM   22  C5  UNK     1       7.792   5.363   8.558  1.00  0.00     0.375 C 
BRANCH  22  23
HETATM   23  C7  UNK     1       7.327   5.486   9.990  1.00  0.00     0.252 C 
HETATM   24  O1  UNK     1       7.567   6.519  10.615  1.00  0.00    -0.271 OA
HETATM   25  N3  UNK     1       6.647   4.378  10.479  1.00  0.00    -0.316 N 
HETATM   26  C10 UNK     1       6.113   4.243  11.777  1.00  0.00     0.043 A 
HETATM   27  C8  UNK     1       6.360   3.139   9.726  1.00  0.00     0.137 A 
HETATM   28  C11 UNK     1       5.497   2.997  11.912  1.00  0.00    -0.030 A 
HETATM   29  C14 UNK     1       6.137   5.138  12.837  1.00  0.00     0.030 A 
HETATM   30  C9  UNK     1       5.587   2.197  10.654  1.00  0.00     0.061 A 
HETATM   31  C15 UNK     1       4.892   2.618  13.101  1.00  0.00     0.009 A 
HETATM   32  C19 UNK     1       4.912   3.512  14.171  1.00  0.00     0.001 A 
HETATM   33  C18 UNK     1       5.530   4.763  14.039  1.00  0.00     0.002 A 
ENDBRANCH  22  23
ENDBRANCH   1  22
TORSDOF 6
ENDMDL
MODEL 7
REMARK VINA RESULT:      -8.8     25.971     30.104
REMARK  6 active torsions:
REMARK  status: ('A' for Active; 'I' for Inactive)
REMARK    1  A    between atoms: C23_30  and  O3_3 
REMARK    2  A    between atoms: C25_32  and  O3_3 
REMARK    3  A    between atoms: C5_12  and  N1_5 
REMARK    4  A    between atoms: C6_13  and  N2_6 
REMARK       I    between atoms: C7_14  and  N3_7 
REMARK    5  A    between atoms: C5_12  and  C7_14 
REMARK    6  A    between atoms: C12_19  and  C6_13 
ROOT
HETATM    1  N1  UNK     1      18.652  -0.255  34.897  1.00  0.00     0.100 N 
HETATM    2  N2  UNK     1      19.345  -2.811  36.056  1.00  0.00     0.096 N 
HETATM    3  C1  UNK     1      17.879  -0.823  36.008  1.00  0.00     0.303 C 
HETATM    4  C2  UNK     1      19.243  -1.324  34.085  1.00  0.00     0.303 C 
HETATM    5  C3  UNK     1      18.752  -1.742  36.869  1.00  0.00     0.303 C 
HETATM    6  C4  UNK     1      20.119  -2.243  34.945  1.00  0.00     0.303 C 
ENDROOT
BRANCH   2   7
HETATM    7  C6  UNK     1      20.182  -3.683  36.878  1.00  0.00     0.312 C 
BRANCH   7   8
HETATM    8  C12 UNK     1      19.666  -5.080  36.919  1.00  0.00    -0.011 A 
HETATM    9  C13 UNK     1      20.509  -6.158  37.457  1.00  0.00     0.009 A 
HETATM   10  C17 UNK     1      19.999  -7.456  37.483  1.00  0.00     0.090 A 
HETATM   11  C20 UNK     1      21.806  -5.958  37.950  1.00  0.00     0.051 A 
HETATM   12  O2  UNK     1      18.703  -7.740  37.007  1.00  0.00    -0.275 OA
HETATM   13  C22 UNK     1      20.733  -8.536  37.977  1.00  0.00     0.041 A 
HETATM   14  C21 UNK     1      17.885  -6.743  36.496  1.00  0.00     0.288 A 
HETATM   15  C16 UNK     1      18.438  -5.379  36.474  1.00  0.00     0.092 A 
HETATM   16  O4  UNK     1      16.756  -6.979  36.079  1.00  0.00    -0.260 OA
HETATM   17  C24 UNK     1      22.018  -8.318  38.462  1.00  0.00     0.039 A 
HETATM   18  C23 UNK     1      22.554  -7.031  38.449  1.00  0.00     0.069 A 
BRANCH  18  19
HETATM   19  O3  UNK     1      23.812  -6.817  38.924  1.00  0.00    -0.351 OA
BRANCH  19  20
HETATM   20  C25 UNK     1      24.688  -7.941  38.969  1.00  0.00     0.171 C 
HETATM   21  C26 UNK     1      26.083  -7.494  38.584  1.00  0.00     0.034 C 
ENDBRANCH  19  20
ENDBRANCH  18  19
ENDBRANCH   7   8
ENDBRANCH   2   7
BRANCH   1  22
HETATM   22  C5  UNK     1      17.817   0.619  34.077  1.00  0.00     0.375 C 
BRANCH  22  23
HETATM   23  C7  UNK     1      18.156   2.074  34.299  1.00  0.00     0.252 C 
HETATM   24  O1  UNK     1      18.274   2.496  35.450  1.00  0.00    -0.271 OA
HETATM   25  N3  UNK     1      18.309   2.821  33.139  1.00  0.00    -0.316 N 
HETATM   26  C10 UNK     1      18.625   4.194  33.075  1.00  0.00     0.043 A 
HETATM   27  C8  UNK     1      18.166   2.312  31.758  1.00  0.00     0.137 A 
HETATM   28  C11 UNK     1      18.698   4.606  31.742  1.00  0.00    -0.030 A 
HETATM   29  C14 UNK     1      18.847   5.095  34.106  1.00  0.00     0.030 A 
HETATM   30  C9  UNK     1      18.427   3.479  30.800  1.00  0.00     0.061 A 
HETATM   31  C15 UNK     1      18.996   5.919  31.409  1.00  0.00     0.009 A 
HETATM   32  C19 UNK     1      19.221   6.831  32.440  1.00  0.00     0.001 A 
HETATM   33  C18 UNK     1      19.147   6.422  33.778  1.00  0.00     0.002 A 
ENDBRANCH  22  23
ENDBRANCH   1  22
TORSDOF 6
ENDMDL
MODEL 8
REMARK VINA RESULT:      -8.8      2.080      4.098
REMARK  6 active torsions:
REMARK  status: ('A' for Active; 'I' for Inactive)
REMARK    1  A    between atoms: C23_30  and  O3_3 
REMARK    2  A    between atoms: C25_32  and  O3_3 
REMARK    3  A    between atoms: C5_12  and  N1_5 
REMARK    4  A    between atoms: C6_13  and  N2_6 
REMARK       I    between atoms: C7_14  and  N3_7 
REMARK    5  A    between atoms: C5_12  and  C7_14 
REMARK    6  A    between atoms: C12_19  and  C6_13 
ROOT
HETATM    1  N1  UNK     1      14.963   8.577   9.641  1.00  0.00     0.100 N 
HETATM    2  N2  UNK     1      16.813  10.755   9.201  1.00  0.00     0.096 N 
HETATM    3  C1  UNK     1      16.395   8.431   9.930  1.00  0.00     0.303 C 
HETATM    4  C2  UNK     1      14.755   9.547   8.559  1.00  0.00     0.303 C 
HETATM    5  C3  UNK     1      17.023   9.784  10.282  1.00  0.00     0.303 C 
HETATM    6  C4  UNK     1      15.381  10.901   8.913  1.00  0.00     0.303 C 
ENDROOT
BRANCH   2   7
HETATM    7  C6  UNK     1      17.409  12.045   9.542  1.00  0.00     0.312 C 
BRANCH   7   8
HETATM    8  C12 UNK     1      18.586  12.364   8.687  1.00  0.00    -0.011 A 
HETATM    9  C13 UNK     1      18.424  13.224   7.506  1.00  0.00     0.009 A 
HETATM   10  C17 UNK     1      19.546  13.505   6.725  1.00  0.00     0.090 A 
HETATM   11  C20 UNK     1      17.202  13.785   7.114  1.00  0.00     0.051 A 
HETATM   12  O2  UNK     1      20.812  12.980   7.052  1.00  0.00    -0.275 OA
HETATM   13  C22 UNK     1      19.480  14.312   5.588  1.00  0.00     0.041 A 
HETATM   14  C21 UNK     1      20.995  12.167   8.161  1.00  0.00     0.288 A 
HETATM   15  C16 UNK     1      19.802  11.879   8.975  1.00  0.00     0.092 A 
HETATM   16  O4  UNK     1      22.093  11.706   8.456  1.00  0.00    -0.260 OA
HETATM   17  C24 UNK     1      18.257  14.860   5.215  1.00  0.00     0.039 A 
HETATM   18  C23 UNK     1      17.119  14.597   5.977  1.00  0.00     0.069 A 
BRANCH  18  19
HETATM   19  O3  UNK     1      15.922  15.133   5.613  1.00  0.00    -0.351 OA
BRANCH  19  20
HETATM   20  C25 UNK     1      14.787  14.782   6.403  1.00  0.00     0.171 C 
HETATM   21  C26 UNK     1      13.921  16.008   6.591  1.00  0.00     0.034 C 
ENDBRANCH  19  20
ENDBRANCH  18  19
ENDBRANCH   7   8
ENDBRANCH   2   7
BRANCH   1  22
HETATM   22  C5  UNK     1      14.367   7.286   9.303  1.00  0.00     0.375 C 
BRANCH  22  23
HETATM   23  C7  UNK     1      12.862   7.325   9.426  1.00  0.00     0.252 C 
HETATM   24  O1  UNK     1      12.353   7.660  10.497  1.00  0.00    -0.271 OA
HETATM   25  N3  UNK     1      12.173   6.967   8.275  1.00  0.00    -0.316 N 
HETATM   26  C10 UNK     1      10.771   6.922   8.131  1.00  0.00     0.043 A 
HETATM   27  C8  UNK     1      12.786   6.565   6.992  1.00  0.00     0.137 A 
HETATM   28  C11 UNK     1      10.437   6.520   6.836  1.00  0.00    -0.030 A 
HETATM   29  C14 UNK     1       9.781   7.208   9.060  1.00  0.00     0.030 A 
HETATM   30  C9  UNK     1      11.652   6.265   6.006  1.00  0.00     0.061 A 
HETATM   31  C15 UNK     1       9.114   6.396   6.439  1.00  0.00     0.009 A 
HETATM   32  C19 UNK     1       8.112   6.682   7.366  1.00  0.00     0.001 A 
HETATM   33  C18 UNK     1       8.444   7.086   8.667  1.00  0.00     0.002 A 
ENDBRANCH  22  23
ENDBRANCH   1  22
TORSDOF 6
ENDMDL
MODEL 9
REMARK VINA RESULT:      -8.7     33.252     34.574
REMARK  6 active torsions:
REMARK  status: ('A' for Active; 'I' for Inactive)
REMARK    1  A    between atoms: C23_30  and  O3_3 
REMARK    2  A    between atoms: C25_32  and  O3_3 
REMARK    3  A    between atoms: C5_12  and  N1_5 
REMARK    4  A    between atoms: C6_13  and  N2_6 
REMARK       I    between atoms: C7_14  and  N3_7 
REMARK    5  A    between atoms: C5_12  and  C7_14 
REMARK    6  A    between atoms: C12_19  and  C6_13 
ROOT
HETATM    1  N1  UNK     1      26.578  -8.613  37.560  1.00  0.00     0.100 N 
HETATM    2  N2  UNK     1      29.469  -8.595  37.566  1.00  0.00     0.096 N 
HETATM    3  C1  UNK     1      27.345  -9.582  38.353  1.00  0.00     0.303 C 
HETATM    4  C2  UNK     1      27.340  -8.204  36.374  1.00  0.00     0.303 C 
HETATM    5  C3  UNK     1      28.707  -9.005  38.752  1.00  0.00     0.303 C 
HETATM    6  C4  UNK     1      28.702  -7.625  36.774  1.00  0.00     0.303 C 
ENDROOT
BRANCH   2   7
HETATM    7  C6  UNK     1      30.766  -8.040  37.950  1.00  0.00     0.312 C 
BRANCH   7   8
HETATM    8  C12 UNK     1      30.757  -6.551  37.969  1.00  0.00    -0.011 A 
HETATM    9  C13 UNK     1      31.530  -5.800  36.968  1.00  0.00     0.009 A 
HETATM   10  C17 UNK     1      31.502  -4.406  37.011  1.00  0.00     0.090 A 
HETATM   11  C20 UNK     1      32.299  -6.406  35.965  1.00  0.00     0.051 A 
HETATM   12  O2  UNK     1      30.752  -3.722  37.988  1.00  0.00    -0.275 OA
HETATM   13  C22 UNK     1      32.206  -3.618  36.099  1.00  0.00     0.041 A 
HETATM   14  C21 UNK     1      30.012  -4.403  38.943  1.00  0.00     0.288 A 
HETATM   15  C16 UNK     1      30.052  -5.874  38.886  1.00  0.00     0.092 A 
HETATM   16  O4  UNK     1      29.356  -3.817  39.797  1.00  0.00    -0.260 OA
HETATM   17  C24 UNK     1      32.964  -4.237  35.111  1.00  0.00     0.039 A 
HETATM   18  C23 UNK     1      33.010  -5.629  35.043  1.00  0.00     0.069 A 
BRANCH  18  19
HETATM   19  O3  UNK     1      33.752  -6.236  34.076  1.00  0.00    -0.351 OA
BRANCH  19  20
HETATM   20  C25 UNK     1      35.133  -5.888  34.004  1.00  0.00     0.171 C 
HETATM   21  C26 UNK     1      35.883  -6.625  35.093  1.00  0.00     0.034 C 
ENDBRANCH  19  20
ENDBRANCH  18  19
ENDBRANCH   7   8
ENDBRANCH   2   7
BRANCH   1  22
HETATM   22  C5  UNK     1      25.280  -9.165  37.178  1.00  0.00     0.375 C 
BRANCH  22  23
HETATM   23  C7  UNK     1      24.145  -8.390  37.804  1.00  0.00     0.252 C 
HETATM   24  O1  UNK     1      24.395  -7.541  38.660  1.00  0.00    -0.271 OA
HETATM   25  N3  UNK     1      22.882  -8.724  37.334  1.00  0.00    -0.316 N 
HETATM   26  C10 UNK     1      21.665  -8.150  37.756  1.00  0.00     0.043 A 
HETATM   27  C8  UNK     1      22.584  -9.745  36.307  1.00  0.00     0.137 A 
HETATM   28  C11 UNK     1      20.599  -8.731  37.066  1.00  0.00    -0.030 A 
HETATM   29  C14 UNK     1      21.439  -7.159  38.701  1.00  0.00     0.030 A 
HETATM   30  C9  UNK     1      21.066  -9.770  36.100  1.00  0.00     0.061 A 
HETATM   31  C15 UNK     1      19.289  -8.338  37.299  1.00  0.00     0.009 A 
HETATM   32  C19 UNK     1      19.054  -7.343  38.248  1.00  0.00     0.001 A 
HETATM   33  C18 UNK     1      20.121  -6.758  38.943  1.00  0.00     0.002 A 
ENDBRANCH  22  23
ENDBRANCH   1  22
TORSDOF 6
ENDMDL
MODEL 10
REMARK VINA RESULT:      -8.6     30.638     34.227
REMARK  6 active torsions:
REMARK  status: ('A' for Active; 'I' for Inactive)
REMARK    1  A    between atoms: C23_30  and  O3_3 
REMARK    2  A    between atoms: C25_32  and  O3_3 
REMARK    3  A    between atoms: C5_12  and  N1_5 
REMARK    4  A    between atoms: C6_13  and  N2_6 
REMARK       I    between atoms: C7_14  and  N3_7 
REMARK    5  A    between atoms: C5_12  and  C7_14 
REMARK    6  A    between atoms: C12_19  and  C6_13 
ROOT
HETATM    1  N1  UNK     1      29.140  -7.248  35.891  1.00  0.00     0.100 N 
HETATM    2  N2  UNK     1      26.824  -8.717  36.805  1.00  0.00     0.096 N 
HETATM    3  C1  UNK     1      28.221  -6.681  36.885  1.00  0.00     0.303 C 
HETATM    4  C2  UNK     1      28.426  -8.175  35.004  1.00  0.00     0.303 C 
HETATM    5  C3  UNK     1      27.536  -7.789  37.692  1.00  0.00     0.303 C 
HETATM    6  C4  UNK     1      27.743  -9.285  35.811  1.00  0.00     0.303 C 
ENDROOT
BRANCH   2   7
HETATM    7  C6  UNK     1      26.176  -9.776  37.577  1.00  0.00     0.312 C 
BRANCH   7   8
HETATM    8  C12 UNK     1      25.099 -10.456  36.803  1.00  0.00    -0.011 A 
HETATM    9  C13 UNK     1      23.785  -9.813  36.655  1.00  0.00     0.009 A 
HETATM   10  C17 UNK     1      22.797 -10.474  35.925  1.00  0.00     0.090 A 
HETATM   11  C20 UNK     1      23.463  -8.566  37.206  1.00  0.00     0.051 A 
HETATM   12  O2  UNK     1      23.042 -11.732  35.338  1.00  0.00    -0.275 OA
HETATM   13  C22 UNK     1      21.523  -9.935  35.736  1.00  0.00     0.041 A 
HETATM   14  C21 UNK     1      24.272 -12.361  35.460  1.00  0.00     0.288 A 
HETATM   15  C16 UNK     1      25.305 -11.651  36.234  1.00  0.00     0.092 A 
HETATM   16  O4  UNK     1      24.497 -13.454  34.952  1.00  0.00    -0.260 OA
HETATM   17  C24 UNK     1      21.222  -8.696  36.291  1.00  0.00     0.039 A 
HETATM   18  C23 UNK     1      22.190  -8.012  37.025  1.00  0.00     0.069 A 
BRANCH  18  19
HETATM   19  O3  UNK     1      21.896  -6.799  37.568  1.00  0.00    -0.351 OA
BRANCH  19  20
HETATM   20  C25 UNK     1      20.522  -6.524  37.835  1.00  0.00     0.171 C 
HETATM   21  C26 UNK     1      20.242  -6.789  39.299  1.00  0.00     0.034 C 
ENDBRANCH  19  20
ENDBRANCH  18  19
ENDBRANCH   7   8
ENDBRANCH   2   7
BRANCH   1  22
HETATM   22  C5  UNK     1      29.790  -6.190  35.120  1.00  0.00     0.375 C 
BRANCH  22  23
HETATM   23  C7  UNK     1      30.769  -6.758  34.120  1.00  0.00     0.252 C 
HETATM   24  O1  UNK     1      31.684  -7.481  34.516  1.00  0.00    -0.271 OA
HETATM   25  N3  UNK     1      30.529  -6.397  32.801  1.00  0.00    -0.316 N 
HETATM   26  C10 UNK     1      31.294  -6.793  31.684  1.00  0.00     0.043 A 
HETATM   27  C8  UNK     1      29.429  -5.530  32.329  1.00  0.00     0.137 A 
HETATM   28  C11 UNK     1      30.758  -6.240  30.519  1.00  0.00    -0.030 A 
HETATM   29  C14 UNK     1      32.421  -7.600  31.630  1.00  0.00     0.030 A 
HETATM   30  C9  UNK     1      29.550  -5.410  30.806  1.00  0.00     0.061 A 
HETATM   31  C15 UNK     1      31.330  -6.480  29.278  1.00  0.00     0.009 A 
HETATM   32  C19 UNK     1      32.464  -7.290  29.215  1.00  0.00     0.001 A 
HETATM   33  C18 UNK     1      33.005  -7.846  30.382  1.00  0.00     0.002 A 
ENDBRANCH  22  23
ENDBRANCH   1  22
TORSDOF 6
ENDMDL
