MODEL 1
REMARK VINA RESULT:      -7.6      0.000      0.000
REMARK  3 active torsions:
REMARK  status: ('A' for Active; 'I' for Inactive)
REMARK    1  A    between atoms: C13_17  and  O3_4 
REMARK    2  A    between atoms: C1_5  and  C4_8 
REMARK    3  A    between atoms: C3_7  and  C6_10 
ROOT
HETATM    1  O1  UNK     1      29.540  -6.114  39.054  1.00  0.00    -0.274 OA
HETATM    2  O2  UNK     1      31.164  -4.540  38.819  1.00  0.00    -0.259 OA
HETATM    3  C1  UNK     1      30.566  -7.418  36.744  1.00  0.00     0.004 A 
HETATM    4  C2  UNK     1      29.396  -7.953  37.473  1.00  0.00     0.010 A 
HETATM    5  C3  UNK     1      31.147  -6.281  37.201  1.00  0.00     0.063 A 
HETATM    6  C5  UNK     1      28.923  -7.287  38.598  1.00  0.00     0.093 A 
HETATM    7  C7  UNK     1      30.637  -5.570  38.408  1.00  0.00     0.300 A 
HETATM    8  C8  UNK     1      28.725  -9.121  37.081  1.00  0.00     0.018 A 
HETATM    9  C9  UNK     1      27.824  -7.743  39.329  1.00  0.00     0.074 A 
HETATM   10  C12 UNK     1      27.622  -9.592  37.802  1.00  0.00     0.037 A 
HETATM   11  C13 UNK     1      27.172  -8.903  38.925  1.00  0.00     0.068 A 
ENDROOT
BRANCH   5  12
HETATM   12  C6  UNK     1      32.308  -5.706  36.518  1.00  0.00     0.003 A 
HETATM   13  C14 UNK     1      33.610  -6.071  36.843  1.00  0.00     0.045 A 
HETATM   14 Cl1  UNK     1      33.960  -7.232  38.075  1.00  0.00    -0.083 Cl
HETATM   15  C18 UNK     1      34.682  -5.493  36.161  1.00  0.00     0.024 A 
HETATM   16  C21 UNK     1      34.446  -4.553  35.159  1.00  0.00     0.002 A 
HETATM   17  C19 UNK     1      33.139  -4.190  34.837  1.00  0.00     0.001 A 
HETATM   18  C15 UNK     1      32.067  -4.767  35.518  1.00  0.00     0.014 A 
ENDBRANCH   5  12
BRANCH   3  19
HETATM   19  C4  UNK     1      31.130  -8.055  35.548  1.00  0.00    -0.024 A 
HETATM   20  C10 UNK     1      32.110  -9.030  35.689  1.00  0.00     0.012 A 
HETATM   21  C16 UNK     1      32.644  -9.636  34.551  1.00  0.00     0.001 A 
HETATM   22  C20 UNK     1      32.193  -9.263  33.286  1.00  0.00     0.000 A 
HETATM   23  C17 UNK     1      31.210  -8.282  33.156  1.00  0.00     0.001 A 
HETATM   24  C11 UNK     1      30.676  -7.676  34.292  1.00  0.00     0.012 A 
ENDBRANCH   3  19
BRANCH  11  25
HETATM   25  O3  UNK     1      26.099  -9.362  39.625  1.00  0.00    -0.361 OA
HETATM   26  H13 UNK     1      25.603  -8.602  39.975  1.00  0.00     0.217 HD
ENDBRANCH  11  25
TORSDOF 3
ENDMDL
MODEL 2
REMARK VINA RESULT:      -7.5      2.874      4.279
REMARK  3 active torsions:
REMARK  status: ('A' for Active; 'I' for Inactive)
REMARK    1  A    between atoms: C13_17  and  O3_4 
REMARK    2  A    between atoms: C1_5  and  C4_8 
REMARK    3  A    between atoms: C3_7  and  C6_10 
ROOT
HETATM    1  O1  UNK     1      31.906  -3.913  36.326  1.00  0.00    -0.274 OA
HETATM    2  O2  UNK     1      33.155  -4.091  34.434  1.00  0.00    -0.259 OA
HETATM    3  C1  UNK     1      30.656  -6.378  35.649  1.00  0.00     0.004 A 
HETATM    4  C2  UNK     1      30.285  -5.639  36.875  1.00  0.00     0.010 A 
HETATM    5  C3  UNK     1      31.613  -5.854  34.844  1.00  0.00     0.063 A 
HETATM    6  C5  UNK     1      30.918  -4.436  37.172  1.00  0.00     0.093 A 
HETATM    7  C7  UNK     1      32.290  -4.565  35.166  1.00  0.00     0.300 A 
HETATM    8  C8  UNK     1      29.308  -6.095  37.772  1.00  0.00     0.018 A 
HETATM    9  C9  UNK     1      30.612  -3.693  38.314  1.00  0.00     0.074 A 
HETATM   10  C12 UNK     1      28.989  -5.363  38.921  1.00  0.00     0.037 A 
HETATM   11  C13 UNK     1      29.641  -4.163  39.192  1.00  0.00     0.068 A 
ENDROOT
BRANCH   5  12
HETATM   12  C6  UNK     1      32.019  -6.542  33.617  1.00  0.00     0.003 A 
HETATM   13  C14 UNK     1      31.381  -6.321  32.401  1.00  0.00     0.045 A 
HETATM   14 Cl1  UNK     1      30.059  -5.217  32.243  1.00  0.00    -0.083 Cl
HETATM   15  C18 UNK     1      31.808  -7.001  31.260  1.00  0.00     0.024 A 
HETATM   16  C21 UNK     1      32.872  -7.900  31.341  1.00  0.00     0.002 A 
HETATM   17  C19 UNK     1      33.509  -8.119  32.562  1.00  0.00     0.001 A 
HETATM   18  C15 UNK     1      33.082  -7.438  33.703  1.00  0.00     0.014 A 
ENDBRANCH   5  12
BRANCH   3  19
HETATM   19  C4  UNK     1      30.039  -7.651  35.258  1.00  0.00    -0.024 A 
HETATM   20  C10 UNK     1      28.881  -7.644  34.492  1.00  0.00     0.012 A 
HETATM   21  C16 UNK     1      28.297  -8.856  34.119  1.00  0.00     0.001 A 
HETATM   22  C20 UNK     1      28.877 -10.060  34.515  1.00  0.00     0.000 A 
HETATM   23  C17 UNK     1      30.040 -10.055  35.286  1.00  0.00     0.001 A 
HETATM   24  C11 UNK     1      30.623  -8.845  35.658  1.00  0.00     0.012 A 
ENDBRANCH   3  19
BRANCH  11  25
HETATM   25  O3  UNK     1      29.330  -3.452  40.309  1.00  0.00    -0.361 OA
HETATM   26  H13 UNK     1      29.599  -3.963  41.092  1.00  0.00     0.217 HD
ENDBRANCH  11  25
TORSDOF 3
ENDMDL
MODEL 3
REMARK VINA RESULT:      -7.4      2.436      4.726
REMARK  3 active torsions:
REMARK  status: ('A' for Active; 'I' for Inactive)
REMARK    1  A    between atoms: C13_17  and  O3_4 
REMARK    2  A    between atoms: C1_5  and  C4_8 
REMARK    3  A    between atoms: C3_7  and  C6_10 
ROOT
HETATM    1  O1  UNK     1      28.403  -7.609  37.954  1.00  0.00    -0.274 OA
HETATM    2  O2  UNK     1      27.948  -9.584  36.923  1.00  0.00    -0.259 OA
HETATM    3  C1  UNK     1      30.706  -7.357  36.304  1.00  0.00     0.004 A 
HETATM    4  C2  UNK     1      30.362  -6.325  37.306  1.00  0.00     0.010 A 
HETATM    5  C3  UNK     1      29.896  -8.437  36.184  1.00  0.00     0.063 A 
HETATM    6  C5  UNK     1      29.228  -6.485  38.095  1.00  0.00     0.093 A 
HETATM    7  C7  UNK     1      28.680  -8.603  37.032  1.00  0.00     0.300 A 
HETATM    8  C8  UNK     1      31.136  -5.173  37.508  1.00  0.00     0.018 A 
HETATM    9  C9  UNK     1      28.850  -5.546  39.058  1.00  0.00     0.074 A 
HETATM   10  C12 UNK     1      30.771  -4.222  38.469  1.00  0.00     0.037 A 
HETATM   11  C13 UNK     1      29.629  -4.409  39.243  1.00  0.00     0.068 A 
ENDROOT
BRANCH   5  12
HETATM   12  C6  UNK     1      30.188  -9.489  35.209  1.00  0.00     0.003 A 
HETATM   13  C14 UNK     1      29.598  -9.512  33.949  1.00  0.00     0.045 A 
HETATM   14 Cl1  UNK     1      28.475  -8.301  33.437  1.00  0.00    -0.083 Cl
HETATM   15  C18 UNK     1      29.911 -10.537  33.055  1.00  0.00     0.024 A 
HETATM   16  C21 UNK     1      30.813 -11.534  33.426  1.00  0.00     0.002 A 
HETATM   17  C19 UNK     1      31.402 -11.508  34.690  1.00  0.00     0.001 A 
HETATM   18  C15 UNK     1      31.089 -10.483  35.583  1.00  0.00     0.014 A 
ENDBRANCH   5  12
BRANCH   3  19
HETATM   19  C4  UNK     1      31.883  -7.271  35.431  1.00  0.00    -0.024 A 
HETATM   20  C10 UNK     1      33.109  -7.740  35.886  1.00  0.00     0.012 A 
HETATM   21  C16 UNK     1      34.226  -7.660  35.054  1.00  0.00     0.001 A 
HETATM   22  C20 UNK     1      34.107  -7.112  33.777  1.00  0.00     0.000 A 
HETATM   23  C17 UNK     1      32.872  -6.643  33.332  1.00  0.00     0.001 A 
HETATM   24  C11 UNK     1      31.755  -6.723  34.163  1.00  0.00     0.012 A 
ENDBRANCH   3  19
BRANCH  11  25
HETATM   25  O3  UNK     1      29.277  -3.484  40.176  1.00  0.00    -0.361 OA
HETATM   26  H13 UNK     1      29.203  -3.922  41.042  1.00  0.00     0.217 HD
ENDBRANCH  11  25
TORSDOF 3
ENDMDL
MODEL 4
REMARK VINA RESULT:      -7.4      2.551      3.817
REMARK  3 active torsions:
REMARK  status: ('A' for Active; 'I' for Inactive)
REMARK    1  A    between atoms: C13_17  and  O3_4 
REMARK    2  A    between atoms: C1_5  and  C4_8 
REMARK    3  A    between atoms: C3_7  and  C6_10 
ROOT
HETATM    1  O1  UNK     1      31.960  -3.898  36.368  1.00  0.00    -0.274 OA
HETATM    2  O2  UNK     1      33.240  -4.081  34.497  1.00  0.00    -0.259 OA
HETATM    3  C1  UNK     1      30.733  -6.373  35.686  1.00  0.00     0.004 A 
HETATM    4  C2  UNK     1      30.340  -5.629  36.902  1.00  0.00     0.010 A 
HETATM    5  C3  UNK     1      31.700  -5.849  34.893  1.00  0.00     0.063 A 
HETATM    6  C5  UNK     1      30.962  -4.422  37.201  1.00  0.00     0.093 A 
HETATM    7  C7  UNK     1      32.365  -4.554  35.218  1.00  0.00     0.300 A 
HETATM    8  C8  UNK     1      29.350  -6.086  37.785  1.00  0.00     0.018 A 
HETATM    9  C9  UNK     1      30.634  -3.674  38.334  1.00  0.00     0.074 A 
HETATM   10  C12 UNK     1      29.010  -5.348  38.925  1.00  0.00     0.037 A 
HETATM   11  C13 UNK     1      29.652  -4.143  39.199  1.00  0.00     0.068 A 
ENDROOT
BRANCH   5  12
HETATM   12  C6  UNK     1      32.130  -6.542  33.677  1.00  0.00     0.003 A 
HETATM   13  C14 UNK     1      33.255  -7.360  33.652  1.00  0.00     0.045 A 
HETATM   14 Cl1  UNK     1      34.232  -7.624  35.055  1.00  0.00    -0.083 Cl
HETATM   15  C18 UNK     1      33.621  -7.999  32.467  1.00  0.00     0.024 A 
HETATM   16  C21 UNK     1      32.861  -7.817  31.312  1.00  0.00     0.002 A 
HETATM   17  C19 UNK     1      31.735  -6.995  31.341  1.00  0.00     0.001 A 
HETATM   18  C15 UNK     1      31.368  -6.356  32.526  1.00  0.00     0.014 A 
ENDBRANCH   5  12
BRANCH   3  19
HETATM   19  C4  UNK     1      30.129  -7.652  35.293  1.00  0.00    -0.024 A 
HETATM   20  C10 UNK     1      30.745  -8.841  35.660  1.00  0.00     0.012 A 
HETATM   21  C16 UNK     1      30.169 -10.056  35.288  1.00  0.00     0.001 A 
HETATM   22  C20 UNK     1      28.983 -10.070  34.554  1.00  0.00     0.000 A 
HETATM   23  C17 UNK     1      28.374  -8.869  34.190  1.00  0.00     0.001 A 
HETATM   24  C11 UNK     1      28.950  -7.655  34.562  1.00  0.00     0.012 A 
ENDBRANCH   3  19
BRANCH  11  25
HETATM   25  O3  UNK     1      29.319  -3.428  40.307  1.00  0.00    -0.361 OA
HETATM   26  H13 UNK     1      28.644  -3.919  40.808  1.00  0.00     0.217 HD
ENDBRANCH  11  25
TORSDOF 3
ENDMDL
MODEL 5
REMARK VINA RESULT:      -7.4      3.378      5.484
REMARK  3 active torsions:
REMARK  status: ('A' for Active; 'I' for Inactive)
REMARK    1  A    between atoms: C13_17  and  O3_4 
REMARK    2  A    between atoms: C1_5  and  C4_8 
REMARK    3  A    between atoms: C3_7  and  C6_10 
ROOT
HETATM    1  O1  UNK     1      27.965  -7.258  33.856  1.00  0.00    -0.274 OA
HETATM    2  O2  UNK     1      28.172  -8.040  35.981  1.00  0.00    -0.259 OA
HETATM    3  C1  UNK     1      30.651  -6.335  34.006  1.00  0.00     0.004 A 
HETATM    4  C2  UNK     1      29.838  -6.140  32.787  1.00  0.00     0.010 A 
HETATM    5  C3  UNK     1      30.087  -6.970  35.064  1.00  0.00     0.063 A 
HETATM    6  C5  UNK     1      28.528  -6.604  32.751  1.00  0.00     0.093 A 
HETATM    7  C7  UNK     1      28.682  -7.467  35.021  1.00  0.00     0.300 A 
HETATM    8  C8  UNK     1      30.329  -5.495  31.641  1.00  0.00     0.018 A 
HETATM    9  C9  UNK     1      27.711  -6.450  31.630  1.00  0.00     0.074 A 
HETATM   10  C12 UNK     1      29.523  -5.332  30.508  1.00  0.00     0.037 A 
HETATM   11  C13 UNK     1      28.215  -5.809  30.503  1.00  0.00     0.068 A 
ENDROOT
BRANCH   5  12
HETATM   12  C6  UNK     1      30.845  -7.191  36.297  1.00  0.00     0.003 A 
HETATM   13  C14 UNK     1      30.815  -6.288  37.354  1.00  0.00     0.045 A 
HETATM   14 Cl1  UNK     1      29.880  -4.834  37.295  1.00  0.00    -0.083 Cl
HETATM   15  C18 UNK     1      31.554  -6.546  38.508  1.00  0.00     0.024 A 
HETATM   16  C21 UNK     1      32.321  -7.707  38.600  1.00  0.00     0.002 A 
HETATM   17  C19 UNK     1      32.349  -8.610  37.538  1.00  0.00     0.001 A 
HETATM   18  C15 UNK     1      31.610  -8.352  36.384  1.00  0.00     0.014 A 
ENDBRANCH   5  12
BRANCH   3  19
HETATM   19  C4  UNK     1      32.040  -5.877  34.131  1.00  0.00    -0.024 A 
HETATM   20  C10 UNK     1      33.074  -6.702  33.708  1.00  0.00     0.012 A 
HETATM   21  C16 UNK     1      34.394  -6.265  33.825  1.00  0.00     0.001 A 
HETATM   22  C20 UNK     1      34.666  -5.007  34.362  1.00  0.00     0.000 A 
HETATM   23  C17 UNK     1      33.620  -4.187  34.784  1.00  0.00     0.001 A 
HETATM   24  C11 UNK     1      32.301  -4.624  34.667  1.00  0.00     0.012 A 
ENDBRANCH   3  19
BRANCH  11  25
HETATM   25  O3  UNK     1      27.434  -5.649  29.401  1.00  0.00    -0.361 OA
HETATM   26  H13 UNK     1      26.515  -5.876  29.630  1.00  0.00     0.217 HD
ENDBRANCH  11  25
TORSDOF 3
ENDMDL
MODEL 6
REMARK VINA RESULT:      -7.3      3.649      6.212
REMARK  3 active torsions:
REMARK  status: ('A' for Active; 'I' for Inactive)
REMARK    1  A    between atoms: C13_17  and  O3_4 
REMARK    2  A    between atoms: C1_5  and  C4_8 
REMARK    3  A    between atoms: C3_7  and  C6_10 
ROOT
HETATM    1  O1  UNK     1      30.472  -6.806  35.426  1.00  0.00    -0.274 OA
HETATM    2  O2  UNK     1      28.373  -6.511  34.603  1.00  0.00    -0.259 OA
HETATM    3  C1  UNK     1      31.314  -7.565  32.817  1.00  0.00     0.004 A 
HETATM    4  C2  UNK     1      32.261  -7.533  33.952  1.00  0.00     0.010 A 
HETATM    5  C3  UNK     1      30.022  -7.222  33.045  1.00  0.00     0.063 A 
HETATM    6  C5  UNK     1      31.812  -7.158  35.213  1.00  0.00     0.093 A 
HETATM    7  C7  UNK     1      29.544  -6.819  34.399  1.00  0.00     0.300 A 
HETATM    8  C8  UNK     1      33.616  -7.871  33.820  1.00  0.00     0.018 A 
HETATM    9  C9  UNK     1      32.658  -7.108  36.323  1.00  0.00     0.074 A 
HETATM   10  C12 UNK     1      34.478  -7.826  34.923  1.00  0.00     0.037 A 
HETATM   11  C13 UNK     1      33.999  -7.445  36.173  1.00  0.00     0.068 A 
ENDROOT
BRANCH   5  12
HETATM   12  C6  UNK     1      29.040  -7.236  31.959  1.00  0.00     0.003 A 
HETATM   13  C14 UNK     1      28.746  -6.097  31.216  1.00  0.00     0.045 A 
HETATM   14 Cl1  UNK     1      29.517  -4.578  31.516  1.00  0.00    -0.083 Cl
HETATM   15  C18 UNK     1      27.802  -6.163  30.190  1.00  0.00     0.024 A 
HETATM   16  C21 UNK     1      27.157  -7.367  29.913  1.00  0.00     0.002 A 
HETATM   17  C19 UNK     1      27.454  -8.507  30.660  1.00  0.00     0.001 A 
HETATM   18  C15 UNK     1      28.398  -8.441  31.685  1.00  0.00     0.014 A 
ENDBRANCH   5  12
BRANCH   3  19
HETATM   19  C4  UNK     1      31.701  -7.950  31.455  1.00  0.00    -0.024 A 
HETATM   20  C10 UNK     1      31.680  -9.290  31.089  1.00  0.00     0.012 A 
HETATM   21  C16 UNK     1      32.046  -9.653  29.793  1.00  0.00     0.001 A 
HETATM   22  C20 UNK     1      32.428  -8.675  28.875  1.00  0.00     0.000 A 
HETATM   23  C17 UNK     1      32.446  -7.333  29.254  1.00  0.00     0.001 A 
HETATM   24  C11 UNK     1      32.080  -6.969  30.549  1.00  0.00     0.012 A 
ENDBRANCH   3  19
BRANCH  11  25
HETATM   25  O3  UNK     1      34.838  -7.403  37.243  1.00  0.00    -0.361 OA
HETATM   26  H13 UNK     1      35.676  -7.834  37.003  1.00  0.00     0.217 HD
ENDBRANCH  11  25
TORSDOF 3
ENDMDL
MODEL 7
REMARK VINA RESULT:      -7.3      4.179      6.946
REMARK  3 active torsions:
REMARK  status: ('A' for Active; 'I' for Inactive)
REMARK    1  A    between atoms: C13_17  and  O3_4 
REMARK    2  A    between atoms: C1_5  and  C4_8 
REMARK    3  A    between atoms: C3_7  and  C6_10 
ROOT
HETATM    1  O1  UNK     1      33.338  -7.217  31.705  1.00  0.00    -0.274 OA
HETATM    2  O2  UNK     1      31.910  -7.077  29.941  1.00  0.00    -0.259 OA
HETATM    3  C1  UNK     1      31.093  -7.639  33.400  1.00  0.00     0.004 A 
HETATM    4  C2  UNK     1      32.469  -7.606  33.940  1.00  0.00     0.010 A 
HETATM    5  C3  UNK     1      30.919  -7.463  32.067  1.00  0.00     0.063 A 
HETATM    6  C5  UNK     1      33.542  -7.396  33.080  1.00  0.00     0.093 A 
HETATM    7  C7  UNK     1      32.071  -7.239  31.148  1.00  0.00     0.300 A 
HETATM    8  C8  UNK     1      32.755  -7.777  35.303  1.00  0.00     0.018 A 
HETATM    9  C9  UNK     1      34.863  -7.355  33.530  1.00  0.00     0.074 A 
HETATM   10  C12 UNK     1      34.074  -7.738  35.771  1.00  0.00     0.037 A 
HETATM   11  C13 UNK     1      35.127  -7.527  34.884  1.00  0.00     0.068 A 
ENDROOT
BRANCH   5  12
HETATM   12  C6  UNK     1      29.579  -7.486  31.477  1.00  0.00     0.003 A 
HETATM   13  C14 UNK     1      28.826  -6.328  31.308  1.00  0.00     0.045 A 
HETATM   14 Cl1  UNK     1      29.414  -4.772  31.782  1.00  0.00    -0.083 Cl
HETATM   15  C18 UNK     1      27.555  -6.404  30.739  1.00  0.00     0.024 A 
HETATM   16  C21 UNK     1      27.042  -7.638  30.341  1.00  0.00     0.002 A 
HETATM   17  C19 UNK     1      27.799  -8.797  30.512  1.00  0.00     0.001 A 
HETATM   18  C15 UNK     1      29.070  -8.721  31.081  1.00  0.00     0.014 A 
ENDBRANCH   5  12
BRANCH   3  19
HETATM   19  C4  UNK     1      29.905  -7.854  34.234  1.00  0.00    -0.024 A 
HETATM   20  C10 UNK     1      29.454  -9.147  34.465  1.00  0.00     0.012 A 
HETATM   21  C16 UNK     1      28.326  -9.350  35.260  1.00  0.00     0.001 A 
HETATM   22  C20 UNK     1      27.660  -8.258  35.817  1.00  0.00     0.000 A 
HETATM   23  C17 UNK     1      28.122  -6.964  35.579  1.00  0.00     0.001 A 
HETATM   24  C11 UNK     1      29.249  -6.761  34.784  1.00  0.00     0.012 A 
ENDBRANCH   3  19
BRANCH  11  25
HETATM   25  O3  UNK     1      36.408  -7.490  35.341  1.00  0.00    -0.361 OA
HETATM   26  H13 UNK     1      36.394  -7.443  36.313  1.00  0.00     0.217 HD
ENDBRANCH  11  25
TORSDOF 3
ENDMDL
MODEL 8
REMARK VINA RESULT:      -7.3      2.166      2.970
REMARK  3 active torsions:
REMARK  status: ('A' for Active; 'I' for Inactive)
REMARK    1  A    between atoms: C13_17  and  O3_4 
REMARK    2  A    between atoms: C1_5  and  C4_8 
REMARK    3  A    between atoms: C3_7  and  C6_10 
ROOT
HETATM    1  O1  UNK     1      30.600  -9.068  38.557  1.00  0.00    -0.274 OA
HETATM    2  O2  UNK     1      32.635  -8.367  37.821  1.00  0.00    -0.259 OA
HETATM    3  C1  UNK     1      29.518  -8.363  36.022  1.00  0.00     0.004 A 
HETATM    4  C2  UNK     1      28.668  -8.934  37.089  1.00  0.00     0.010 A 
HETATM    5  C3  UNK     1      30.837  -8.179  36.276  1.00  0.00     0.063 A 
HETATM    6  C5  UNK     1      29.234  -9.265  38.316  1.00  0.00     0.093 A 
HETATM    7  C7  UNK     1      31.440  -8.536  37.593  1.00  0.00     0.300 A 
HETATM    8  C8  UNK     1      27.293  -9.161  36.926  1.00  0.00     0.018 A 
HETATM    9  C9  UNK     1      28.484  -9.808  39.362  1.00  0.00     0.074 A 
HETATM   10  C12 UNK     1      26.528  -9.705  37.964  1.00  0.00     0.037 A 
HETATM   11  C13 UNK     1      27.123 -10.027  39.181  1.00  0.00     0.068 A 
ENDROOT
BRANCH   5  12
HETATM   12  C6  UNK     1      31.726  -7.617  35.257  1.00  0.00     0.003 A 
HETATM   13  C14 UNK     1      31.974  -6.251  35.167  1.00  0.00     0.045 A 
HETATM   14 Cl1  UNK     1      31.254  -5.111  36.250  1.00  0.00    -0.083 Cl
HETATM   15  C18 UNK     1      32.830  -5.766  34.178  1.00  0.00     0.024 A 
HETATM   16  C21 UNK     1      33.434  -6.650  33.283  1.00  0.00     0.002 A 
HETATM   17  C19 UNK     1      33.182  -8.018  33.377  1.00  0.00     0.001 A 
HETATM   18  C15 UNK     1      32.326  -8.503  34.366  1.00  0.00     0.014 A 
ENDBRANCH   5  12
BRANCH   3  19
HETATM   19  C4  UNK     1      29.005  -7.984  34.700  1.00  0.00    -0.024 A 
HETATM   20  C10 UNK     1      29.005  -8.918  33.672  1.00  0.00     0.012 A 
HETATM   21  C16 UNK     1      28.515  -8.556  32.417  1.00  0.00     0.001 A 
HETATM   22  C20 UNK     1      28.029  -7.267  32.202  1.00  0.00     0.000 A 
HETATM   23  C17 UNK     1      28.035  -6.337  33.242  1.00  0.00     0.001 A 
HETATM   24  C11 UNK     1      28.524  -6.698  34.496  1.00  0.00     0.012 A 
ENDBRANCH   3  19
BRANCH  11  25
HETATM   25  O3  UNK     1      26.376 -10.555  40.189  1.00  0.00    -0.361 OA
HETATM   26  H13 UNK     1      26.447  -9.978  40.969  1.00  0.00     0.217 HD
ENDBRANCH  11  25
TORSDOF 3
ENDMDL
MODEL 9
REMARK VINA RESULT:      -7.2     35.308     36.763
REMARK  3 active torsions:
REMARK  status: ('A' for Active; 'I' for Inactive)
REMARK    1  A    between atoms: C13_17  and  O3_4 
REMARK    2  A    between atoms: C1_5  and  C4_8 
REMARK    3  A    between atoms: C3_7  and  C6_10 
ROOT
HETATM    1  O1  UNK     1      11.740   7.010   7.318  1.00  0.00    -0.274 OA
HETATM    2  O2  UNK     1      13.972   7.020   6.884  1.00  0.00    -0.259 OA
HETATM    3  C1  UNK     1      12.219   8.824   9.457  1.00  0.00     0.004 A 
HETATM    4  C2  UNK     1      10.855   8.347   9.144  1.00  0.00     0.010 A 
HETATM    5  C3  UNK     1      13.249   8.377   8.698  1.00  0.00     0.063 A 
HETATM    6  C5  UNK     1      10.661   7.459   8.091  1.00  0.00     0.093 A 
HETATM    7  C7  UNK     1      13.037   7.425   7.569  1.00  0.00     0.300 A 
HETATM    8  C8  UNK     1       9.724   8.749   9.870  1.00  0.00     0.018 A 
HETATM    9  C9  UNK     1       9.398   6.973   7.747  1.00  0.00     0.074 A 
HETATM   10  C12 UNK     1       8.450   8.271   9.538  1.00  0.00     0.037 A 
HETATM   11  C13 UNK     1       8.288   7.384   8.478  1.00  0.00     0.068 A 
ENDROOT
BRANCH   5  12
HETATM   12  C6  UNK     1      14.621   8.816   8.962  1.00  0.00     0.003 A 
HETATM   13  C14 UNK     1      15.509   8.052   9.713  1.00  0.00     0.045 A 
HETATM   14 Cl1  UNK     1      15.062   6.526  10.393  1.00  0.00    -0.083 Cl
HETATM   15  C18 UNK     1      16.806   8.515   9.935  1.00  0.00     0.024 A 
HETATM   16  C21 UNK     1      17.209   9.740   9.404  1.00  0.00     0.002 A 
HETATM   17  C19 UNK     1      16.317  10.502   8.652  1.00  0.00     0.001 A 
HETATM   18  C15 UNK     1      15.020  10.040   8.430  1.00  0.00     0.014 A 
ENDBRANCH   5  12
BRANCH   3  19
HETATM   19  C4  UNK     1      12.515   9.759  10.549  1.00  0.00    -0.024 A 
HETATM   20  C10 UNK     1      12.351  11.123  10.346  1.00  0.00     0.012 A 
HETATM   21  C16 UNK     1      12.631  12.010  11.386  1.00  0.00     0.001 A 
HETATM   22  C20 UNK     1      13.069  11.525  12.618  1.00  0.00     0.000 A 
HETATM   23  C17 UNK     1      13.231  10.153  12.810  1.00  0.00     0.001 A 
HETATM   24  C11 UNK     1      12.951   9.266  11.771  1.00  0.00     0.012 A 
ENDBRANCH   3  19
BRANCH  11  25
HETATM   25  O3  UNK     1       7.049   6.921   8.157  1.00  0.00    -0.361 OA
HETATM   26  H13 UNK     1       6.406   7.278   8.794  1.00  0.00     0.217 HD
ENDBRANCH  11  25
TORSDOF 3
ENDMDL
MODEL 10
REMARK VINA RESULT:      -7.2      4.058      7.267
REMARK  3 active torsions:
REMARK  status: ('A' for Active; 'I' for Inactive)
REMARK    1  A    between atoms: C13_17  and  O3_4 
REMARK    2  A    between atoms: C1_5  and  C4_8 
REMARK    3  A    between atoms: C3_7  and  C6_10 
ROOT
HETATM    1  O1  UNK     1      33.568  -8.148  33.296  1.00  0.00    -0.274 OA
HETATM    2  O2  UNK     1      32.600  -8.702  35.278  1.00  0.00    -0.259 OA
HETATM    3  C1  UNK     1      30.965  -7.831  32.192  1.00  0.00     0.004 A 
HETATM    4  C2  UNK     1      32.178  -7.607  31.377  1.00  0.00     0.010 A 
HETATM    5  C3  UNK     1      31.117  -8.194  33.490  1.00  0.00     0.063 A 
HETATM    6  C5  UNK     1      33.434  -7.772  31.952  1.00  0.00     0.093 A 
HETATM    7  C7  UNK     1      32.465  -8.370  34.103  1.00  0.00     0.300 A 
HETATM    8  C8  UNK     1      32.128  -7.230  30.027  1.00  0.00     0.018 A 
HETATM    9  C9  UNK     1      34.615  -7.575  31.235  1.00  0.00     0.074 A 
HETATM   10  C12 UNK     1      33.303  -7.028  29.294  1.00  0.00     0.037 A 
HETATM   11  C13 UNK     1      34.546  -7.201  29.898  1.00  0.00     0.068 A 
ENDROOT
BRANCH   5  12
HETATM   12  C6  UNK     1      29.951  -8.430  34.344  1.00  0.00     0.003 A 
HETATM   13  C14 UNK     1      29.435  -7.442  35.177  1.00  0.00     0.045 A 
HETATM   14 Cl1  UNK     1      30.130  -5.861  35.269  1.00  0.00    -0.083 Cl
HETATM   15  C18 UNK     1      28.321  -7.717  35.971  1.00  0.00     0.024 A 
HETATM   16  C21 UNK     1      27.728  -8.978  35.927  1.00  0.00     0.002 A 
HETATM   17  C19 UNK     1      28.248  -9.966  35.091  1.00  0.00     0.001 A 
HETATM   18  C15 UNK     1      29.362  -9.691  34.298  1.00  0.00     0.014 A 
ENDBRANCH   5  12
BRANCH   3  19
HETATM   19  C4  UNK     1      29.603  -7.680  31.667  1.00  0.00    -0.024 A 
HETATM   20  C10 UNK     1      29.000  -8.745  31.011  1.00  0.00     0.012 A 
HETATM   21  C16 UNK     1      27.704  -8.601  30.514  1.00  0.00     0.001 A 
HETATM   22  C20 UNK     1      27.023  -7.395  30.680  1.00  0.00     0.000 A 
HETATM   23  C17 UNK     1      27.639  -6.332  31.341  1.00  0.00     0.001 A 
HETATM   24  C11 UNK     1      28.934  -6.476  31.837  1.00  0.00     0.012 A 
ENDBRANCH   3  19
BRANCH  11  25
HETATM   25  O3  UNK     1      35.686  -7.004  29.183  1.00  0.00    -0.361 OA
HETATM   26  H13 UNK     1      36.452  -7.174  29.759  1.00  0.00     0.217 HD
ENDBRANCH  11  25
TORSDOF 3
ENDMDL
