MODEL 1
REMARK VINA RESULT:      -8.1      0.000      0.000
REMARK  3 active torsions:
REMARK  status: ('A' for Active; 'I' for Inactive)
REMARK    1  A    between atoms: C10_14  and  O3_3 
REMARK    2  A    between atoms: C13_17  and  O4_4 
REMARK    3  A    between atoms: C3_7  and  C4_8 
ROOT
HETATM    1  O1  UNK     1      19.036  -0.435  33.391  1.00  0.00    -0.309 OA
HETATM    2  O2  UNK     1      18.351   2.889  31.138  1.00  0.00    -0.287 OA
HETATM    3  C1  UNK     1      19.145   0.666  31.229  1.00  0.00     0.051 A 
HETATM    4  C2  UNK     1      19.353  -0.437  32.057  1.00  0.00     0.090 A 
HETATM    5  C3  UNK     1      18.494   0.718  33.940  1.00  0.00     0.090 A 
HETATM    6  C5  UNK     1      18.563   1.886  31.806  1.00  0.00     0.187 A 
HETATM    7  C6  UNK     1      18.242   1.838  33.247  1.00  0.00     0.093 A 
HETATM    8  C7  UNK     1      19.487   0.607  29.876  1.00  0.00     0.054 A 
HETATM    9  C8  UNK     1      19.903  -1.607  31.534  1.00  0.00     0.041 A 
HETATM   10  C10 UNK     1      20.039  -0.564  29.356  1.00  0.00     0.066 A 
HETATM   11  C12 UNK     1      20.245  -1.670  30.183  1.00  0.00     0.039 A 
ENDROOT
BRANCH   5  12
HETATM   12  C4  UNK     1      18.187   0.608  35.380  1.00  0.00     0.001 A 
HETATM   13  C11 UNK     1      17.851   1.748  36.114  1.00  0.00     0.014 A 
HETATM   14  C14 UNK     1      17.559   1.647  37.474  1.00  0.00     0.004 A 
HETATM   15  C15 UNK     1      17.603   0.403  38.105  1.00  0.00     0.036 A 
HETATM   16  C13 UNK     1      17.939  -0.737  37.376  1.00  0.00     0.066 A 
HETATM   17  C9  UNK     1      18.229  -0.635  36.016  1.00  0.00     0.050 A 
BRANCH  16  18
HETATM   18  O4  UNK     1      17.982  -1.950  37.992  1.00  0.00    -0.361 OA
HETATM   19  H10 UNK     1      17.165  -2.437  37.786  1.00  0.00     0.217 HD
ENDBRANCH  16  18
ENDBRANCH   5  12
BRANCH  10  20
HETATM   20  O3  UNK     1      20.375  -0.631  28.038  1.00  0.00    -0.361 OA
HETATM   21  H9  UNK     1      20.505   0.272  27.700  1.00  0.00     0.217 HD
ENDBRANCH  10  20
TORSDOF 3
ENDMDL
MODEL 2
REMARK VINA RESULT:      -8.1      2.825      5.278
REMARK  3 active torsions:
REMARK  status: ('A' for Active; 'I' for Inactive)
REMARK    1  A    between atoms: C10_14  and  O3_3 
REMARK    2  A    between atoms: C13_17  and  O4_4 
REMARK    3  A    between atoms: C3_7  and  C4_8 
ROOT
HETATM    1  O1  UNK     1      19.269   2.125  30.395  1.00  0.00    -0.309 OA
HETATM    2  O2  UNK     1      18.591  -0.128  33.721  1.00  0.00    -0.287 OA
HETATM    3  C1  UNK     1      19.387  -0.036  31.499  1.00  0.00     0.051 A 
HETATM    4  C2  UNK     1      19.593   0.792  30.396  1.00  0.00     0.090 A 
HETATM    5  C3  UNK     1      18.705   2.668  31.540  1.00  0.00     0.090 A 
HETATM    6  C5  UNK     1      18.797   0.539  32.716  1.00  0.00     0.187 A 
HETATM    7  C6  UNK     1      18.464   1.977  32.665  1.00  0.00     0.093 A 
HETATM    8  C7  UNK     1      19.736  -1.387  31.442  1.00  0.00     0.054 A 
HETATM    9  C8  UNK     1      20.152   0.272  29.229  1.00  0.00     0.041 A 
HETATM   10  C10 UNK     1      20.294  -1.905  30.273  1.00  0.00     0.066 A 
HETATM   11  C12 UNK     1      20.503  -1.077  29.168  1.00  0.00     0.039 A 
ENDROOT
BRANCH   5  12
HETATM   12  C4  UNK     1      18.401   4.109  31.433  1.00  0.00     0.001 A 
HETATM   13  C11 UNK     1      18.923   4.858  30.376  1.00  0.00     0.014 A 
HETATM   14  C14 UNK     1      18.637   6.219  30.272  1.00  0.00     0.004 A 
HETATM   15  C15 UNK     1      17.827   6.835  31.227  1.00  0.00     0.036 A 
HETATM   16  C13 UNK     1      17.305   6.091  32.284  1.00  0.00     0.066 A 
HETATM   17  C9  UNK     1      17.591   4.730  32.387  1.00  0.00     0.050 A 
BRANCH  16  18
HETATM   18  O4  UNK     1      16.516   6.692  33.216  1.00  0.00    -0.361 OA
HETATM   19  H10 UNK     1      15.632   6.834  32.835  1.00  0.00     0.217 HD
ENDBRANCH  16  18
ENDBRANCH   5  12
BRANCH  10  20
HETATM   20  O3  UNK     1      20.638  -3.221  30.209  1.00  0.00    -0.361 OA
HETATM   21  H9  UNK     1      19.848  -3.743  29.983  1.00  0.00     0.217 HD
ENDBRANCH  10  20
TORSDOF 3
ENDMDL
MODEL 3
REMARK VINA RESULT:      -8.1      1.602      2.643
REMARK  3 active torsions:
REMARK  status: ('A' for Active; 'I' for Inactive)
REMARK    1  A    between atoms: C10_14  and  O3_3 
REMARK    2  A    between atoms: C13_17  and  O4_4 
REMARK    3  A    between atoms: C3_7  and  C4_8 
ROOT
HETATM    1  O1  UNK     1      18.336   0.494  32.827  1.00  0.00    -0.309 OA
HETATM    2  O2  UNK     1      20.641  -2.865  32.821  1.00  0.00    -0.287 OA
HETATM    3  C1  UNK     1      19.866  -0.973  31.639  1.00  0.00     0.051 A 
HETATM    4  C2  UNK     1      19.058   0.162  31.709  1.00  0.00     0.090 A 
HETATM    5  C3  UNK     1      18.408  -0.342  33.931  1.00  0.00     0.090 A 
HETATM    6  C5  UNK     1      19.951  -1.855  32.812  1.00  0.00     0.187 A 
HETATM    7  C6  UNK     1      19.153  -1.457  33.989  1.00  0.00     0.093 A 
HETATM    8  C7  UNK     1      20.579  -1.261  30.474  1.00  0.00     0.054 A 
HETATM    9  C8  UNK     1      18.961   1.017  30.611  1.00  0.00     0.041 A 
HETATM   10  C10 UNK     1      20.480  -0.404  29.376  1.00  0.00     0.066 A 
HETATM   11  C12 UNK     1      19.673   0.733  29.445  1.00  0.00     0.039 A 
ENDROOT
BRANCH   5  12
HETATM   12  C4  UNK     1      17.597   0.111  35.079  1.00  0.00     0.001 A 
HETATM   13  C11 UNK     1      16.203   0.115  34.994  1.00  0.00     0.014 A 
HETATM   14  C14 UNK     1      15.435   0.542  36.078  1.00  0.00     0.004 A 
HETATM   15  C15 UNK     1      16.061   0.968  37.250  1.00  0.00     0.036 A 
HETATM   16  C13 UNK     1      17.452   0.966  37.338  1.00  0.00     0.066 A 
HETATM   17  C9  UNK     1      18.219   0.538  36.255  1.00  0.00     0.050 A 
BRANCH  16  18
HETATM   18  O4  UNK     1      18.062   1.382  38.482  1.00  0.00    -0.361 OA
HETATM   19  H10 UNK     1      18.803   0.783  38.678  1.00  0.00     0.217 HD
ENDBRANCH  16  18
ENDBRANCH   5  12
BRANCH  10  20
HETATM   20  O3  UNK     1      21.173  -0.677  28.236  1.00  0.00    -0.361 OA
HETATM   21  H9  UNK     1      20.540  -0.845  27.516  1.00  0.00     0.217 HD
ENDBRANCH  10  20
TORSDOF 3
ENDMDL
MODEL 4
REMARK VINA RESULT:      -8.0      2.263      3.871
REMARK  3 active torsions:
REMARK  status: ('A' for Active; 'I' for Inactive)
REMARK    1  A    between atoms: C10_14  and  O3_3 
REMARK    2  A    between atoms: C13_17  and  O4_4 
REMARK    3  A    between atoms: C3_7  and  C4_8 
ROOT
HETATM    1  O1  UNK     1      18.050   3.237  33.711  1.00  0.00    -0.309 OA
HETATM    2  O2  UNK     1      19.094   1.366  30.245  1.00  0.00    -0.287 OA
HETATM    3  C1  UNK     1      18.643   3.400  31.360  1.00  0.00     0.051 A 
HETATM    4  C2  UNK     1      18.284   3.976  32.579  1.00  0.00     0.090 A 
HETATM    5  C3  UNK     1      18.170   1.857  33.635  1.00  0.00     0.090 A 
HETATM    6  C5  UNK     1      18.779   1.938  31.280  1.00  0.00     0.187 A 
HETATM    7  C6  UNK     1      18.515   1.188  32.525  1.00  0.00     0.093 A 
HETATM    8  C7  UNK     1      18.868   4.202  30.240  1.00  0.00     0.054 A 
HETATM    9  C8  UNK     1      18.149   5.360  32.682  1.00  0.00     0.041 A 
HETATM   10  C10 UNK     1      18.732   5.586  30.346  1.00  0.00     0.066 A 
HETATM   11  C12 UNK     1      18.373   6.164  31.565  1.00  0.00     0.039 A 
ENDROOT
BRANCH   5  12
HETATM   12  C4  UNK     1      17.903   1.163  34.911  1.00  0.00     0.001 A 
HETATM   13  C11 UNK     1      17.785   1.893  36.096  1.00  0.00     0.014 A 
HETATM   14  C14 UNK     1      17.532   1.238  37.301  1.00  0.00     0.004 A 
HETATM   15  C15 UNK     1      17.397  -0.150  37.325  1.00  0.00     0.036 A 
HETATM   16  C13 UNK     1      17.516  -0.883  36.144  1.00  0.00     0.066 A 
HETATM   17  C9  UNK     1      17.768  -0.228  34.940  1.00  0.00     0.050 A 
BRANCH  16  18
HETATM   18  O4  UNK     1      17.385  -2.237  36.168  1.00  0.00    -0.361 OA
HETATM   19  H10 UNK     1      16.615  -2.489  35.629  1.00  0.00     0.217 HD
ENDBRANCH  16  18
ENDBRANCH   5  12
BRANCH  10  20
HETATM   20  O3  UNK     1      18.950   6.376  29.258  1.00  0.00    -0.361 OA
HETATM   21  H9  UNK     1      18.095   6.580  28.840  1.00  0.00     0.217 HD
ENDBRANCH  10  20
TORSDOF 3
ENDMDL
MODEL 5
REMARK VINA RESULT:      -7.9     14.160     16.913
REMARK  3 active torsions:
REMARK  status: ('A' for Active; 'I' for Inactive)
REMARK    1  A    between atoms: C10_14  and  O3_3 
REMARK    2  A    between atoms: C13_17  and  O4_4 
REMARK    3  A    between atoms: C3_7  and  C4_8 
ROOT
HETATM    1  O1  UNK     1      20.474  -1.937  17.471  1.00  0.00    -0.309 OA
HETATM    2  O2  UNK     1      17.731  -3.286  14.778  1.00  0.00    -0.287 OA
HETATM    3  C1  UNK     1      19.831  -3.595  15.816  1.00  0.00     0.051 A 
HETATM    4  C2  UNK     1      20.726  -3.079  16.753  1.00  0.00     0.090 A 
HETATM    5  C3  UNK     1      19.282  -1.265  17.247  1.00  0.00     0.090 A 
HETATM    6  C5  UNK     1      18.563  -2.889  15.583  1.00  0.00     0.187 A 
HETATM    7  C6  UNK     1      18.341  -1.665  16.378  1.00  0.00     0.093 A 
HETATM    8  C7  UNK     1      20.140  -4.761  15.113  1.00  0.00     0.054 A 
HETATM    9  C8  UNK     1      21.935  -3.729  16.994  1.00  0.00     0.041 A 
HETATM   10  C10 UNK     1      21.352  -5.410  15.356  1.00  0.00     0.066 A 
HETATM   11  C12 UNK     1      22.247  -4.895  16.295  1.00  0.00     0.039 A 
ENDROOT
BRANCH   5  12
HETATM   12  C4  UNK     1      19.112  -0.055  18.076  1.00  0.00     0.001 A 
HETATM   13  C11 UNK     1      18.987  -0.167  19.463  1.00  0.00     0.014 A 
HETATM   14  C14 UNK     1      18.827   0.976  20.247  1.00  0.00     0.004 A 
HETATM   15  C15 UNK     1      18.791   2.234  19.646  1.00  0.00     0.036 A 
HETATM   16  C13 UNK     1      18.915   2.350  18.262  1.00  0.00     0.066 A 
HETATM   17  C9  UNK     1      19.076   1.208  17.478  1.00  0.00     0.050 A 
BRANCH  16  18
HETATM   18  O4  UNK     1      18.879   3.578  17.676  1.00  0.00    -0.361 OA
HETATM   19  H10 UNK     1      18.866   4.258  18.371  1.00  0.00     0.217 HD
ENDBRANCH  16  18
ENDBRANCH   5  12
BRANCH  10  20
HETATM   20  O3  UNK     1      21.661  -6.549  14.675  1.00  0.00    -0.361 OA
HETATM   21  H9  UNK     1      22.244  -7.098  15.228  1.00  0.00     0.217 HD
ENDBRANCH  10  20
TORSDOF 3
ENDMDL
MODEL 6
REMARK VINA RESULT:      -7.8      1.421      6.311
REMARK  3 active torsions:
REMARK  status: ('A' for Active; 'I' for Inactive)
REMARK    1  A    between atoms: C10_14  and  O3_3 
REMARK    2  A    between atoms: C13_17  and  O4_4 
REMARK    3  A    between atoms: C3_7  and  C4_8 
ROOT
HETATM    1  O1  UNK     1      18.967  -0.361  33.582  1.00  0.00    -0.309 OA
HETATM    2  O2  UNK     1      17.827   3.522  34.050  1.00  0.00    -0.287 OA
HETATM    3  C1  UNK     1      18.168   1.406  35.045  1.00  0.00     0.051 A 
HETATM    4  C2  UNK     1      18.572   0.091  34.815  1.00  0.00     0.090 A 
HETATM    5  C3  UNK     1      18.957   0.528  32.518  1.00  0.00     0.090 A 
HETATM    6  C5  UNK     1      18.165   2.353  33.920  1.00  0.00     0.187 A 
HETATM    7  C6  UNK     1      18.597   1.817  32.614  1.00  0.00     0.093 A 
HETATM    8  C7  UNK     1      17.775   1.811  36.322  1.00  0.00     0.054 A 
HETATM    9  C8  UNK     1      18.585  -0.827  35.864  1.00  0.00     0.041 A 
HETATM   10  C10 UNK     1      17.789   0.890  37.371  1.00  0.00     0.066 A 
HETATM   11  C12 UNK     1      18.194  -0.427  37.142  1.00  0.00     0.039 A 
ENDROOT
BRANCH   5  12
HETATM   12  C4  UNK     1      19.406  -0.061  31.241  1.00  0.00     0.001 A 
HETATM   13  C11 UNK     1      19.312   0.676  30.058  1.00  0.00     0.014 A 
HETATM   14  C14 UNK     1      19.736   0.121  28.850  1.00  0.00     0.004 A 
HETATM   15  C15 UNK     1      20.256  -1.173  28.822  1.00  0.00     0.036 A 
HETATM   16  C13 UNK     1      20.351  -1.912  30.001  1.00  0.00     0.066 A 
HETATM   17  C9  UNK     1      19.927  -1.357  31.208  1.00  0.00     0.050 A 
BRANCH  16  18
HETATM   18  O4  UNK     1      20.857  -3.175  29.973  1.00  0.00    -0.361 OA
HETATM   19  H10 UNK     1      20.947  -3.498  30.887  1.00  0.00     0.217 HD
ENDBRANCH  16  18
ENDBRANCH   5  12
BRANCH  10  20
HETATM   20  O3  UNK     1      17.407   1.276  38.620  1.00  0.00    -0.361 OA
HETATM   21  H9  UNK     1      17.406   0.497  39.203  1.00  0.00     0.217 HD
ENDBRANCH  10  20
TORSDOF 3
ENDMDL
MODEL 7
REMARK VINA RESULT:      -7.8     24.510     26.813
REMARK  3 active torsions:
REMARK  status: ('A' for Active; 'I' for Inactive)
REMARK    1  A    between atoms: C10_14  and  O3_3 
REMARK    2  A    between atoms: C13_17  and  O4_4 
REMARK    3  A    between atoms: C3_7  and  C4_8 
ROOT
HETATM    1  O1  UNK     1      12.901   6.433   8.496  1.00  0.00    -0.309 OA
HETATM    2  O2  UNK     1      13.826  10.108   9.992  1.00  0.00    -0.287 OA
HETATM    3  C1  UNK     1      14.529   7.896   9.551  1.00  0.00     0.051 A 
HETATM    4  C2  UNK     1      14.147   6.663   9.022  1.00  0.00     0.090 A 
HETATM    5  C3  UNK     1      11.981   7.471   8.499  1.00  0.00     0.090 A 
HETATM    6  C5  UNK     1      13.558   9.000   9.547  1.00  0.00     0.187 A 
HETATM    7  C6  UNK     1      12.231   8.701   8.973  1.00  0.00     0.093 A 
HETATM    8  C7  UNK     1      15.812   8.073  10.074  1.00  0.00     0.054 A 
HETATM    9  C8  UNK     1      15.049   5.600   9.012  1.00  0.00     0.041 A 
HETATM   10  C10 UNK     1      16.712   7.007  10.064  1.00  0.00     0.066 A 
HETATM   11  C12 UNK     1      16.331   5.773   9.533  1.00  0.00     0.039 A 
ENDROOT
BRANCH   5  12
HETATM   12  C4  UNK     1      10.677   7.117   7.905  1.00  0.00     0.001 A 
HETATM   13  C11 UNK     1      10.623   6.448   6.680  1.00  0.00     0.014 A 
HETATM   14  C14 UNK     1       9.391   6.112   6.118  1.00  0.00     0.004 A 
HETATM   15  C15 UNK     1       8.209   6.444   6.780  1.00  0.00     0.036 A 
HETATM   16  C13 UNK     1       8.259   7.112   8.003  1.00  0.00     0.066 A 
HETATM   17  C9  UNK     1       9.490   7.447   8.564  1.00  0.00     0.050 A 
BRANCH  16  18
HETATM   18  O4  UNK     1       7.105   7.437   8.648  1.00  0.00    -0.361 OA
HETATM   19  H10 UNK     1       6.696   6.623   8.990  1.00  0.00     0.217 HD
ENDBRANCH  16  18
ENDBRANCH   5  12
BRANCH  10  20
HETATM   20  O3  UNK     1      17.965   7.170  10.571  1.00  0.00    -0.361 OA
HETATM   21  H9  UNK     1      18.605   6.745   9.974  1.00  0.00     0.217 HD
ENDBRANCH  10  20
TORSDOF 3
ENDMDL
MODEL 8
REMARK VINA RESULT:      -7.7     24.597     26.708
REMARK  3 active torsions:
REMARK  status: ('A' for Active; 'I' for Inactive)
REMARK    1  A    between atoms: C10_14  and  O3_3 
REMARK    2  A    between atoms: C13_17  and  O4_4 
REMARK    3  A    between atoms: C3_7  and  C4_8 
ROOT
HETATM    1  O1  UNK     1      13.158   7.449   8.457  1.00  0.00    -0.309 OA
HETATM    2  O2  UNK     1      15.229   4.145   9.639  1.00  0.00    -0.287 OA
HETATM    3  C1  UNK     1      15.176   6.496   9.419  1.00  0.00     0.051 A 
HETATM    4  C2  UNK     1      14.413   7.584   8.995  1.00  0.00     0.090 A 
HETATM    5  C3  UNK     1      12.632   6.173   8.323  1.00  0.00     0.090 A 
HETATM    6  C5  UNK     1      14.616   5.143   9.286  1.00  0.00     0.187 A 
HETATM    7  C6  UNK     1      13.264   5.051   8.699  1.00  0.00     0.093 A 
HETATM    8  C7  UNK     1      16.448   6.694   9.959  1.00  0.00     0.054 A 
HETATM    9  C8  UNK     1      14.920   8.878   9.111  1.00  0.00     0.041 A 
HETATM   10  C10 UNK     1      16.953   7.990  10.074  1.00  0.00     0.066 A 
HETATM   11  C12 UNK     1      16.190   9.080   9.651  1.00  0.00     0.039 A 
ENDROOT
BRANCH   5  12
HETATM   12  C4  UNK     1      11.276   6.143   7.739  1.00  0.00     0.001 A 
HETATM   13  C11 UNK     1      11.108   6.204   6.354  1.00  0.00     0.014 A 
HETATM   14  C14 UNK     1       9.828   6.175   5.801  1.00  0.00     0.004 A 
HETATM   15  C15 UNK     1       8.711   6.086   6.632  1.00  0.00     0.036 A 
HETATM   16  C13 UNK     1       8.875   6.025   8.016  1.00  0.00     0.066 A 
HETATM   17  C9  UNK     1      10.155   6.053   8.568  1.00  0.00     0.050 A 
BRANCH  16  18
HETATM   18  O4  UNK     1       7.785   5.938   8.826  1.00  0.00    -0.361 OA
HETATM   19  H10 UNK     1       7.027   6.354   8.380  1.00  0.00     0.217 HD
ENDBRANCH  16  18
ENDBRANCH   5  12
BRANCH  10  20
HETATM   20  O3  UNK     1      18.193   8.193  10.599  1.00  0.00    -0.361 OA
HETATM   21  H9  UNK     1      18.859   7.845   9.981  1.00  0.00     0.217 HD
ENDBRANCH  10  20
TORSDOF 3
ENDMDL
MODEL 9
REMARK VINA RESULT:      -7.7     13.435     18.347
REMARK  3 active torsions:
REMARK  status: ('A' for Active; 'I' for Inactive)
REMARK    1  A    between atoms: C10_14  and  O3_3 
REMARK    2  A    between atoms: C13_17  and  O4_4 
REMARK    3  A    between atoms: C3_7  and  C4_8 
ROOT
HETATM    1  O1  UNK     1      19.080  -0.824  16.843  1.00  0.00    -0.309 OA
HETATM    2  O2  UNK     1      19.432   3.176  16.156  1.00  0.00    -0.287 OA
HETATM    3  C1  UNK     1      19.147   1.437  17.730  1.00  0.00     0.051 A 
HETATM    4  C2  UNK     1      19.034   0.056  17.894  1.00  0.00     0.090 A 
HETATM    5  C3  UNK     1      19.238  -0.316  15.562  1.00  0.00     0.090 A 
HETATM    6  C5  UNK     1      19.324   1.977  16.374  1.00  0.00     0.187 A 
HETATM    7  C6  UNK     1      19.365   0.989  15.277  1.00  0.00     0.093 A 
HETATM    8  C7  UNK     1      19.092   2.286  18.837  1.00  0.00     0.054 A 
HETATM    9  C8  UNK     1      18.866  -0.482  19.169  1.00  0.00     0.041 A 
HETATM   10  C10 UNK     1      18.924   1.745  20.112  1.00  0.00     0.066 A 
HETATM   11  C12 UNK     1      18.812   0.363  20.278  1.00  0.00     0.039 A 
ENDROOT
BRANCH   5  12
HETATM   12  C4  UNK     1      19.281  -1.350  14.509  1.00  0.00     0.001 A 
HETATM   13  C11 UNK     1      19.559  -2.678  14.841  1.00  0.00     0.014 A 
HETATM   14  C14 UNK     1      19.599  -3.656  13.847  1.00  0.00     0.004 A 
HETATM   15  C15 UNK     1      19.361  -3.308  12.517  1.00  0.00     0.036 A 
HETATM   16  C13 UNK     1      19.083  -1.983  12.182  1.00  0.00     0.066 A 
HETATM   17  C9  UNK     1      19.043  -1.007  13.176  1.00  0.00     0.050 A 
BRANCH  16  18
HETATM   18  O4  UNK     1      18.851  -1.645  10.884  1.00  0.00    -0.361 OA
HETATM   19  H10 UNK     1      19.579  -1.080  10.571  1.00  0.00     0.217 HD
ENDBRANCH  16  18
ENDBRANCH   5  12
BRANCH  10  20
HETATM   20  O3  UNK     1      18.870   2.565  21.197  1.00  0.00    -0.361 OA
HETATM   21  H9  UNK     1      18.124   2.295  21.760  1.00  0.00     0.217 HD
ENDBRANCH  10  20
TORSDOF 3
ENDMDL
MODEL 10
REMARK VINA RESULT:      -7.7      2.402      6.532
REMARK  3 active torsions:
REMARK  status: ('A' for Active; 'I' for Inactive)
REMARK    1  A    between atoms: C10_14  and  O3_3 
REMARK    2  A    between atoms: C13_17  and  O4_4 
REMARK    3  A    between atoms: C3_7  and  C4_8 
ROOT
HETATM    1  O1  UNK     1      18.080   2.814  34.897  1.00  0.00    -0.309 OA
HETATM    2  O2  UNK     1      18.352  -0.743  32.930  1.00  0.00    -0.287 OA
HETATM    3  C1  UNK     1      18.087   0.386  34.988  1.00  0.00     0.051 A 
HETATM    4  C2  UNK     1      18.000   1.637  35.598  1.00  0.00     0.090 A 
HETATM    5  C3  UNK     1      18.262   2.753  33.524  1.00  0.00     0.090 A 
HETATM    6  C5  UNK     1      18.271   0.320  33.531  1.00  0.00     0.187 A 
HETATM    7  C6  UNK     1      18.353   1.613  32.823  1.00  0.00     0.093 A 
HETATM    8  C7  UNK     1      18.000  -0.779  35.752  1.00  0.00     0.054 A 
HETATM    9  C8  UNK     1      17.825   1.729  36.979  1.00  0.00     0.041 A 
HETATM   10  C10 UNK     1      17.824  -0.685  37.134  1.00  0.00     0.066 A 
HETATM   11  C12 UNK     1      17.736   0.567  37.745  1.00  0.00     0.039 A 
ENDROOT
BRANCH   5  12
HETATM   12  C4  UNK     1      18.328   4.075  32.870  1.00  0.00     0.001 A 
HETATM   13  C11 UNK     1      18.103   5.237  33.612  1.00  0.00     0.014 A 
HETATM   14  C14 UNK     1      18.166   6.487  32.996  1.00  0.00     0.004 A 
HETATM   15  C15 UNK     1      18.452   6.578  31.634  1.00  0.00     0.036 A 
HETATM   16  C13 UNK     1      18.676   5.421  30.889  1.00  0.00     0.066 A 
HETATM   17  C9  UNK     1      18.614   4.172  31.506  1.00  0.00     0.050 A 
BRANCH  16  18
HETATM   18  O4  UNK     1      18.956   5.511  29.560  1.00  0.00    -0.361 OA
HETATM   19  H10 UNK     1      18.123   5.459  29.059  1.00  0.00     0.217 HD
ENDBRANCH  16  18
ENDBRANCH   5  12
BRANCH  10  20
HETATM   20  O3  UNK     1      17.738  -1.816  37.887  1.00  0.00    -0.361 OA
HETATM   21  H9  UNK     1      18.630  -2.066  38.185  1.00  0.00     0.217 HD
ENDBRANCH  10  20
TORSDOF 3
ENDMDL
