MODEL 1
REMARK VINA RESULT:      -9.8      0.000      0.000
REMARK  1 active torsions:
REMARK  status: ('A' for Active; 'I' for Inactive)
REMARK    1  A    between atoms: C11_15  and  O3_3 
ROOT
HETATM    1  O1  UNK     1      11.368   6.473   9.153  1.00  0.00    -0.306 OA
HETATM    2  O2  UNK     1      16.349   5.776  10.025  1.00  0.00    -0.275 OA
HETATM    3  O4  UNK     1      15.877   3.540   9.995  1.00  0.00    -0.260 OA
HETATM    4  C1  UNK     1      13.770   6.230   8.919  1.00  0.00     0.017 A 
HETATM    5  C2  UNK     1      14.677   7.354   9.212  1.00  0.00     0.012 A 
HETATM    6  C3  UNK     1      12.475   6.338   8.373  1.00  0.00     0.088 A 
HETATM    7  C4  UNK     1      10.715   6.464   6.991  1.00  0.00     0.003 A 
HETATM    8  C5  UNK     1      10.297   6.550   8.314  1.00  0.00     0.119 A 
HETATM    9  C6  UNK     1      12.127   6.327   7.039  1.00  0.00     0.052 A 
HETATM   10  C7  UNK     1      15.933   7.093   9.754  1.00  0.00     0.090 A 
HETATM   11  C8  UNK     1      14.332   8.692   8.970  1.00  0.00     0.022 A 
HETATM   12  C9  UNK     1      14.200   4.986   9.191  1.00  0.00     0.097 A 
HETATM   13  C10 UNK     1      15.229   9.722   9.265  1.00  0.00    -0.061 A 
HETATM   14  C11 UNK     1       8.967   6.694   8.707  1.00  0.00     0.102 A 
HETATM   15  C12 UNK     1       9.744   6.526   5.975  1.00  0.00     0.014 A 
HETATM   16  C13 UNK     1      16.839   8.112  10.055  1.00  0.00     0.039 A 
HETATM   17  C14 UNK     1      16.481   9.433   9.806  1.00  0.00     0.009 A 
HETATM   18  C15 UNK     1      15.526   4.692   9.765  1.00  0.00     0.289 A 
HETATM   19  C16 UNK     1       8.019   6.754   7.682  1.00  0.00     0.040 A 
HETATM   20  C17 UNK     1       8.398   6.670   6.339  1.00  0.00     0.004 A 
HETATM   21  C18 UNK     1      14.846  11.140   9.000  1.00  0.00     0.048 C 
ENDROOT
BRANCH  14  22
HETATM   22  O3  UNK     1       8.594   6.775  10.016  1.00  0.00    -0.353 OA
HETATM   23  C19 UNK     1       7.385   6.117  10.387  1.00  0.00     0.210 C 
ENDBRANCH  14  22
TORSDOF 1
ENDMDL
MODEL 2
REMARK VINA RESULT:      -9.3     23.454     25.432
REMARK  1 active torsions:
REMARK  status: ('A' for Active; 'I' for Inactive)
REMARK    1  A    between atoms: C11_15  and  O3_3 
ROOT
HETATM    1  O1  UNK     1      16.982   5.373  32.781  1.00  0.00    -0.306 OA
HETATM    2  O2  UNK     1      18.654   0.773  31.332  1.00  0.00    -0.275 OA
HETATM    3  O4  UNK     1      18.783   1.660  29.230  1.00  0.00    -0.260 OA
HETATM    4  C1  UNK     1      18.345   3.420  32.319  1.00  0.00     0.017 A 
HETATM    5  C2  UNK     1      18.351   2.267  33.236  1.00  0.00     0.012 A 
HETATM    6  C3  UNK     1      18.200   4.771  32.696  1.00  0.00     0.088 A 
HETATM    7  C4  UNK     1      18.562   6.890  33.332  1.00  0.00     0.003 A 
HETATM    8  C5  UNK     1      17.200   6.662  33.168  1.00  0.00     0.119 A 
HETATM    9  C6  UNK     1      19.201   5.660  33.025  1.00  0.00     0.052 A 
HETATM   10  C7  UNK     1      18.504   0.984  32.716  1.00  0.00     0.090 A 
HETATM   11  C8  UNK     1      18.206   2.399  34.624  1.00  0.00     0.022 A 
HETATM   12  C9  UNK     1      18.490   3.182  31.004  1.00  0.00     0.097 A 
HETATM   13  C10 UNK     1      18.219   1.272  35.452  1.00  0.00    -0.061 A 
HETATM   14  C11 UNK     1      16.215   7.625  33.374  1.00  0.00     0.102 A 
HETATM   15  C12 UNK     1      18.985   8.170  33.732  1.00  0.00     0.014 A 
HETATM   16  C13 UNK     1      18.518  -0.150  33.529  1.00  0.00     0.039 A 
HETATM   17  C14 UNK     1      18.375  -0.001  34.905  1.00  0.00     0.009 A 
HETATM   18  C15 UNK     1      18.653   1.830  30.437  1.00  0.00     0.289 A 
HETATM   19  C16 UNK     1      16.657   8.891  33.771  1.00  0.00     0.040 A 
HETATM   20  C17 UNK     1      18.016   9.162  33.947  1.00  0.00     0.004 A 
HETATM   21  C18 UNK     1      18.064   1.432  36.927  1.00  0.00     0.048 C 
ENDROOT
BRANCH  14  22
HETATM   22  O3  UNK     1      14.887   7.365  33.203  1.00  0.00    -0.353 OA
HETATM   23  C19 UNK     1      14.414   7.270  31.861  1.00  0.00     0.210 C 
ENDBRANCH  14  22
TORSDOF 1
ENDMDL
MODEL 3
REMARK VINA RESULT:      -9.2     24.353     26.520
REMARK  1 active torsions:
REMARK  status: ('A' for Active; 'I' for Inactive)
REMARK    1  A    between atoms: C11_15  and  O3_3 
ROOT
HETATM    1  O1  UNK     1      19.105   0.217  34.662  1.00  0.00    -0.306 OA
HETATM    2  O2  UNK     1      21.009  -2.601  30.856  1.00  0.00    -0.275 OA
HETATM    3  O4  UNK     1      21.421  -4.185  32.450  1.00  0.00    -0.260 OA
HETATM    4  C1  UNK     1      19.377  -1.260  32.757  1.00  0.00     0.017 A 
HETATM    5  C2  UNK     1      19.557  -0.718  31.398  1.00  0.00     0.012 A 
HETATM    6  C3  UNK     1      18.594  -0.681  33.776  1.00  0.00     0.088 A 
HETATM    7  C4  UNK     1      16.924  -0.100  35.155  1.00  0.00     0.003 A 
HETATM    8  C5  UNK     1      18.091   0.572  35.500  1.00  0.00     0.119 A 
HETATM    9  C6  UNK     1      17.259  -0.909  34.037  1.00  0.00     0.052 A 
HETATM   10  C7  UNK     1      20.364  -1.403  30.494  1.00  0.00     0.090 A 
HETATM   11  C8  UNK     1      18.948   0.469  30.967  1.00  0.00     0.022 A 
HETATM   12  C9  UNK     1      20.007  -2.405  33.068  1.00  0.00     0.097 A 
HETATM   13  C10 UNK     1      19.151   0.941  29.666  1.00  0.00    -0.061 A 
HETATM   14  C11 UNK     1      18.190   1.475  36.557  1.00  0.00     0.102 A 
HETATM   15  C12 UNK     1      15.763   0.138  35.911  1.00  0.00     0.014 A 
HETATM   16  C13 UNK     1      20.577  -0.944  29.192  1.00  0.00     0.039 A 
HETATM   17  C14 UNK     1      19.964   0.235  28.780  1.00  0.00     0.009 A 
HETATM   18  C15 UNK     1      20.866  -3.142  32.122  1.00  0.00     0.289 A 
HETATM   19  C16 UNK     1      17.024   1.698  37.296  1.00  0.00     0.040 A 
HETATM   20  C17 UNK     1      15.831   1.042  36.982  1.00  0.00     0.004 A 
HETATM   21  C18 UNK     1      18.495   2.206  29.223  1.00  0.00     0.048 C 
ENDROOT
BRANCH  14  22
HETATM   22  O3  UNK     1      19.353   2.117  36.867  1.00  0.00    -0.353 OA
HETATM   23  C19 UNK     1      19.766   3.165  35.994  1.00  0.00     0.210 C 
ENDBRANCH  14  22
TORSDOF 1
ENDMDL
MODEL 4
REMARK VINA RESULT:      -8.7     28.187     30.577
REMARK  1 active torsions:
REMARK  status: ('A' for Active; 'I' for Inactive)
REMARK    1  A    between atoms: C11_15  and  O3_3 
ROOT
HETATM    1  O1  UNK     1      19.531  -2.502  35.570  1.00  0.00    -0.306 OA
HETATM    2  O2  UNK     1      21.546  -6.661  37.738  1.00  0.00    -0.275 OA
HETATM    3  O4  UNK     1      23.127  -5.251  38.595  1.00  0.00    -0.260 OA
HETATM    4  C1  UNK     1      20.022  -4.365  37.045  1.00  0.00     0.017 A 
HETATM    5  C2  UNK     1      19.527  -5.719  36.744  1.00  0.00     0.012 A 
HETATM    6  C3  UNK     1      19.352  -3.160  36.749  1.00  0.00     0.088 A 
HETATM    7  C4  UNK     1      18.056  -1.331  36.819  1.00  0.00     0.003 A 
HETATM    8  C5  UNK     1      18.743  -1.391  35.611  1.00  0.00     0.119 A 
HETATM    9  C6  UNK     1      18.457  -2.481  37.548  1.00  0.00     0.052 A 
HETATM   10  C7  UNK     1      20.302  -6.821  37.099  1.00  0.00     0.090 A 
HETATM   11  C8  UNK     1      18.300  -5.957  36.109  1.00  0.00     0.022 A 
HETATM   12  C9  UNK     1      21.213  -4.249  37.657  1.00  0.00     0.097 A 
HETATM   13  C10 UNK     1      17.876  -7.263  35.846  1.00  0.00    -0.061 A 
HETATM   14  C11 UNK     1      18.629  -0.439  34.599  1.00  0.00     0.102 A 
HETATM   15  C12 UNK     1      17.189  -0.248  37.045  1.00  0.00     0.014 A 
HETATM   16  C13 UNK     1      19.893  -8.131  36.841  1.00  0.00     0.039 A 
HETATM   17  C14 UNK     1      18.671  -8.349  36.212  1.00  0.00     0.009 A 
HETATM   18  C15 UNK     1      22.046  -5.404  38.037  1.00  0.00     0.289 A 
HETATM   19  C16 UNK     1      17.762   0.629  34.844  1.00  0.00     0.040 A 
HETATM   20  C17 UNK     1      17.054   0.726  36.045  1.00  0.00     0.004 A 
HETATM   21  C18 UNK     1      16.567  -7.498  35.170  1.00  0.00     0.048 C 
ENDROOT
BRANCH  14  22
HETATM   22  O3  UNK     1      19.319  -0.530  33.426  1.00  0.00    -0.353 OA
HETATM   23  C19 UNK     1      18.739  -1.326  32.394  1.00  0.00     0.210 C 
ENDBRANCH  14  22
TORSDOF 1
ENDMDL
MODEL 5
REMARK VINA RESULT:      -8.5      2.702      8.251
REMARK  1 active torsions:
REMARK  status: ('A' for Active; 'I' for Inactive)
REMARK    1  A    between atoms: C11_15  and  O3_3 
ROOT
HETATM    1  O1  UNK     1       9.337   6.004   9.607  1.00  0.00    -0.306 OA
HETATM    2  O2  UNK     1       5.273   6.948  12.549  1.00  0.00    -0.275 OA
HETATM    3  O4  UNK     1       6.043   9.097  12.643  1.00  0.00    -0.260 OA
HETATM    4  C1  UNK     1       7.106   6.494  10.424  1.00  0.00     0.017 A 
HETATM    5  C2  UNK     1       6.222   5.417  10.903  1.00  0.00     0.012 A 
HETATM    6  C3  UNK     1       8.049   6.382   9.382  1.00  0.00     0.088 A 
HETATM    7  C4  UNK     1       9.084   6.373   7.393  1.00  0.00     0.003 A 
HETATM    8  C5  UNK     1       9.967   5.997   8.399  1.00  0.00     0.119 A 
HETATM    9  C6  UNK     1       7.844   6.620   8.040  1.00  0.00     0.052 A 
HETATM   10  C7  UNK     1       5.336   5.677  11.947  1.00  0.00     0.090 A 
HETATM   11  C8  UNK     1       6.228   4.127  10.354  1.00  0.00     0.022 A 
HETATM   12  C9  UNK     1       7.019   7.695  11.022  1.00  0.00     0.097 A 
HETATM   13  C10 UNK     1       5.368   3.141  10.844  1.00  0.00    -0.061 A 
HETATM   14  C11 UNK     1      11.304   5.665   8.182  1.00  0.00     0.102 A 
HETATM   15  C12 UNK     1       9.556   6.426   6.070  1.00  0.00     0.014 A 
HETATM   16  C13 UNK     1       4.472   4.701  12.448  1.00  0.00     0.039 A 
HETATM   17  C14 UNK     1       4.491   3.427  11.890  1.00  0.00     0.009 A 
HETATM   18  C15 UNK     1       6.088   7.986  12.128  1.00  0.00     0.289 A 
HETATM   19  C16 UNK     1      11.752   5.724   6.860  1.00  0.00     0.040 A 
HETATM   20  C17 UNK     1      10.896   6.098   5.820  1.00  0.00     0.004 A 
HETATM   21  C18 UNK     1       5.388   1.773  10.247  1.00  0.00     0.048 C 
ENDROOT
BRANCH  14  22
HETATM   22  O3  UNK     1      12.142   5.301   9.194  1.00  0.00    -0.353 OA
HETATM   23  C19 UNK     1      12.962   6.323   9.755  1.00  0.00     0.210 C 
ENDBRANCH  14  22
TORSDOF 1
ENDMDL
MODEL 6
REMARK VINA RESULT:      -8.5     23.078     25.028
REMARK  1 active torsions:
REMARK  status: ('A' for Active; 'I' for Inactive)
REMARK    1  A    between atoms: C11_15  and  O3_3 
ROOT
HETATM    1  O1  UNK     1      18.302   4.449  33.099  1.00  0.00    -0.306 OA
HETATM    2  O2  UNK     1      18.291   9.420  34.257  1.00  0.00    -0.275 OA
HETATM    3  O4  UNK     1      20.547   9.195  34.540  1.00  0.00    -0.260 OA
HETATM    4  C1  UNK     1      18.298   6.873  32.998  1.00  0.00     0.017 A 
HETATM    5  C2  UNK     1      17.047   7.635  33.156  1.00  0.00     0.012 A 
HETATM    6  C3  UNK     1      18.418   5.606  32.391  1.00  0.00     0.088 A 
HETATM    7  C4  UNK     1      18.693   3.921  30.938  1.00  0.00     0.003 A 
HETATM    8  C5  UNK     1      18.469   3.424  32.217  1.00  0.00     0.119 A 
HETATM    9  C6  UNK     1      18.659   5.335  31.061  1.00  0.00     0.052 A 
HETATM   10  C7  UNK     1      17.082   8.880  33.779  1.00  0.00     0.090 A 
HETATM   11  C8  UNK     1      15.806   7.161  32.706  1.00  0.00     0.022 A 
HETATM   12  C9  UNK     1      19.433   7.419  33.466  1.00  0.00     0.097 A 
HETATM   13  C10 UNK     1      14.648   7.924  32.881  1.00  0.00    -0.061 A 
HETATM   14  C11 UNK     1      18.424   2.067  32.532  1.00  0.00     0.102 A 
HETATM   15  C12 UNK     1      18.889   3.007  29.887  1.00  0.00     0.014 A 
HETATM   16  C13 UNK     1      15.933   9.653  33.961  1.00  0.00     0.039 A 
HETATM   17  C14 UNK     1      14.711   9.168  33.507  1.00  0.00     0.009 A 
HETATM   18  C15 UNK     1      19.488   8.735  34.128  1.00  0.00     0.289 A 
HETATM   19  C16 UNK     1      18.620   1.176  31.473  1.00  0.00     0.040 A 
HETATM   20  C17 UNK     1      18.850   1.635  30.173  1.00  0.00     0.004 A 
HETATM   21  C18 UNK     1      13.335   7.405  32.395  1.00  0.00     0.048 C 
ENDROOT
BRANCH  14  22
HETATM   22  O3  UNK     1      18.201   1.615  33.800  1.00  0.00    -0.353 OA
HETATM   23  C19 UNK     1      18.258   0.206  34.004  1.00  0.00     0.210 C 
ENDBRANCH  14  22
TORSDOF 1
ENDMDL
MODEL 7
REMARK VINA RESULT:      -8.4     27.464     29.858
REMARK  1 active torsions:
REMARK  status: ('A' for Active; 'I' for Inactive)
REMARK    1  A    between atoms: C11_15  and  O3_3 
ROOT
HETATM    1  O1  UNK     1      18.469  -3.970  36.521  1.00  0.00    -0.306 OA
HETATM    2  O2  UNK     1      17.680   1.019  35.789  1.00  0.00    -0.275 OA
HETATM    3  O4  UNK     1      17.113   1.090  38.001  1.00  0.00    -0.260 OA
HETATM    4  C1  UNK     1      18.744  -1.576  36.250  1.00  0.00     0.017 A 
HETATM    5  C2  UNK     1      18.792  -0.966  34.909  1.00  0.00     0.012 A 
HETATM    6  C3  UNK     1      19.239  -2.851  36.592  1.00  0.00     0.088 A 
HETATM    7  C4  UNK     1      20.524  -4.568  37.243  1.00  0.00     0.003 A 
HETATM    8  C5  UNK     1      19.249  -5.016  36.915  1.00  0.00     0.119 A 
HETATM    9  C6  UNK     1      20.508  -3.165  37.030  1.00  0.00     0.052 A 
HETATM   10  C7  UNK     1      18.260   0.308  34.721  1.00  0.00     0.090 A 
HETATM   11  C8  UNK     1      19.353  -1.613  33.799  1.00  0.00     0.022 A 
HETATM   12  C9  UNK     1      18.183  -0.868  37.245  1.00  0.00     0.097 A 
HETATM   13  C10 UNK     1      19.373  -0.991  32.548  1.00  0.00    -0.061 A 
HETATM   14  C11 UNK     1      18.845  -6.348  36.988  1.00  0.00     0.102 A 
HETATM   15  C12 UNK     1      21.476  -5.509  37.675  1.00  0.00     0.014 A 
HETATM   16  C13 UNK     1      18.273   0.942  33.477  1.00  0.00     0.039 A 
HETATM   17  C14 UNK     1      18.835   0.285  32.387  1.00  0.00     0.009 A 
HETATM   18  C15 UNK     1      17.615   0.480  37.063  1.00  0.00     0.289 A 
HETATM   19  C16 UNK     1      19.806  -7.267  37.419  1.00  0.00     0.040 A 
HETATM   20  C17 UNK     1      21.099  -6.858  37.758  1.00  0.00     0.004 A 
HETATM   21  C18 UNK     1      19.975  -1.694  31.377  1.00  0.00     0.048 C 
ENDROOT
BRANCH  14  22
HETATM   22  O3  UNK     1      17.585  -6.751  36.658  1.00  0.00    -0.353 OA
HETATM   23  C19 UNK     1      17.430  -7.447  35.423  1.00  0.00     0.210 C 
ENDBRANCH  14  22
TORSDOF 1
ENDMDL
MODEL 8
REMARK VINA RESULT:      -8.1     30.538     33.697
REMARK  1 active torsions:
REMARK  status: ('A' for Active; 'I' for Inactive)
REMARK    1  A    between atoms: C11_15  and  O3_3 
ROOT
HETATM    1  O1  UNK     1      29.920  -7.606  33.005  1.00  0.00    -0.306 OA
HETATM    2  O2  UNK     1      32.394  -4.723  36.414  1.00  0.00    -0.275 OA
HETATM    3  O4  UNK     1      33.720  -4.080  34.668  1.00  0.00    -0.260 OA
HETATM    4  C1  UNK     1      30.597  -5.827  34.509  1.00  0.00     0.017 A 
HETATM    5  C2  UNK     1      30.312  -5.907  35.953  1.00  0.00     0.012 A 
HETATM    6  C3  UNK     1      29.780  -6.338  33.480  1.00  0.00     0.088 A 
HETATM    7  C4  UNK     1      28.240  -6.607  31.873  1.00  0.00     0.003 A 
HETATM    8  C5  UNK     1      28.984  -7.772  32.029  1.00  0.00     0.119 A 
HETATM    9  C6  UNK     1      28.763  -5.685  32.817  1.00  0.00     0.052 A 
HETATM   10  C7  UNK     1      31.216  -5.354  36.857  1.00  0.00     0.090 A 
HETATM   11  C8  UNK     1      29.161  -6.520  36.467  1.00  0.00     0.022 A 
HETATM   12  C9  UNK     1      31.731  -5.217  34.123  1.00  0.00     0.097 A 
HETATM   13  C10 UNK     1      28.937  -6.569  37.847  1.00  0.00    -0.061 A 
HETATM   14  C11 UNK     1      28.785  -8.932  31.283  1.00  0.00     0.102 A 
HETATM   15  C12 UNK     1      27.220  -6.586  30.906  1.00  0.00     0.014 A 
HETATM   16  C13 UNK     1      31.006  -5.396  38.237  1.00  0.00     0.039 A 
HETATM   17  C14 UNK     1      29.858  -6.007  38.730  1.00  0.00     0.009 A 
HETATM   18  C15 UNK     1      32.698  -4.628  35.067  1.00  0.00     0.289 A 
HETATM   19  C16 UNK     1      27.766  -8.889  30.327  1.00  0.00     0.040 A 
HETATM   20  C17 UNK     1      26.996  -7.738  30.139  1.00  0.00     0.004 A 
HETATM   21  C18 UNK     1      27.706  -7.225  38.377  1.00  0.00     0.048 C 
ENDROOT
BRANCH  14  22
HETATM   22  O3  UNK     1      29.535 -10.057  31.463  1.00  0.00    -0.353 OA
HETATM   23  C19 UNK     1      30.286 -10.521  30.343  1.00  0.00     0.210 C 
ENDBRANCH  14  22
TORSDOF 1
ENDMDL
MODEL 9
REMARK VINA RESULT:      -8.1     24.928     26.495
REMARK  1 active torsions:
REMARK  status: ('A' for Active; 'I' for Inactive)
REMARK    1  A    between atoms: C11_15  and  O3_3 
ROOT
HETATM    1  O1  UNK     1      14.782  10.272  35.644  1.00  0.00    -0.306 OA
HETATM    2  O2  UNK     1      15.977   6.766  32.133  1.00  0.00    -0.275 OA
HETATM    3  O4  UNK     1      13.738   6.689  31.682  1.00  0.00    -0.260 OA
HETATM    4  C1  UNK     1      15.490   9.138  33.621  1.00  0.00     0.017 A 
HETATM    5  C2  UNK     1      16.852   8.588  33.498  1.00  0.00     0.012 A 
HETATM    6  C3  UNK     1      15.135  10.303  34.330  1.00  0.00     0.088 A 
HETATM    7  C4  UNK     1      14.677  12.414  34.933  1.00  0.00     0.003 A 
HETATM    8  C5  UNK     1      14.504  11.555  36.013  1.00  0.00     0.119 A 
HETATM    9  C6  UNK     1      15.086  11.594  33.848  1.00  0.00     0.052 A 
HETATM   10  C7  UNK     1      17.051   7.423  32.761  1.00  0.00     0.090 A 
HETATM   11  C8  UNK     1      17.970   9.185  34.096  1.00  0.00     0.022 A 
HETATM   12  C9  UNK     1      14.488   8.485  33.008  1.00  0.00     0.097 A 
HETATM   13  C10 UNK     1      19.241   8.623  33.949  1.00  0.00    -0.061 A 
HETATM   14  C11 UNK     1      14.103  11.966  37.283  1.00  0.00     0.102 A 
HETATM   15  C12 UNK     1      14.436  13.786  35.121  1.00  0.00     0.014 A 
HETATM   16  C13 UNK     1      18.315   6.849  32.607  1.00  0.00     0.039 A 
HETATM   17  C14 UNK     1      19.414   7.456  33.205  1.00  0.00     0.009 A 
HETATM   18  C15 UNK     1      14.682   7.251  32.225  1.00  0.00     0.289 A 
HETATM   19  C16 UNK     1      13.868  13.334  37.448  1.00  0.00     0.040 A 
HETATM   20  C17 UNK     1      14.030  14.230  36.388  1.00  0.00     0.004 A 
HETATM   21  C18 UNK     1      20.421   9.273  34.592  1.00  0.00     0.048 C 
ENDROOT
BRANCH  14  22
HETATM   22  O3  UNK     1      13.943  11.094  38.319  1.00  0.00    -0.353 OA
HETATM   23  C19 UNK     1      12.742  11.204  39.079  1.00  0.00     0.210 C 
ENDBRANCH  14  22
TORSDOF 1
ENDMDL
MODEL 10
REMARK VINA RESULT:      -8.1     32.901     35.108
REMARK  1 active torsions:
REMARK  status: ('A' for Active; 'I' for Inactive)
REMARK    1  A    between atoms: C11_15  and  O3_3 
ROOT
HETATM    1  O1  UNK     1      26.553  -8.477  36.348  1.00  0.00    -0.306 OA
HETATM    2  O2  UNK     1      22.977 -12.023  35.520  1.00  0.00    -0.275 OA
HETATM    3  O4  UNK     1      24.712 -13.497  35.322  1.00  0.00    -0.260 OA
HETATM    4  C1  UNK     1      24.821 -10.155  36.608  1.00  0.00     0.017 A 
HETATM    5  C2  UNK     1      23.399  -9.807  36.446  1.00  0.00     0.012 A 
HETATM    6  C3  UNK     1      25.820  -9.311  37.135  1.00  0.00     0.088 A 
HETATM    7  C4  UNK     1      27.240  -8.220  38.484  1.00  0.00     0.003 A 
HETATM    8  C5  UNK     1      27.416  -7.812  37.166  1.00  0.00     0.119 A 
HETATM    9  C6  UNK     1      26.204  -9.190  38.453  1.00  0.00     0.052 A 
HETATM   10  C7  UNK     1      22.524 -10.748  35.908  1.00  0.00     0.090 A 
HETATM   11  C8  UNK     1      22.876  -8.557  36.809  1.00  0.00     0.022 A 
HETATM   12  C9  UNK     1      25.218 -11.382  36.227  1.00  0.00     0.097 A 
HETATM   13  C10 UNK     1      21.518  -8.277  36.634  1.00  0.00    -0.061 A 
HETATM   14  C11 UNK     1      28.349  -6.859  36.761  1.00  0.00     0.102 A 
HETATM   15  C12 UNK     1      28.046  -7.641  39.480  1.00  0.00     0.014 A 
HETATM   16  C13 UNK     1      21.166 -10.482  35.727  1.00  0.00     0.039 A 
HETATM   17  C14 UNK     1      20.663  -9.238  36.095  1.00  0.00     0.009 A 
HETATM   18  C15 UNK     1      24.306 -12.389  35.656  1.00  0.00     0.289 A 
HETATM   19  C16 UNK     1      29.140  -6.296  37.767  1.00  0.00     0.040 A 
HETATM   20  C17 UNK     1      28.994  -6.679  39.103  1.00  0.00     0.004 A 
HETATM   21  C18 UNK     1      20.978  -6.942  37.027  1.00  0.00     0.048 C 
ENDROOT
BRANCH  14  22
HETATM   22  O3  UNK     1      28.494  -6.484  35.458  1.00  0.00    -0.353 OA
HETATM   23  C19 UNK     1      29.820  -6.225  35.003  1.00  0.00     0.210 C 
ENDBRANCH  14  22
TORSDOF 1
ENDMDL
