MODEL 1
REMARK VINA RESULT:      -9.4      0.000      0.000
REMARK  5 active torsions:
REMARK  status: ('A' for Active; 'I' for Inactive)
REMARK    1  A    between atoms: C9_16  and  O2_2 
REMARK    2  A    between atoms: C18_25  and  O5_5 
REMARK    3  A    between atoms: C2_9  and  N1_7 
REMARK       I    between atoms: C7_14  and  N1_7 
REMARK    4  A    between atoms: C4_11  and  C7_14 
REMARK    5  A    between atoms: C11_18  and  C18_25 
ROOT
HETATM    1  O3  UNK     1      17.132   4.534  31.211  1.00  0.00    -0.267 OA
HETATM    2  N1  UNK     1      18.664   4.770  32.983  1.00  0.00    -0.322 N 
HETATM    3  C7  UNK     1      17.997   4.099  31.969  1.00  0.00     0.262 C 
HETATM    4  H2  UNK     1      19.337   4.244  33.531  1.00  0.00     0.169 HD
ENDROOT
BRANCH   3   5
HETATM    5  C4  UNK     1      18.434   2.703  31.849  1.00  0.00     0.108 A 
HETATM    6  C13 UNK     1      18.393   1.766  32.995  1.00  0.00     0.304 A 
HETATM    7  O1  UNK     1      18.832   0.467  32.755  1.00  0.00    -0.271 OA
HETATM    8  O4  UNK     1      17.991   2.111  34.101  1.00  0.00    -0.259 OA
HETATM    9  C3  UNK     1      19.297   0.060  31.490  1.00  0.00     0.123 A 
HETATM   10  C1  UNK     1      19.328   0.957  30.427  1.00  0.00     0.002 A 
HETATM   11  C9  UNK     1      19.718  -1.261  31.348  1.00  0.00     0.102 A 
HETATM   12  C6  UNK     1      18.874   2.321  30.644  1.00  0.00     0.037 A 
HETATM   13  C10 UNK     1      19.796   0.516  29.186  1.00  0.00     0.014 A 
HETATM   14  C17 UNK     1      20.221  -0.806  29.029  1.00  0.00     0.004 A 
HETATM   15  C16 UNK     1      20.182  -1.692  30.107  1.00  0.00     0.040 A 
BRANCH  11  16
HETATM   16  O2  UNK     1      19.681  -2.127  32.395  1.00  0.00    -0.353 OA
HETATM   17  C19 UNK     1      20.934  -2.566  32.921  1.00  0.00     0.210 C 
ENDBRANCH  11  16
ENDBRANCH   3   5
BRANCH   2  18
HETATM   18  C2  UNK     1      18.499   6.121  33.379  1.00  0.00     0.042 A 
HETATM   19  C5  UNK     1      19.588   6.977  33.405  1.00  0.00    -0.035 A 
HETATM   20  C12 UNK     1      19.406   8.304  33.795  1.00  0.00     0.010 A 
HETATM   21  C15 UNK     1      20.959   6.518  33.024  1.00  0.00     0.050 C 
HETATM   22  C14 UNK     1      18.136   8.757  34.154  1.00  0.00     0.018 A 
HETATM   23  C11 UNK     1      17.049   7.883  34.123  1.00  0.00     0.041 A 
HETATM   24  C8  UNK     1      17.232   6.557  33.732  1.00  0.00     0.047 A 
BRANCH  23  25
HETATM   25  C18 UNK     1      15.727   8.357  34.498  1.00  0.00     0.293 C 
HETATM   26  O6  UNK     1      14.668   7.802  34.177  1.00  0.00    -0.259 OA
BRANCH  25  27
HETATM   27  O5  UNK     1      15.795   9.495  35.254  1.00  0.00    -0.323 OA
HETATM   28  C20 UNK     1      14.625  10.319  35.291  1.00  0.00     0.213 C 
ENDBRANCH  25  27
ENDBRANCH  23  25
ENDBRANCH   2  18
TORSDOF 5
ENDMDL
MODEL 2
REMARK VINA RESULT:      -9.2      5.810     12.506
REMARK  5 active torsions:
REMARK  status: ('A' for Active; 'I' for Inactive)
REMARK    1  A    between atoms: C9_16  and  O2_2 
REMARK    2  A    between atoms: C18_25  and  O5_5 
REMARK    3  A    between atoms: C2_9  and  N1_7 
REMARK       I    between atoms: C7_14  and  N1_7 
REMARK    4  A    between atoms: C4_11  and  C7_14 
REMARK    5  A    between atoms: C11_18  and  C18_25 
ROOT
HETATM    1  O3  UNK     1      20.558  -4.224  37.876  1.00  0.00    -0.267 OA
HETATM    2  N1  UNK     1      19.361  -5.100  36.047  1.00  0.00    -0.322 N 
HETATM    3  C7  UNK     1      19.871  -4.101  36.863  1.00  0.00     0.262 C 
HETATM    4  H2  UNK     1      18.789  -4.816  35.259  1.00  0.00     0.169 HD
ENDROOT
BRANCH   3   5
HETATM    5  C4  UNK     1      19.500  -2.760  36.394  1.00  0.00     0.108 A 
HETATM    6  C13 UNK     1      19.871  -2.269  35.047  1.00  0.00     0.304 A 
HETATM    7  O1  UNK     1      19.461  -0.981  34.717  1.00  0.00    -0.271 OA
HETATM    8  O4  UNK     1      20.508  -2.959  34.258  1.00  0.00    -0.259 OA
HETATM    9  C3  UNK     1      18.731  -0.180  35.616  1.00  0.00     0.123 A 
HETATM   10  C1  UNK     1      18.393  -0.660  36.877  1.00  0.00     0.002 A 
HETATM   11  C9  UNK     1      18.365   1.098  35.196  1.00  0.00     0.102 A 
HETATM   12  C6  UNK     1      18.805  -2.003  37.252  1.00  0.00     0.037 A 
HETATM   13  C10 UNK     1      17.668   0.165  37.741  1.00  0.00     0.014 A 
HETATM   14  C17 UNK     1      17.294   1.448  37.333  1.00  0.00     0.004 A 
HETATM   15  C16 UNK     1      17.642   1.913  36.063  1.00  0.00     0.040 A 
BRANCH  11  16
HETATM   16  O2  UNK     1      18.702   1.555  33.960  1.00  0.00    -0.353 OA
HETATM   17  C19 UNK     1      18.288   2.879  33.622  1.00  0.00     0.210 C 
ENDBRANCH  11  16
ENDBRANCH   3   5
BRANCH   2  18
HETATM   18  C2  UNK     1      19.519  -6.500  36.195  1.00  0.00     0.042 A 
HETATM   19  C5  UNK     1      18.408  -7.313  36.354  1.00  0.00    -0.035 A 
HETATM   20  C12 UNK     1      18.583  -8.690  36.497  1.00  0.00     0.010 A 
HETATM   21  C15 UNK     1      17.022  -6.756  36.375  1.00  0.00     0.050 C 
HETATM   22  C14 UNK     1      19.867  -9.235  36.479  1.00  0.00     0.018 A 
HETATM   23  C11 UNK     1      20.975  -8.404  36.319  1.00  0.00     0.041 A 
HETATM   24  C8  UNK     1      20.800  -7.027  36.176  1.00  0.00     0.047 A 
BRANCH  23  25
HETATM   25  C18 UNK     1      22.313  -8.974  36.301  1.00  0.00     0.293 C 
HETATM   26  O6  UNK     1      23.253  -8.573  37.000  1.00  0.00    -0.259 OA
BRANCH  25  27
HETATM   27  O5  UNK     1      22.406 -10.013  35.417  1.00  0.00    -0.323 OA
HETATM   28  C20 UNK     1      23.123 -11.173  35.854  1.00  0.00     0.213 C 
ENDBRANCH  25  27
ENDBRANCH  23  25
ENDBRANCH   2  18
TORSDOF 5
ENDMDL
MODEL 3
REMARK VINA RESULT:      -9.0      5.542      9.285
REMARK  5 active torsions:
REMARK  status: ('A' for Active; 'I' for Inactive)
REMARK    1  A    between atoms: C9_16  and  O2_2 
REMARK    2  A    between atoms: C18_25  and  O5_5 
REMARK    3  A    between atoms: C2_9  and  N1_7 
REMARK       I    between atoms: C7_14  and  N1_7 
REMARK    4  A    between atoms: C4_11  and  C7_14 
REMARK    5  A    between atoms: C11_18  and  C18_25 
ROOT
HETATM    1  O3  UNK     1      21.243  -2.664  35.881  1.00  0.00    -0.267 OA
HETATM    2  N1  UNK     1      18.903  -2.689  36.141  1.00  0.00    -0.322 N 
HETATM    3  C7  UNK     1      20.178  -3.235  36.111  1.00  0.00     0.262 C 
HETATM    4  H2  UNK     1      18.127  -3.317  36.326  1.00  0.00     0.169 HD
ENDROOT
BRANCH   3   5
HETATM    5  C4  UNK     1      20.171  -4.674  36.400  1.00  0.00     0.108 A 
HETATM    6  C13 UNK     1      20.257  -5.690  35.327  1.00  0.00     0.304 A 
HETATM    7  O1  UNK     1      20.243  -7.024  35.728  1.00  0.00    -0.271 OA
HETATM    8  O4  UNK     1      20.339  -5.379  34.144  1.00  0.00    -0.259 OA
HETATM    9  C3  UNK     1      20.148  -7.392  37.083  1.00  0.00     0.123 A 
HETATM   10  C1  UNK     1      20.067  -6.421  38.076  1.00  0.00     0.002 A 
HETATM   11  C9  UNK     1      20.139  -8.752  37.386  1.00  0.00     0.102 A 
HETATM   12  C6  UNK     1      20.081  -5.018  37.691  1.00  0.00     0.037 A 
HETATM   13  C10 UNK     1      19.974  -6.825  39.410  1.00  0.00     0.014 A 
HETATM   14  C17 UNK     1      19.965  -8.186  39.729  1.00  0.00     0.004 A 
HETATM   15  C16 UNK     1      20.047  -9.147  38.719  1.00  0.00     0.040 A 
BRANCH  11  16
HETATM   16  O2  UNK     1      20.220  -9.692  36.406  1.00  0.00    -0.353 OA
HETATM   17  C19 UNK     1      21.230 -10.691  36.545  1.00  0.00     0.210 C 
ENDBRANCH  11  16
ENDBRANCH   3   5
BRANCH   2  18
HETATM   18  C2  UNK     1      18.536  -1.340  35.912  1.00  0.00     0.042 A 
HETATM   19  C5  UNK     1      18.115  -0.545  36.966  1.00  0.00    -0.035 A 
HETATM   20  C12 UNK     1      17.758   0.782  36.722  1.00  0.00     0.010 A 
HETATM   21  C15 UNK     1      18.031  -1.069  38.363  1.00  0.00     0.050 C 
HETATM   22  C14 UNK     1      17.829   1.296  35.427  1.00  0.00     0.018 A 
HETATM   23  C11 UNK     1      18.254   0.483  34.376  1.00  0.00     0.041 A 
HETATM   24  C8  UNK     1      18.611  -0.844  34.621  1.00  0.00     0.047 A 
BRANCH  23  25
HETATM   25  C18 UNK     1      18.326   1.020  33.027  1.00  0.00     0.293 C 
HETATM   26  O6  UNK     1      17.872   2.120  32.686  1.00  0.00    -0.259 OA
BRANCH  25  27
HETATM   27  O5  UNK     1      18.963   0.158  32.176  1.00  0.00    -0.323 OA
HETATM   28  C20 UNK     1      19.403   0.694  30.923  1.00  0.00     0.213 C 
ENDBRANCH  25  27
ENDBRANCH  23  25
ENDBRANCH   2  18
TORSDOF 5
ENDMDL
MODEL 4
REMARK VINA RESULT:      -9.0     15.054     19.635
REMARK  5 active torsions:
REMARK  status: ('A' for Active; 'I' for Inactive)
REMARK    1  A    between atoms: C9_16  and  O2_2 
REMARK    2  A    between atoms: C18_25  and  O5_5 
REMARK    3  A    between atoms: C2_9  and  N1_7 
REMARK       I    between atoms: C7_14  and  N1_7 
REMARK    4  A    between atoms: C4_11  and  C7_14 
REMARK    5  A    between atoms: C11_18  and  C18_25 
ROOT
HETATM    1  O3  UNK     1      17.676  -2.392  16.081  1.00  0.00    -0.267 OA
HETATM    2  N1  UNK     1      19.750  -1.936  15.063  1.00  0.00    -0.322 N 
HETATM    3  C7  UNK     1      18.709  -1.735  15.957  1.00  0.00     0.262 C 
HETATM    4  H2  UNK     1      20.521  -1.277  15.084  1.00  0.00     0.169 HD
ENDROOT
BRANCH   3   5
HETATM    5  C4  UNK     1      18.943  -0.577  16.828  1.00  0.00     0.108 A 
HETATM    6  C13 UNK     1      19.153   0.784  16.285  1.00  0.00     0.304 A 
HETATM    7  O1  UNK     1      19.363   1.801  17.212  1.00  0.00    -0.271 OA
HETATM    8  O4  UNK     1      19.141   1.011  15.080  1.00  0.00    -0.259 OA
HETATM    9  C3  UNK     1      19.380   1.552  18.598  1.00  0.00     0.123 A 
HETATM   10  C1  UNK     1      19.182   0.265  19.087  1.00  0.00     0.002 A 
HETATM   11  C9  UNK     1      19.600   2.634  19.448  1.00  0.00     0.102 A 
HETATM   12  C6  UNK     1      18.957  -0.819  18.145  1.00  0.00     0.037 A 
HETATM   13  C10 UNK     1      19.205   0.058  20.469  1.00  0.00     0.014 A 
HETATM   14  C17 UNK     1      19.425   1.133  21.334  1.00  0.00     0.004 A 
HETATM   15  C16 UNK     1      19.621   2.418  20.824  1.00  0.00     0.040 A 
BRANCH  11  16
HETATM   16  O2  UNK     1      19.792   3.887  18.957  1.00  0.00    -0.353 OA
HETATM   17  C19 UNK     1      21.120   4.237  18.566  1.00  0.00     0.210 C 
ENDBRANCH  11  16
ENDBRANCH   3   5
BRANCH   2  18
HETATM   18  C2  UNK     1      19.862  -2.952  14.082  1.00  0.00     0.042 A 
HETATM   19  C5  UNK     1      20.344  -4.205  14.429  1.00  0.00    -0.035 A 
HETATM   20  C12 UNK     1      20.445  -5.194  13.450  1.00  0.00     0.010 A 
HETATM   21  C15 UNK     1      20.759  -4.529  15.828  1.00  0.00     0.050 C 
HETATM   22  C14 UNK     1      20.063  -4.917  12.138  1.00  0.00     0.018 A 
HETATM   23  C11 UNK     1      19.580  -3.652  11.804  1.00  0.00     0.041 A 
HETATM   24  C8  UNK     1      19.478  -2.663  12.783  1.00  0.00     0.047 A 
BRANCH  23  25
HETATM   25  C18 UNK     1      19.183  -3.365  10.434  1.00  0.00     0.293 C 
HETATM   26  O6  UNK     1      19.839  -2.670   9.647  1.00  0.00    -0.259 OA
BRANCH  25  27
HETATM   27  O5  UNK     1      17.992  -3.960  10.120  1.00  0.00    -0.323 OA
HETATM   28  C20 UNK     1      17.991  -4.853   9.001  1.00  0.00     0.213 C 
ENDBRANCH  25  27
ENDBRANCH  23  25
ENDBRANCH   2  18
TORSDOF 5
ENDMDL
MODEL 5
REMARK VINA RESULT:      -8.9      5.935     12.298
REMARK  5 active torsions:
REMARK  status: ('A' for Active; 'I' for Inactive)
REMARK    1  A    between atoms: C9_16  and  O2_2 
REMARK    2  A    between atoms: C18_25  and  O5_5 
REMARK    3  A    between atoms: C2_9  and  N1_7 
REMARK       I    between atoms: C7_14  and  N1_7 
REMARK    4  A    between atoms: C4_11  and  C7_14 
REMARK    5  A    between atoms: C11_18  and  C18_25 
ROOT
HETATM    1  O3  UNK     1      21.405  -4.240  37.152  1.00  0.00    -0.267 OA
HETATM    2  N1  UNK     1      19.798  -5.400  35.879  1.00  0.00    -0.322 N 
HETATM    3  C7  UNK     1      20.430  -4.281  36.403  1.00  0.00     0.262 C 
HETATM    4  H2  UNK     1      18.985  -5.248  35.291  1.00  0.00     0.169 HD
ENDROOT
BRANCH   3   5
HETATM    5  C4  UNK     1      19.798  -3.032  35.962  1.00  0.00     0.108 A 
HETATM    6  C13 UNK     1      19.999  -2.489  34.599  1.00  0.00     0.304 A 
HETATM    7  O1  UNK     1      19.345  -1.297  34.299  1.00  0.00    -0.271 OA
HETATM    8  O4  UNK     1      20.704  -3.057  33.772  1.00  0.00    -0.259 OA
HETATM    9  C3  UNK     1      18.534  -0.636  35.241  1.00  0.00     0.123 A 
HETATM   10  C1  UNK     1      18.359  -1.163  36.516  1.00  0.00     0.002 A 
HETATM   11  C9  UNK     1      17.922   0.553  34.849  1.00  0.00     0.102 A 
HETATM   12  C6  UNK     1      19.027  -2.408  36.861  1.00  0.00     0.037 A 
HETATM   13  C10 UNK     1      17.547  -0.478  37.425  1.00  0.00     0.014 A 
HETATM   14  C17 UNK     1      16.926   0.715  37.044  1.00  0.00     0.004 A 
HETATM   15  C16 UNK     1      17.113   1.228  35.759  1.00  0.00     0.040 A 
BRANCH  11  16
HETATM   16  O2  UNK     1      18.100   1.057  33.599  1.00  0.00    -0.353 OA
HETATM   17  C19 UNK     1      18.165   2.477  33.473  1.00  0.00     0.210 C 
ENDBRANCH  11  16
ENDBRANCH   3   5
BRANCH   2  18
HETATM   18  C2  UNK     1      20.136  -6.759  36.090  1.00  0.00     0.042 A 
HETATM   19  C5  UNK     1      20.564  -7.543  35.029  1.00  0.00    -0.035 A 
HETATM   20  C12 UNK     1      20.894  -8.879  35.256  1.00  0.00     0.010 A 
HETATM   21  C15 UNK     1      20.685  -6.995  33.644  1.00  0.00     0.050 C 
HETATM   22  C14 UNK     1      20.791  -9.415  36.540  1.00  0.00     0.018 A 
HETATM   23  C11 UNK     1      20.359  -8.614  37.597  1.00  0.00     0.041 A 
HETATM   24  C8  UNK     1      20.029  -7.277  37.370  1.00  0.00     0.047 A 
BRANCH  23  25
HETATM   25  C18 UNK     1      20.251  -9.174  38.935  1.00  0.00     0.293 C 
HETATM   26  O6  UNK     1      19.660 -10.226  39.207  1.00  0.00    -0.259 OA
BRANCH  25  27
HETATM   27  O5  UNK     1      20.889  -8.393  39.860  1.00  0.00    -0.323 OA
HETATM   28  C20 UNK     1      22.320  -8.388  39.825  1.00  0.00     0.213 C 
ENDBRANCH  25  27
ENDBRANCH  23  25
ENDBRANCH   2  18
TORSDOF 5
ENDMDL
MODEL 6
REMARK VINA RESULT:      -8.9     14.572     19.516
REMARK  5 active torsions:
REMARK  status: ('A' for Active; 'I' for Inactive)
REMARK    1  A    between atoms: C9_16  and  O2_2 
REMARK    2  A    between atoms: C18_25  and  O5_5 
REMARK    3  A    between atoms: C2_9  and  N1_7 
REMARK       I    between atoms: C7_14  and  N1_7 
REMARK    4  A    between atoms: C4_11  and  C7_14 
REMARK    5  A    between atoms: C11_18  and  C18_25 
ROOT
HETATM    1  O3  UNK     1      17.701  -2.397  16.090  1.00  0.00    -0.267 OA
HETATM    2  N1  UNK     1      19.763  -1.920  15.058  1.00  0.00    -0.322 N 
HETATM    3  C7  UNK     1      18.727  -1.731  15.962  1.00  0.00     0.262 C 
HETATM    4  H2  UNK     1      20.529  -1.254  15.077  1.00  0.00     0.169 HD
ENDROOT
BRANCH   3   5
HETATM    5  C4  UNK     1      18.958  -0.575  16.835  1.00  0.00     0.108 A 
HETATM    6  C13 UNK     1      19.161   0.789  16.297  1.00  0.00     0.304 A 
HETATM    7  O1  UNK     1      19.370   1.804  17.226  1.00  0.00    -0.271 OA
HETATM    8  O4  UNK     1      19.146   1.019  15.092  1.00  0.00    -0.259 OA
HETATM    9  C3  UNK     1      19.390   1.550  18.611  1.00  0.00     0.123 A 
HETATM   10  C1  UNK     1      19.199   0.261  19.097  1.00  0.00     0.002 A 
HETATM   11  C9  UNK     1      19.608   2.630  19.465  1.00  0.00     0.102 A 
HETATM   12  C6  UNK     1      18.976  -0.821  18.151  1.00  0.00     0.037 A 
HETATM   13  C10 UNK     1      19.226   0.049  20.478  1.00  0.00     0.014 A 
HETATM   14  C17 UNK     1      19.443   1.123  21.346  1.00  0.00     0.004 A 
HETATM   15  C16 UNK     1      19.633   2.410  20.840  1.00  0.00     0.040 A 
BRANCH  11  16
HETATM   16  O2  UNK     1      19.793   3.886  18.977  1.00  0.00    -0.353 OA
HETATM   17  C19 UNK     1      21.109   4.226  18.540  1.00  0.00     0.210 C 
ENDBRANCH  11  16
ENDBRANCH   3   5
BRANCH   2  18
HETATM   18  C2  UNK     1      19.876  -2.931  14.073  1.00  0.00     0.042 A 
HETATM   19  C5  UNK     1      19.536  -2.661  12.756  1.00  0.00    -0.035 A 
HETATM   20  C12 UNK     1      19.655  -3.669  11.799  1.00  0.00     0.010 A 
HETATM   21  C15 UNK     1      19.045  -1.316  12.331  1.00  0.00     0.050 C 
HETATM   22  C14 UNK     1      20.112  -4.933  12.171  1.00  0.00     0.018 A 
HETATM   23  C11 UNK     1      20.450  -5.190  13.499  1.00  0.00     0.041 A 
HETATM   24  C8  UNK     1      20.332  -4.182  14.457  1.00  0.00     0.047 A 
BRANCH  23  25
HETATM   25  C18 UNK     1      20.926  -6.509  13.885  1.00  0.00     0.293 C 
HETATM   26  O6  UNK     1      21.688  -6.727  14.837  1.00  0.00    -0.259 OA
BRANCH  25  27
HETATM   27  O5  UNK     1      20.426  -7.484  13.067  1.00  0.00    -0.323 OA
HETATM   28  C20 UNK     1      21.289  -8.588  12.773  1.00  0.00     0.213 C 
ENDBRANCH  25  27
ENDBRANCH  23  25
ENDBRANCH   2  18
TORSDOF 5
ENDMDL
MODEL 7
REMARK VINA RESULT:      -8.8      5.340     11.314
REMARK  5 active torsions:
REMARK  status: ('A' for Active; 'I' for Inactive)
REMARK    1  A    between atoms: C9_16  and  O2_2 
REMARK    2  A    between atoms: C18_25  and  O5_5 
REMARK    3  A    between atoms: C2_9  and  N1_7 
REMARK       I    between atoms: C7_14  and  N1_7 
REMARK    4  A    between atoms: C4_11  and  C7_14 
REMARK    5  A    between atoms: C11_18  and  C18_25 
ROOT
HETATM    1  O3  UNK     1      20.262  -2.761  37.335  1.00  0.00    -0.267 OA
HETATM    2  N1  UNK     1      19.699  -4.576  35.946  1.00  0.00    -0.322 N 
HETATM    3  C7  UNK     1      19.928  -3.243  36.254  1.00  0.00     0.262 C 
HETATM    4  H2  UNK     1      19.403  -4.795  35.000  1.00  0.00     0.169 HD
ENDROOT
BRANCH   3   5
HETATM    5  C4  UNK     1      19.726  -2.364  35.096  1.00  0.00     0.108 A 
HETATM    6  C13 UNK     1      18.969  -1.096  35.196  1.00  0.00     0.304 A 
HETATM    7  O1  UNK     1      18.847  -0.348  34.028  1.00  0.00    -0.271 OA
HETATM    8  O4  UNK     1      18.473  -0.718  36.252  1.00  0.00    -0.259 OA
HETATM    9  C3  UNK     1      19.411  -0.773  32.810  1.00  0.00     0.123 A 
HETATM   10  C1  UNK     1      20.118  -1.969  32.738  1.00  0.00     0.002 A 
HETATM   11  C9  UNK     1      19.235   0.042  31.694  1.00  0.00     0.102 A 
HETATM   12  C6  UNK     1      20.265  -2.773  33.941  1.00  0.00     0.037 A 
HETATM   13  C10 UNK     1      20.663  -2.358  31.512  1.00  0.00     0.014 A 
HETATM   14  C17 UNK     1      20.494  -1.550  30.384  1.00  0.00     0.004 A 
HETATM   15  C16 UNK     1      19.782  -0.352  30.476  1.00  0.00     0.040 A 
BRANCH  11  16
HETATM   16  O2  UNK     1      18.542   1.210  31.779  1.00  0.00    -0.353 OA
HETATM   17  C19 UNK     1      18.683   2.129  30.696  1.00  0.00     0.210 C 
ENDBRANCH  11  16
ENDBRANCH   3   5
BRANCH   2  18
HETATM   18  C2  UNK     1      19.800  -5.693  36.812  1.00  0.00     0.042 A 
HETATM   19  C5  UNK     1      18.684  -6.471  37.077  1.00  0.00    -0.035 A 
HETATM   20  C12 UNK     1      18.803  -7.567  37.931  1.00  0.00     0.010 A 
HETATM   21  C15 UNK     1      17.351  -6.168  36.472  1.00  0.00     0.050 C 
HETATM   22  C14 UNK     1      20.036  -7.872  38.508  1.00  0.00     0.018 A 
HETATM   23  C11 UNK     1      21.150  -7.080  38.231  1.00  0.00     0.041 A 
HETATM   24  C8  UNK     1      21.031  -5.983  37.377  1.00  0.00     0.047 A 
BRANCH  23  25
HETATM   25  C18 UNK     1      22.435  -7.398  38.833  1.00  0.00     0.293 C 
HETATM   26  O6  UNK     1      22.641  -7.455  40.053  1.00  0.00    -0.259 OA
BRANCH  25  27
HETATM   27  O5  UNK     1      23.392  -7.630  37.884  1.00  0.00    -0.323 OA
HETATM   28  C20 UNK     1      23.345  -8.894  37.214  1.00  0.00     0.213 C 
ENDBRANCH  25  27
ENDBRANCH  23  25
ENDBRANCH   2  18
TORSDOF 5
ENDMDL
MODEL 8
REMARK VINA RESULT:      -8.4      3.315      8.688
REMARK  5 active torsions:
REMARK  status: ('A' for Active; 'I' for Inactive)
REMARK    1  A    between atoms: C9_16  and  O2_2 
REMARK    2  A    between atoms: C18_25  and  O5_5 
REMARK    3  A    between atoms: C2_9  and  N1_7 
REMARK       I    between atoms: C7_14  and  N1_7 
REMARK    4  A    between atoms: C4_11  and  C7_14 
REMARK    5  A    between atoms: C11_18  and  C18_25 
ROOT
HETATM    1  O3  UNK     1      17.908  -0.116  33.124  1.00  0.00    -0.267 OA
HETATM    2  N1  UNK     1      18.604   0.924  35.119  1.00  0.00    -0.322 N 
HETATM    3  C7  UNK     1      18.249   0.868  33.779  1.00  0.00     0.262 C 
HETATM    4  H2  UNK     1      18.884   1.825  35.493  1.00  0.00     0.169 HD
ENDROOT
BRANCH   3   5
HETATM    5  C4  UNK     1      18.311   2.185  33.135  1.00  0.00     0.108 A 
HETATM    6  C13 UNK     1      18.529   2.338  31.678  1.00  0.00     0.304 A 
HETATM    7  O1  UNK     1      18.567   3.639  31.185  1.00  0.00    -0.271 OA
HETATM    8  O4  UNK     1      18.667   1.369  30.939  1.00  0.00    -0.259 OA
HETATM    9  C3  UNK     1      18.410   4.757  32.025  1.00  0.00     0.123 A 
HETATM   10  C1  UNK     1      18.207   4.592  33.391  1.00  0.00     0.002 A 
HETATM   11  C9  UNK     1      18.465   6.021  31.440  1.00  0.00     0.102 A 
HETATM   12  C6  UNK     1      18.160   3.246  33.938  1.00  0.00     0.037 A 
HETATM   13  C10 UNK     1      18.056   5.727  34.193  1.00  0.00     0.014 A 
HETATM   14  C17 UNK     1      18.108   7.000  33.619  1.00  0.00     0.004 A 
HETATM   15  C16 UNK     1      18.312   7.146  32.246  1.00  0.00     0.040 A 
BRANCH  11  16
HETATM   16  O2  UNK     1      18.663   6.168  30.102  1.00  0.00    -0.353 OA
HETATM   17  C19 UNK     1      19.993   5.985  29.617  1.00  0.00     0.210 C 
ENDBRANCH  11  16
ENDBRANCH   3   5
BRANCH   2  18
HETATM   18  C2  UNK     1      18.656  -0.148  36.044  1.00  0.00     0.042 A 
HETATM   19  C5  UNK     1      17.960  -0.069  37.240  1.00  0.00    -0.035 A 
HETATM   20  C12 UNK     1      18.021  -1.135  38.138  1.00  0.00     0.010 A 
HETATM   21  C15 UNK     1      17.141   1.129  37.597  1.00  0.00     0.050 C 
HETATM   22  C14 UNK     1      18.777  -2.266  37.828  1.00  0.00     0.018 A 
HETATM   23  C11 UNK     1      19.472  -2.330  36.620  1.00  0.00     0.041 A 
HETATM   24  C8  UNK     1      19.411  -1.264  35.722  1.00  0.00     0.047 A 
BRANCH  23  25
HETATM   25  C18 UNK     1      20.261  -3.509  36.298  1.00  0.00     0.293 C 
HETATM   26  O6  UNK     1      20.288  -4.050  35.185  1.00  0.00    -0.259 OA
BRANCH  25  27
HETATM   27  O5  UNK     1      20.975  -3.947  37.380  1.00  0.00    -0.323 OA
HETATM   28  C20 UNK     1      20.933  -5.352  37.656  1.00  0.00     0.213 C 
ENDBRANCH  25  27
ENDBRANCH  23  25
ENDBRANCH   2  18
TORSDOF 5
ENDMDL
MODEL 9
REMARK VINA RESULT:      -8.3     23.327     25.572
REMARK  5 active torsions:
REMARK  status: ('A' for Active; 'I' for Inactive)
REMARK    1  A    between atoms: C9_16  and  O2_2 
REMARK    2  A    between atoms: C18_25  and  O5_5 
REMARK    3  A    between atoms: C2_9  and  N1_7 
REMARK       I    between atoms: C7_14  and  N1_7 
REMARK    4  A    between atoms: C4_11  and  C7_14 
REMARK    5  A    between atoms: C11_18  and  C18_25 
ROOT
HETATM    1  O3  UNK     1      12.661   6.700  10.342  1.00  0.00    -0.267 OA
HETATM    2  N1  UNK     1      11.984   7.813   8.380  1.00  0.00    -0.322 N 
HETATM    3  C7  UNK     1      12.832   7.517   9.438  1.00  0.00     0.262 C 
HETATM    4  H2  UNK     1      12.276   8.538   7.734  1.00  0.00     0.169 HD
ENDROOT
BRANCH   3   5
HETATM    5  C4  UNK     1      14.061   8.318   9.403  1.00  0.00     0.108 A 
HETATM    6  C13 UNK     1      15.201   8.046  10.308  1.00  0.00     0.304 A 
HETATM    7  O1  UNK     1      16.313   8.874  10.178  1.00  0.00    -0.271 OA
HETATM    8  O4  UNK     1      15.173   7.138  11.131  1.00  0.00    -0.259 OA
HETATM    9  C3  UNK     1      16.354   9.920   9.236  1.00  0.00     0.123 A 
HETATM   10  C1  UNK     1      15.272  10.159   8.396  1.00  0.00     0.002 A 
HETATM   11  C9  UNK     1      17.510  10.697   9.181  1.00  0.00     0.102 A 
HETATM   12  C6  UNK     1      14.096   9.310   8.506  1.00  0.00     0.037 A 
HETATM   13  C10 UNK     1      15.351  11.207   7.475  1.00  0.00     0.014 A 
HETATM   14  C17 UNK     1      16.504  11.994   7.408  1.00  0.00     0.004 A 
HETATM   15  C16 UNK     1      17.581  11.738   8.260  1.00  0.00     0.040 A 
BRANCH  11  16
HETATM   16  O2  UNK     1      18.562  10.452  10.008  1.00  0.00    -0.353 OA
HETATM   17  C19 UNK     1      19.456  11.536  10.261  1.00  0.00     0.210 C 
ENDBRANCH  11  16
ENDBRANCH   3   5
BRANCH   2  18
HETATM   18  C2  UNK     1      10.721   7.237   8.099  1.00  0.00     0.042 A 
HETATM   19  C5  UNK     1      10.533   6.504   6.938  1.00  0.00    -0.035 A 
HETATM   20  C12 UNK     1       9.282   5.943   6.679  1.00  0.00     0.010 A 
HETATM   21  C15 UNK     1      11.636   6.294   5.952  1.00  0.00     0.050 C 
HETATM   22  C14 UNK     1       8.236   6.122   7.584  1.00  0.00     0.018 A 
HETATM   23  C11 UNK     1       8.440   6.863   8.748  1.00  0.00     0.041 A 
HETATM   24  C8  UNK     1       9.691   7.424   9.007  1.00  0.00     0.047 A 
BRANCH  23  25
HETATM   25  C18 UNK     1       7.349   7.050   9.690  1.00  0.00     0.293 C 
HETATM   26  O6  UNK     1       6.279   7.611   9.419  1.00  0.00    -0.259 OA
BRANCH  25  27
HETATM   27  O5  UNK     1       7.648   6.527  10.918  1.00  0.00    -0.323 OA
HETATM   28  C20 UNK     1       7.076   5.254  11.236  1.00  0.00     0.213 C 
ENDBRANCH  25  27
ENDBRANCH  23  25
ENDBRANCH   2  18
TORSDOF 5
ENDMDL
MODEL 10
REMARK VINA RESULT:      -8.3      2.098      9.124
REMARK  5 active torsions:
REMARK  status: ('A' for Active; 'I' for Inactive)
REMARK    1  A    between atoms: C9_16  and  O2_2 
REMARK    2  A    between atoms: C18_25  and  O5_5 
REMARK    3  A    between atoms: C2_9  and  N1_7 
REMARK       I    between atoms: C7_14  and  N1_7 
REMARK    4  A    between atoms: C4_11  and  C7_14 
REMARK    5  A    between atoms: C11_18  and  C18_25 
ROOT
HETATM    1  O3  UNK     1      19.590   5.810  31.626  1.00  0.00    -0.267 OA
HETATM    2  N1  UNK     1      17.805   4.545  32.496  1.00  0.00    -0.322 N 
HETATM    3  C7  UNK     1      18.503   5.704  32.193  1.00  0.00     0.262 C 
HETATM    4  H2  UNK     1      16.925   4.643  32.993  1.00  0.00     0.169 HD
ENDROOT
BRANCH   3   5
HETATM    5  C4  UNK     1      17.793   6.910  32.635  1.00  0.00     0.108 A 
HETATM    6  C13 UNK     1      16.316   7.008  32.601  1.00  0.00     0.304 A 
HETATM    7  O1  UNK     1      15.758   8.203  33.048  1.00  0.00    -0.271 OA
HETATM    8  O4  UNK     1      15.614   6.085  32.202  1.00  0.00    -0.259 OA
HETATM    9  C3  UNK     1      16.555   9.269  33.508  1.00  0.00     0.123 A 
HETATM   10  C1  UNK     1      17.941   9.156  33.531  1.00  0.00     0.002 A 
HETATM   11  C9  UNK     1      15.906  10.426  33.934  1.00  0.00     0.102 A 
HETATM   12  C6  UNK     1      18.555   7.920  33.072  1.00  0.00     0.037 A 
HETATM   13  C10 UNK     1      18.699  10.236  33.994  1.00  0.00     0.014 A 
HETATM   14  C17 UNK     1      18.061  11.403  34.425  1.00  0.00     0.004 A 
HETATM   15  C16 UNK     1      16.668  11.497  34.395  1.00  0.00     0.040 A 
BRANCH  11  16
HETATM   16  O2  UNK     1      14.550  10.523  33.908  1.00  0.00    -0.353 OA
HETATM   17  C19 UNK     1      13.971  11.254  32.827  1.00  0.00     0.210 C 
ENDBRANCH  11  16
ENDBRANCH   3   5
BRANCH   2  18
HETATM   18  C2  UNK     1      18.187   3.209  32.219  1.00  0.00     0.042 A 
HETATM   19  C5  UNK     1      18.309   2.292  33.251  1.00  0.00    -0.035 A 
HETATM   20  C12 UNK     1      18.685   0.980  32.958  1.00  0.00     0.010 A 
HETATM   21  C15 UNK     1      18.047   2.667  34.673  1.00  0.00     0.050 C 
HETATM   22  C14 UNK     1      18.933   0.604  31.639  1.00  0.00     0.018 A 
HETATM   23  C11 UNK     1      18.807   1.539  30.611  1.00  0.00     0.041 A 
HETATM   24  C8  UNK     1      18.431   2.850  30.903  1.00  0.00     0.047 A 
BRANCH  23  25
HETATM   25  C18 UNK     1      19.067   1.145  29.236  1.00  0.00     0.293 C 
HETATM   26  O6  UNK     1      18.336   1.427  28.277  1.00  0.00    -0.259 OA
BRANCH  25  27
HETATM   27  O5  UNK     1      20.224   0.424  29.129  1.00  0.00    -0.323 OA
HETATM   28  C20 UNK     1      20.106  -0.924  28.660  1.00  0.00     0.213 C 
ENDBRANCH  25  27
ENDBRANCH  23  25
ENDBRANCH   2  18
TORSDOF 5
ENDMDL
