MODEL 1
REMARK VINA RESULT:      -7.6      0.000      0.000
REMARK  7 active torsions:
REMARK  status: ('A' for Active; 'I' for Inactive)
REMARK    1  A    between atoms: C2_5  and  N1_2 
REMARK    2  A    between atoms: C3_6  and  N2_3 
REMARK       I    between atoms: C5_8  and  N2_3 
REMARK    3  A    between atoms: C1_4  and  C2_5 
REMARK    4  A    between atoms: C1_4  and  C3_6 
REMARK    5  A    between atoms: C4_7  and  C5_8 
REMARK    6  A    between atoms: C4_7  and  C8_11 
REMARK    7  A    between atoms: C10_13  and  C9_12 
ROOT
HETATM    1  C4  UNK     1      19.384  -1.978  36.190  1.00  0.00     0.043 C 
HETATM    2  C9  UNK     1      19.139  -3.053  36.967  1.00  0.00     0.029 C 
ENDROOT
BRANCH   1   3
HETATM    3  C5  UNK     1      20.447  -2.152  35.135  1.00  0.00     0.252 C 
HETATM    4  O1  UNK     1      21.644  -2.048  35.399  1.00  0.00    -0.268 OA
HETATM    5  N2  UNK     1      19.959  -2.444  33.868  1.00  0.00    -0.357 N 
HETATM    6  H7  UNK     1      18.956  -2.510  33.723  1.00  0.00     0.162 HD
BRANCH   5   7
HETATM    7  C3  UNK     1      20.824  -2.651  32.739  1.00  0.00     0.124 C 
BRANCH   7   8
HETATM    8  C1  UNK     1      20.247  -2.080  31.445  1.00  0.00     0.050 C 
BRANCH   8   9
HETATM    9  C2  UNK     1      19.649  -0.676  31.585  1.00  0.00     0.273 C 
BRANCH   9  10
HETATM   10  N1  UNK     1      20.121   0.223  30.539  1.00  0.00     0.080 N 
HETATM   11  C6  UNK     1      19.064   1.157  30.147  1.00  0.00     0.309 C 
HETATM   12  C7  UNK     1      20.583  -0.537  29.376  1.00  0.00     0.309 C 
ENDBRANCH   9  10
ENDBRANCH   8   9
ENDBRANCH   7   8
ENDBRANCH   5   7
ENDBRANCH   1   3
BRANCH   1  13
HETATM   13  C8  UNK     1      18.671  -0.699  36.373  1.00  0.00    -0.021 A 
HETATM   14  C11 UNK     1      18.788   0.285  35.406  1.00  0.00     0.012 A 
HETATM   15  C15 UNK     1      18.113   1.493  35.578  1.00  0.00     0.001 A 
HETATM   16  C17 UNK     1      17.332   1.700  36.715  1.00  0.00     0.000 A 
HETATM   17  C16 UNK     1      17.226   0.698  37.680  1.00  0.00     0.001 A 
HETATM   18  C12 UNK     1      17.900  -0.510  37.508  1.00  0.00     0.012 A 
ENDBRANCH   1  13
BRANCH   2  19
HETATM   19  C10 UNK     1      19.800  -4.362  36.858  1.00  0.00    -0.035 A 
HETATM   20  C13 UNK     1      19.380  -5.258  35.885  1.00  0.00     0.011 A 
HETATM   21  C18 UNK     1      20.007  -6.499  35.782  1.00  0.00     0.001 A 
HETATM   22  C20 UNK     1      21.046  -6.831  36.652  1.00  0.00     0.000 A 
HETATM   23  C19 UNK     1      21.458  -5.921  37.625  1.00  0.00     0.001 A 
HETATM   24  C14 UNK     1      20.832  -4.679  37.729  1.00  0.00     0.011 A 
ENDBRANCH   2  19
TORSDOF 7
ENDMDL
MODEL 2
REMARK VINA RESULT:      -7.4      1.014      5.129
REMARK  7 active torsions:
REMARK  status: ('A' for Active; 'I' for Inactive)
REMARK    1  A    between atoms: C2_5  and  N1_2 
REMARK    2  A    between atoms: C3_6  and  N2_3 
REMARK       I    between atoms: C5_8  and  N2_3 
REMARK    3  A    between atoms: C1_4  and  C2_5 
REMARK    4  A    between atoms: C1_4  and  C3_6 
REMARK    5  A    between atoms: C4_7  and  C5_8 
REMARK    6  A    between atoms: C4_7  and  C8_11 
REMARK    7  A    between atoms: C10_13  and  C9_12 
ROOT
HETATM    1  C4  UNK     1      19.516  -3.274  36.421  1.00  0.00     0.043 C 
HETATM    2  C9  UNK     1      18.378  -2.758  36.932  1.00  0.00     0.029 C 
ENDROOT
BRANCH   1   3
HETATM    3  C5  UNK     1      20.221  -2.429  35.390  1.00  0.00     0.252 C 
HETATM    4  O1  UNK     1      20.808  -1.392  35.694  1.00  0.00    -0.268 OA
HETATM    5  N2  UNK     1      20.154  -2.927  34.094  1.00  0.00    -0.357 N 
HETATM    6  H7  UNK     1      19.646  -3.788  33.917  1.00  0.00     0.162 HD
BRANCH   5   7
HETATM    7  C3  UNK     1      20.773  -2.260  32.981  1.00  0.00     0.124 C 
BRANCH   7   8
HETATM    8  C1  UNK     1      19.754  -1.705  31.989  1.00  0.00     0.050 C 
BRANCH   8   9
HETATM    9  C2  UNK     1      20.154  -1.858  30.518  1.00  0.00     0.273 C 
BRANCH   9  10
HETATM   10  N1  UNK     1      20.346  -0.567  29.869  1.00  0.00     0.080 N 
HETATM   11  C6  UNK     1      19.742   0.504  30.663  1.00  0.00     0.309 C 
HETATM   12  C7  UNK     1      19.779  -0.580  28.519  1.00  0.00     0.309 C 
ENDBRANCH   9  10
ENDBRANCH   8   9
ENDBRANCH   7   8
ENDBRANCH   5   7
ENDBRANCH   1   3
BRANCH   1  13
HETATM   13  C8  UNK     1      20.032  -4.594  36.832  1.00  0.00    -0.021 A 
HETATM   14  C11 UNK     1      19.372  -5.737  36.415  1.00  0.00     0.012 A 
HETATM   15  C15 UNK     1      19.860  -6.985  36.802  1.00  0.00     0.001 A 
HETATM   16  C17 UNK     1      21.000  -7.071  37.602  1.00  0.00     0.000 A 
HETATM   17  C16 UNK     1      21.652  -5.908  38.013  1.00  0.00     0.001 A 
HETATM   18  C12 UNK     1      21.165  -4.661  37.626  1.00  0.00     0.012 A 
ENDBRANCH   1  13
BRANCH   2  19
HETATM   19  C10 UNK     1      17.792  -1.456  36.582  1.00  0.00    -0.035 A 
HETATM   20  C13 UNK     1      17.904  -0.397  37.471  1.00  0.00     0.011 A 
HETATM   21  C18 UNK     1      17.347   0.837  37.139  1.00  0.00     0.001 A 
HETATM   22  C20 UNK     1      16.685   1.000  35.922  1.00  0.00     0.000 A 
HETATM   23  C19 UNK     1      16.579  -0.072  35.038  1.00  0.00     0.001 A 
HETATM   24  C14 UNK     1      17.136  -1.308  35.369  1.00  0.00     0.011 A 
ENDBRANCH   2  19
TORSDOF 7
ENDMDL
MODEL 3
REMARK VINA RESULT:      -7.2      3.750      6.575
REMARK  7 active torsions:
REMARK  status: ('A' for Active; 'I' for Inactive)
REMARK    1  A    between atoms: C2_5  and  N1_2 
REMARK    2  A    between atoms: C3_6  and  N2_3 
REMARK       I    between atoms: C5_8  and  N2_3 
REMARK    3  A    between atoms: C1_4  and  C2_5 
REMARK    4  A    between atoms: C1_4  and  C3_6 
REMARK    5  A    between atoms: C4_7  and  C5_8 
REMARK    6  A    between atoms: C4_7  and  C8_11 
REMARK    7  A    between atoms: C10_13  and  C9_12 
ROOT
HETATM    1  C4  UNK     1      18.693   0.186  32.822  1.00  0.00     0.043 C 
HETATM    2  C9  UNK     1      18.158  -0.631  33.752  1.00  0.00     0.029 C 
ENDROOT
BRANCH   1   3
HETATM    3  C5  UNK     1      18.567   1.665  33.088  1.00  0.00     0.252 C 
HETATM    4  O1  UNK     1      18.932   2.164  34.152  1.00  0.00    -0.268 OA
HETATM    5  N2  UNK     1      18.023   2.395  32.039  1.00  0.00    -0.357 N 
HETATM    6  H7  UNK     1      17.740   1.914  31.191  1.00  0.00     0.162 HD
BRANCH   5   7
HETATM    7  C3  UNK     1      17.834   3.818  32.109  1.00  0.00     0.124 C 
BRANCH   7   8
HETATM    8  C1  UNK     1      18.707   4.576  31.111  1.00  0.00     0.050 C 
BRANCH   8   9
HETATM    9  C2  UNK     1      18.731   6.094  31.316  1.00  0.00     0.273 C 
BRANCH   9  10
HETATM   10  N1  UNK     1      18.952   6.452  32.712  1.00  0.00     0.080 N 
HETATM   11  C6  UNK     1      18.263   7.701  33.040  1.00  0.00     0.309 C 
HETATM   12  C7  UNK     1      20.384   6.573  32.992  1.00  0.00     0.309 C 
ENDBRANCH   9  10
ENDBRANCH   8   9
ENDBRANCH   7   8
ENDBRANCH   5   7
ENDBRANCH   1   3
BRANCH   1  13
HETATM   13  C8  UNK     1      19.346  -0.333  31.604  1.00  0.00    -0.021 A 
HETATM   14  C11 UNK     1      19.572   0.523  30.541  1.00  0.00     0.012 A 
HETATM   15  C15 UNK     1      20.189   0.032  29.390  1.00  0.00     0.001 A 
HETATM   16  C17 UNK     1      20.569  -1.308  29.320  1.00  0.00     0.000 A 
HETATM   17  C16 UNK     1      20.333  -2.157  30.401  1.00  0.00     0.001 A 
HETATM   18  C12 UNK     1      19.716  -1.667  31.551  1.00  0.00     0.012 A 
ENDBRANCH   1  13
BRANCH   2  19
HETATM   19  C10 UNK     1      17.491  -0.203  34.991  1.00  0.00    -0.035 A 
HETATM   20  C13 UNK     1      16.155   0.168  34.952  1.00  0.00     0.011 A 
HETATM   21  C18 UNK     1      15.523   0.575  36.127  1.00  0.00     0.001 A 
HETATM   22  C20 UNK     1      16.233   0.606  37.327  1.00  0.00     0.000 A 
HETATM   23  C19 UNK     1      17.576   0.231  37.352  1.00  0.00     0.001 A 
HETATM   24  C14 UNK     1      18.209  -0.176  36.178  1.00  0.00     0.011 A 
ENDBRANCH   2  19
TORSDOF 7
ENDMDL
MODEL 4
REMARK VINA RESULT:      -7.1      1.803      6.568
REMARK  7 active torsions:
REMARK  status: ('A' for Active; 'I' for Inactive)
REMARK    1  A    between atoms: C2_5  and  N1_2 
REMARK    2  A    between atoms: C3_6  and  N2_3 
REMARK       I    between atoms: C5_8  and  N2_3 
REMARK    3  A    between atoms: C1_4  and  C2_5 
REMARK    4  A    between atoms: C1_4  and  C3_6 
REMARK    5  A    between atoms: C4_7  and  C5_8 
REMARK    6  A    between atoms: C4_7  and  C8_11 
REMARK    7  A    between atoms: C10_13  and  C9_12 
ROOT
HETATM    1  C4  UNK     1      19.173  -0.926  33.715  1.00  0.00     0.043 C 
HETATM    2  C9  UNK     1      18.272   0.067  33.861  1.00  0.00     0.029 C 
ENDROOT
BRANCH   1   3
HETATM    3  C5  UNK     1      19.639  -1.590  34.987  1.00  0.00     0.252 C 
HETATM    4  O1  UNK     1      20.721  -1.311  35.503  1.00  0.00    -0.268 OA
HETATM    5  N2  UNK     1      18.748  -2.517  35.513  1.00  0.00    -0.357 N 
HETATM    6  H7  UNK     1      17.875  -2.699  35.029  1.00  0.00     0.162 HD
BRANCH   5   7
HETATM    7  C3  UNK     1      19.019  -3.243  36.724  1.00  0.00     0.124 C 
BRANCH   7   8
HETATM    8  C1  UNK     1      19.860  -4.494  36.481  1.00  0.00     0.050 C 
BRANCH   8   9
HETATM    9  C2  UNK     1      19.109  -5.812  36.693  1.00  0.00     0.273 C 
BRANCH   9  10
HETATM   10  N1  UNK     1      19.006  -6.585  35.460  1.00  0.00     0.080 N 
HETATM   11  C6  UNK     1      17.904  -7.545  35.544  1.00  0.00     0.309 C 
HETATM   12  C7  UNK     1      20.264  -7.279  35.181  1.00  0.00     0.309 C 
ENDBRANCH   9  10
ENDBRANCH   8   9
ENDBRANCH   7   8
ENDBRANCH   5   7
ENDBRANCH   1   3
BRANCH   1  13
HETATM   13  C8  UNK     1      19.690  -1.328  32.393  1.00  0.00    -0.021 A 
HETATM   14  C11 UNK     1      19.515  -0.480  31.312  1.00  0.00     0.012 A 
HETATM   15  C15 UNK     1      20.004  -0.860  30.062  1.00  0.00     0.001 A 
HETATM   16  C17 UNK     1      20.660  -2.083  29.912  1.00  0.00     0.000 A 
HETATM   17  C16 UNK     1      20.826  -2.924  31.011  1.00  0.00     0.001 A 
HETATM   18  C12 UNK     1      20.338  -2.545  32.261  1.00  0.00     0.012 A 
ENDBRANCH   1  13
BRANCH   2  19
HETATM   19  C10 UNK     1      17.705   0.532  35.135  1.00  0.00    -0.035 A 
HETATM   20  C13 UNK     1      16.400   0.193  35.465  1.00  0.00     0.011 A 
HETATM   21  C18 UNK     1      15.863   0.636  36.673  1.00  0.00     0.001 A 
HETATM   22  C20 UNK     1      16.634   1.411  37.539  1.00  0.00     0.000 A 
HETATM   23  C19 UNK     1      17.944   1.745  37.195  1.00  0.00     0.001 A 
HETATM   24  C14 UNK     1      18.483   1.303  35.987  1.00  0.00     0.011 A 
ENDBRANCH   2  19
TORSDOF 7
ENDMDL
MODEL 5
REMARK VINA RESULT:      -7.1      1.767      6.991
REMARK  7 active torsions:
REMARK  status: ('A' for Active; 'I' for Inactive)
REMARK    1  A    between atoms: C2_5  and  N1_2 
REMARK    2  A    between atoms: C3_6  and  N2_3 
REMARK       I    between atoms: C5_8  and  N2_3 
REMARK    3  A    between atoms: C1_4  and  C2_5 
REMARK    4  A    between atoms: C1_4  and  C3_6 
REMARK    5  A    between atoms: C4_7  and  C5_8 
REMARK    6  A    between atoms: C4_7  and  C8_11 
REMARK    7  A    between atoms: C10_13  and  C9_12 
ROOT
HETATM    1  C4  UNK     1      19.351  -1.214  33.812  1.00  0.00     0.043 C 
HETATM    2  C9  UNK     1      18.431  -0.230  33.884  1.00  0.00     0.029 C 
ENDROOT
BRANCH   1   3
HETATM    3  C5  UNK     1      19.837  -1.764  35.129  1.00  0.00     0.252 C 
HETATM    4  O1  UNK     1      20.866  -1.352  35.663  1.00  0.00    -0.268 OA
HETATM    5  N2  UNK     1      19.027  -2.751  35.676  1.00  0.00    -0.357 N 
HETATM    6  H7  UNK     1      18.193  -3.045  35.176  1.00  0.00     0.162 HD
BRANCH   5   7
HETATM    7  C3  UNK     1      19.327  -3.386  36.930  1.00  0.00     0.124 C 
BRANCH   7   8
HETATM    8  C1  UNK     1      20.086  -4.700  36.755  1.00  0.00     0.050 C 
BRANCH   8   9
HETATM    9  C2  UNK     1      21.237  -4.902  37.745  1.00  0.00     0.273 C 
BRANCH   9  10
HETATM   10  N1  UNK     1      21.295  -6.272  38.241  1.00  0.00     0.080 N 
HETATM   11  C6  UNK     1      21.216  -7.225  37.132  1.00  0.00     0.309 C 
HETATM   12  C7  UNK     1      20.216  -6.519  39.200  1.00  0.00     0.309 C 
ENDBRANCH   9  10
ENDBRANCH   8   9
ENDBRANCH   7   8
ENDBRANCH   5   7
ENDBRANCH   1   3
BRANCH   1  13
HETATM   13  C8  UNK     1      19.869  -1.711  32.522  1.00  0.00    -0.021 A 
HETATM   14  C11 UNK     1      20.626  -2.869  32.499  1.00  0.00     0.012 A 
HETATM   15  C15 UNK     1      21.115  -3.340  31.280  1.00  0.00     0.001 A 
HETATM   16  C17 UNK     1      20.840  -2.643  30.103  1.00  0.00     0.000 A 
HETATM   17  C16 UNK     1      20.075  -1.477  30.145  1.00  0.00     0.001 A 
HETATM   18  C12 UNK     1      19.586  -1.007  31.363  1.00  0.00     0.012 A 
ENDBRANCH   1  13
BRANCH   2  19
HETATM   19  C10 UNK     1      17.862   0.326  35.120  1.00  0.00    -0.035 A 
HETATM   20  C13 UNK     1      18.598   1.242  35.858  1.00  0.00     0.011 A 
HETATM   21  C18 UNK     1      18.058   1.768  37.031  1.00  0.00     0.001 A 
HETATM   22  C20 UNK     1      16.789   1.374  37.454  1.00  0.00     0.000 A 
HETATM   23  C19 UNK     1      16.060   0.452  36.703  1.00  0.00     0.001 A 
HETATM   24  C14 UNK     1      16.599  -0.075  35.530  1.00  0.00     0.011 A 
ENDBRANCH   2  19
TORSDOF 7
ENDMDL
MODEL 6
REMARK VINA RESULT:      -7.0      3.098      6.137
REMARK  7 active torsions:
REMARK  status: ('A' for Active; 'I' for Inactive)
REMARK    1  A    between atoms: C2_5  and  N1_2 
REMARK    2  A    between atoms: C3_6  and  N2_3 
REMARK       I    between atoms: C5_8  and  N2_3 
REMARK    3  A    between atoms: C1_4  and  C2_5 
REMARK    4  A    between atoms: C1_4  and  C3_6 
REMARK    5  A    between atoms: C4_7  and  C5_8 
REMARK    6  A    between atoms: C4_7  and  C8_11 
REMARK    7  A    between atoms: C10_13  and  C9_12 
ROOT
HETATM    1  C4  UNK     1      19.801  -4.349  36.899  1.00  0.00     0.043 C 
HETATM    2  C9  UNK     1      20.528  -4.541  38.018  1.00  0.00     0.029 C 
ENDROOT
BRANCH   1   3
HETATM    3  C5  UNK     1      19.432  -5.591  36.127  1.00  0.00     0.252 C 
HETATM    4  O1  UNK     1      18.340  -6.139  36.267  1.00  0.00    -0.268 OA
HETATM    5  N2  UNK     1      20.416  -6.042  35.256  1.00  0.00    -0.357 N 
HETATM    6  H7  UNK     1      21.297  -5.540  35.196  1.00  0.00     0.162 HD
BRANCH   5   7
HETATM    7  C3  UNK     1      20.240  -7.207  34.433  1.00  0.00     0.124 C 
BRANCH   7   8
HETATM    8  C1  UNK     1      21.011  -8.417  34.956  1.00  0.00     0.050 C 
BRANCH   8   9
HETATM    9  C2  UNK     1      20.389  -9.078  36.190  1.00  0.00     0.273 C 
BRANCH   9  10
HETATM   10  N1  UNK     1      21.142 -10.252  36.617  1.00  0.00     0.080 N 
HETATM   11  C6  UNK     1      21.612 -11.011  35.457  1.00  0.00     0.309 C 
HETATM   12  C7  UNK     1      20.323 -11.102  37.482  1.00  0.00     0.309 C 
ENDBRANCH   9  10
ENDBRANCH   8   9
ENDBRANCH   7   8
ENDBRANCH   5   7
ENDBRANCH   1   3
BRANCH   1  13
HETATM   13  C8  UNK     1      19.404  -3.002  36.442  1.00  0.00    -0.021 A 
HETATM   14  C11 UNK     1      18.625  -2.211  37.268  1.00  0.00     0.012 A 
HETATM   15  C15 UNK     1      18.250  -0.938  36.837  1.00  0.00     0.001 A 
HETATM   16  C17 UNK     1      18.660  -0.477  35.586  1.00  0.00     0.000 A 
HETATM   17  C16 UNK     1      19.445  -1.288  34.767  1.00  0.00     0.001 A 
HETATM   18  C12 UNK     1      19.820  -2.560  35.197  1.00  0.00     0.012 A 
ENDBRANCH   1  13
BRANCH   2  19
HETATM   19  C10 UNK     1      20.967  -5.842  38.546  1.00  0.00    -0.035 A 
HETATM   20  C13 UNK     1      20.046  -6.669  39.173  1.00  0.00     0.011 A 
HETATM   21  C18 UNK     1      20.463  -7.901  39.673  1.00  0.00     0.001 A 
HETATM   22  C20 UNK     1      21.795  -8.295  39.541  1.00  0.00     0.000 A 
HETATM   23  C19 UNK     1      22.710  -7.454  38.909  1.00  0.00     0.001 A 
HETATM   24  C14 UNK     1      22.295  -6.220  38.408  1.00  0.00     0.011 A 
ENDBRANCH   2  19
TORSDOF 7
ENDMDL
MODEL 7
REMARK VINA RESULT:      -7.0      3.529      7.696
REMARK  7 active torsions:
REMARK  status: ('A' for Active; 'I' for Inactive)
REMARK    1  A    between atoms: C2_5  and  N1_2 
REMARK    2  A    between atoms: C3_6  and  N2_3 
REMARK       I    between atoms: C5_8  and  N2_3 
REMARK    3  A    between atoms: C1_4  and  C2_5 
REMARK    4  A    between atoms: C1_4  and  C3_6 
REMARK    5  A    between atoms: C4_7  and  C5_8 
REMARK    6  A    between atoms: C4_7  and  C8_11 
REMARK    7  A    between atoms: C10_13  and  C9_12 
ROOT
HETATM    1  C4  UNK     1      18.170   2.634  33.162  1.00  0.00     0.043 C 
HETATM    2  C9  UNK     1      18.222   3.943  33.485  1.00  0.00     0.029 C 
ENDROOT
BRANCH   1   3
HETATM    3  C5  UNK     1      18.018   2.319  31.696  1.00  0.00     0.252 C 
HETATM    4  O1  UNK     1      17.059   2.727  31.042  1.00  0.00    -0.268 OA
HETATM    5  N2  UNK     1      19.045   1.549  31.162  1.00  0.00    -0.357 N 
HETATM    6  H7  UNK     1      19.803   1.244  31.764  1.00  0.00     0.162 HD
BRANCH   5   7
HETATM    7  C3  UNK     1      19.074   1.157  29.780  1.00  0.00     0.124 C 
BRANCH   7   8
HETATM    8  C1  UNK     1      20.198   0.169  29.474  1.00  0.00     0.050 C 
BRANCH   8   9
HETATM    9  C2  UNK     1      20.848  -0.453  30.714  1.00  0.00     0.273 C 
BRANCH   9  10
HETATM   10  N1  UNK     1      20.276  -1.756  31.032  1.00  0.00     0.080 N 
HETATM   11  C6  UNK     1      20.808  -2.255  32.302  1.00  0.00     0.309 C 
HETATM   12  C7  UNK     1      20.545  -2.713  29.958  1.00  0.00     0.309 C 
ENDBRANCH   9  10
ENDBRANCH   8   9
ENDBRANCH   7   8
ENDBRANCH   5   7
ENDBRANCH   1   3
BRANCH   1  13
HETATM   13  C8  UNK     1      18.237   1.571  34.184  1.00  0.00    -0.021 A 
HETATM   14  C11 UNK     1      18.248   0.246  33.782  1.00  0.00     0.012 A 
HETATM   15  C15 UNK     1      18.312  -0.758  34.748  1.00  0.00     0.001 A 
HETATM   16  C17 UNK     1      18.362  -0.422  36.102  1.00  0.00     0.000 A 
HETATM   17  C16 UNK     1      18.350   0.918  36.488  1.00  0.00     0.001 A 
HETATM   18  C12 UNK     1      18.286   1.922  35.523  1.00  0.00     0.012 A 
ENDBRANCH   1  13
BRANCH   2  19
HETATM   19  C10 UNK     1      18.162   5.065  32.536  1.00  0.00    -0.035 A 
HETATM   20  C13 UNK     1      17.061   5.909  32.548  1.00  0.00     0.011 A 
HETATM   21  C18 UNK     1      17.005   6.972  31.648  1.00  0.00     0.001 A 
HETATM   22  C20 UNK     1      18.048   7.181  30.746  1.00  0.00     0.000 A 
HETATM   23  C19 UNK     1      19.149   6.325  30.745  1.00  0.00     0.001 A 
HETATM   24  C14 UNK     1      19.207   5.260  31.645  1.00  0.00     0.011 A 
ENDBRANCH   2  19
TORSDOF 7
ENDMDL
MODEL 8
REMARK VINA RESULT:      -6.8      3.007      4.972
REMARK  7 active torsions:
REMARK  status: ('A' for Active; 'I' for Inactive)
REMARK    1  A    between atoms: C2_5  and  N1_2 
REMARK    2  A    between atoms: C3_6  and  N2_3 
REMARK       I    between atoms: C5_8  and  N2_3 
REMARK    3  A    between atoms: C1_4  and  C2_5 
REMARK    4  A    between atoms: C1_4  and  C3_6 
REMARK    5  A    between atoms: C4_7  and  C5_8 
REMARK    6  A    between atoms: C4_7  and  C8_11 
REMARK    7  A    between atoms: C10_13  and  C9_12 
ROOT
HETATM    1  C4  UNK     1      18.272   2.332  34.251  1.00  0.00     0.043 C 
HETATM    2  C9  UNK     1      18.545   2.267  35.570  1.00  0.00     0.029 C 
ENDROOT
BRANCH   1   3
HETATM    3  C5  UNK     1      17.846   1.042  33.598  1.00  0.00     0.252 C 
HETATM    4  O1  UNK     1      16.689   0.631  33.670  1.00  0.00    -0.268 OA
HETATM    5  N2  UNK     1      18.859   0.380  32.914  1.00  0.00    -0.357 N 
HETATM    6  H7  UNK     1      19.793   0.777  32.902  1.00  0.00     0.162 HD
BRANCH   5   7
HETATM    7  C3  UNK     1      18.638  -0.862  32.225  1.00  0.00     0.124 C 
BRANCH   7   8
HETATM    8  C1  UNK     1      19.720  -1.157  31.188  1.00  0.00     0.050 C 
BRANCH   8   9
HETATM    9  C2  UNK     1      20.463   0.082  30.678  1.00  0.00     0.273 C 
BRANCH   9  10
HETATM   10  N1  UNK     1      20.118   0.393  29.296  1.00  0.00     0.080 N 
HETATM   11  C6  UNK     1      18.943   1.264  29.241  1.00  0.00     0.309 C 
HETATM   12  C7  UNK     1      19.877  -0.835  28.536  1.00  0.00     0.309 C 
ENDBRANCH   9  10
ENDBRANCH   8   9
ENDBRANCH   7   8
ENDBRANCH   5   7
ENDBRANCH   1   3
BRANCH   1  13
HETATM   13  C8  UNK     1      18.399   3.588  33.485  1.00  0.00    -0.021 A 
HETATM   14  C11 UNK     1      18.213   3.564  32.114  1.00  0.00     0.012 A 
HETATM   15  C15 UNK     1      18.333   4.751  31.390  1.00  0.00     0.001 A 
HETATM   16  C17 UNK     1      18.638   5.942  32.049  1.00  0.00     0.000 A 
HETATM   17  C16 UNK     1      18.823   5.947  33.431  1.00  0.00     0.001 A 
HETATM   18  C12 UNK     1      18.702   4.761  34.155  1.00  0.00     0.012 A 
ENDBRANCH   1  13
BRANCH   2  19
HETATM   19  C10 UNK     1      18.447   1.063  36.410  1.00  0.00    -0.035 A 
HETATM   20  C13 UNK     1      17.718   1.112  37.589  1.00  0.00     0.011 A 
HETATM   21  C18 UNK     1      17.626  -0.029  38.385  1.00  0.00     0.001 A 
HETATM   22  C20 UNK     1      18.262  -1.207  37.993  1.00  0.00     0.000 A 
HETATM   23  C19 UNK     1      18.991  -1.243  36.805  1.00  0.00     0.001 A 
HETATM   24  C14 UNK     1      19.085  -0.102  36.008  1.00  0.00     0.011 A 
ENDBRANCH   2  19
TORSDOF 7
ENDMDL
MODEL 9
REMARK VINA RESULT:      -6.7     10.061     12.244
REMARK  7 active torsions:
REMARK  status: ('A' for Active; 'I' for Inactive)
REMARK    1  A    between atoms: C2_5  and  N1_2 
REMARK    2  A    between atoms: C3_6  and  N2_3 
REMARK       I    between atoms: C5_8  and  N2_3 
REMARK    3  A    between atoms: C1_4  and  C2_5 
REMARK    4  A    between atoms: C1_4  and  C3_6 
REMARK    5  A    between atoms: C4_7  and  C5_8 
REMARK    6  A    between atoms: C4_7  and  C8_11 
REMARK    7  A    between atoms: C10_13  and  C9_12 
ROOT
HETATM    1  C4  UNK     1      29.051  -6.575  34.736  1.00  0.00     0.043 C 
HETATM    2  C9  UNK     1      27.988  -7.034  35.427  1.00  0.00     0.029 C 
ENDROOT
BRANCH   1   3
HETATM    3  C5  UNK     1      30.323  -6.389  35.524  1.00  0.00     0.252 C 
HETATM    4  O1  UNK     1      31.132  -7.305  35.673  1.00  0.00    -0.268 OA
HETATM    5  N2  UNK     1      30.497  -5.113  36.045  1.00  0.00    -0.357 N 
HETATM    6  H7  UNK     1      29.784  -4.408  35.885  1.00  0.00     0.162 HD
BRANCH   5   7
HETATM    7  C3  UNK     1      31.653  -4.749  36.818  1.00  0.00     0.124 C 
BRANCH   7   8
HETATM    8  C1  UNK     1      32.420  -3.577  36.208  1.00  0.00     0.050 C 
BRANCH   8   9
HETATM    9  C2  UNK     1      33.617  -3.986  35.343  1.00  0.00     0.273 C 
BRANCH   9  10
HETATM   10  N1  UNK     1      33.961  -5.392  35.519  1.00  0.00     0.080 N 
HETATM   11  C6  UNK     1      35.217  -5.527  36.258  1.00  0.00     0.309 C 
HETATM   12  C7  UNK     1      34.060  -6.065  34.222  1.00  0.00     0.309 C 
ENDBRANCH   9  10
ENDBRANCH   8   9
ENDBRANCH   7   8
ENDBRANCH   5   7
ENDBRANCH   1   3
BRANCH   1  13
HETATM   13  C8  UNK     1      28.973  -6.255  33.297  1.00  0.00    -0.021 A 
HETATM   14  C11 UNK     1      27.863  -6.659  32.574  1.00  0.00     0.012 A 
HETATM   15  C15 UNK     1      27.789  -6.355  31.215  1.00  0.00     0.001 A 
HETATM   16  C17 UNK     1      28.825  -5.654  30.599  1.00  0.00     0.000 A 
HETATM   17  C16 UNK     1      29.936  -5.255  31.342  1.00  0.00     0.001 A 
HETATM   18  C12 UNK     1      30.010  -5.558  32.701  1.00  0.00     0.012 A 
ENDBRANCH   1  13
BRANCH   2  19
HETATM   19  C10 UNK     1      27.975  -7.377  36.857  1.00  0.00    -0.035 A 
HETATM   20  C13 UNK     1      27.685  -6.394  37.792  1.00  0.00     0.011 A 
HETATM   21  C18 UNK     1      27.674  -6.720  39.147  1.00  0.00     0.001 A 
HETATM   22  C20 UNK     1      27.953  -8.025  39.554  1.00  0.00     0.000 A 
HETATM   23  C19 UNK     1      28.243  -9.004  38.604  1.00  0.00     0.001 A 
HETATM   24  C14 UNK     1      28.255  -8.679  37.248  1.00  0.00     0.011 A 
ENDBRANCH   2  19
TORSDOF 7
ENDMDL
MODEL 10
REMARK VINA RESULT:      -6.7     27.370     29.999
REMARK  7 active torsions:
REMARK  status: ('A' for Active; 'I' for Inactive)
REMARK    1  A    between atoms: C2_5  and  N1_2 
REMARK    2  A    between atoms: C3_6  and  N2_3 
REMARK       I    between atoms: C5_8  and  N2_3 
REMARK    3  A    between atoms: C1_4  and  C2_5 
REMARK    4  A    between atoms: C1_4  and  C3_6 
REMARK    5  A    between atoms: C4_7  and  C5_8 
REMARK    6  A    between atoms: C4_7  and  C8_11 
REMARK    7  A    between atoms: C10_13  and  C9_12 
ROOT
HETATM    1  C4  UNK     1      12.116   8.047   8.529  1.00  0.00     0.043 C 
HETATM    2  C9  UNK     1      13.415   7.917   8.192  1.00  0.00     0.029 C 
ENDROOT
BRANCH   1   3
HETATM    3  C5  UNK     1      11.824   8.935   9.712  1.00  0.00     0.252 C 
HETATM    4  O1  UNK     1      12.029   8.563  10.867  1.00  0.00    -0.268 OA
HETATM    5  N2  UNK     1      11.322  10.188   9.383  1.00  0.00    -0.357 N 
HETATM    6  H7  UNK     1      11.174  10.424   8.406  1.00  0.00     0.162 HD
BRANCH   5   7
HETATM    7  C3  UNK     1      10.993  11.171  10.378  1.00  0.00     0.124 C 
BRANCH   7   8
HETATM    8  C1  UNK     1       9.761  11.994  10.005  1.00  0.00     0.050 C 
BRANCH   8   9
HETATM    9  C2  UNK     1       9.929  13.504  10.195  1.00  0.00     0.273 C 
BRANCH   9  10
HETATM   10  N1  UNK     1      10.394  14.159   8.978  1.00  0.00     0.080 N 
HETATM   11  C6  UNK     1      11.758  14.659   9.151  1.00  0.00     0.309 C 
HETATM   12  C7  UNK     1       9.495  15.253   8.605  1.00  0.00     0.309 C 
ENDBRANCH   9  10
ENDBRANCH   8   9
ENDBRANCH   7   8
ENDBRANCH   5   7
ENDBRANCH   1   3
BRANCH   1  13
HETATM   13  C8  UNK     1      11.042   7.347   7.797  1.00  0.00    -0.021 A 
HETATM   14  C11 UNK     1       9.829   7.125   8.426  1.00  0.00     0.012 A 
HETATM   15  C15 UNK     1       8.814   6.463   7.734  1.00  0.00     0.001 A 
HETATM   16  C17 UNK     1       9.028   6.033   6.424  1.00  0.00     0.000 A 
HETATM   17  C16 UNK     1      10.257   6.265   5.807  1.00  0.00     0.001 A 
HETATM   18  C12 UNK     1      11.271   6.926   6.498  1.00  0.00     0.012 A 
ENDBRANCH   1  13
BRANCH   2  19
HETATM   19  C10 UNK     1      14.547   8.574   8.863  1.00  0.00    -0.035 A 
HETATM   20  C13 UNK     1      14.881   9.875   8.519  1.00  0.00     0.011 A 
HETATM   21  C18 UNK     1      15.955  10.497   9.154  1.00  0.00     0.001 A 
HETATM   22  C20 UNK     1      16.683   9.812  10.128  1.00  0.00     0.000 A 
HETATM   23  C19 UNK     1      16.336   8.504  10.465  1.00  0.00     0.001 A 
HETATM   24  C14 UNK     1      15.262   7.881   9.829  1.00  0.00     0.011 A 
ENDBRANCH   2  19
TORSDOF 7
ENDMDL
