MODEL 1
REMARK VINA RESULT:      -9.8      0.000      0.000
REMARK  7 active torsions:
REMARK  status: ('A' for Active; 'I' for Inactive)
REMARK    1  A    between atoms: C5_12  and  N1_5 
REMARK    2  A    between atoms: C6_13  and  N2_6 
REMARK    3  A    between atoms: C17_24  and  N3_7 
REMARK       I    between atoms: C9_16  and  N3_7 
REMARK    4  A    between atoms: C5_12  and  C7_14 
REMARK    5  A    between atoms: C6_13  and  C9_16 
REMARK    6  A    between atoms: C13_20  and  C18_25 
REMARK    7  A    between atoms: C17_24  and  C19_26 
ROOT
HETATM    1  N1  UNK     1      18.145   5.140  31.450  1.00  0.00     0.096 N 
HETATM    2  N2  UNK     1      19.064   2.494  30.737  1.00  0.00     0.100 N 
HETATM    3  C1  UNK     1      18.991   4.919  30.271  1.00  0.00     0.303 C 
HETATM    4  C2  UNK     1      18.420   4.126  32.476  1.00  0.00     0.303 C 
HETATM    5  C3  UNK     1      18.789   3.506  29.711  1.00  0.00     0.303 C 
HETATM    6  C4  UNK     1      18.217   2.714  31.915  1.00  0.00     0.303 C 
ENDROOT
BRANCH   1   7
HETATM    7  C5  UNK     1      18.342   6.486  31.985  1.00  0.00     0.312 C 
BRANCH   7   8
HETATM    8  C7  UNK     1      17.051   7.176  32.261  1.00  0.00    -0.011 A 
HETATM    9  C10 UNK     1      15.883   6.635  31.885  1.00  0.00     0.092 A 
HETATM   10  C14 UNK     1      14.583   7.279  32.136  1.00  0.00     0.288 A 
HETATM   11  O1  UNK     1      14.608   8.498  32.794  1.00  0.00    -0.275 OA
HETATM   12  O3  UNK     1      13.535   6.751  31.780  1.00  0.00    -0.260 OA
HETATM   13  C11 UNK     1      15.819   9.092  33.201  1.00  0.00     0.090 A 
HETATM   14  C8  UNK     1      17.045   8.470  32.955  1.00  0.00     0.007 A 
HETATM   15  C15 UNK     1      15.724  10.321  33.854  1.00  0.00     0.039 A 
HETATM   16  C12 UNK     1      18.204   9.126  33.391  1.00  0.00     0.022 A 
HETATM   17  C13 UNK     1      18.125  10.359  34.047  1.00  0.00    -0.058 A 
HETATM   18  C16 UNK     1      16.887  10.956  34.279  1.00  0.00     0.010 A 
BRANCH  17  19
HETATM   19  C18 UNK     1      19.373  11.039  34.503  1.00  0.00     0.034 C 
HETATM   20  C20 UNK     1      20.561  10.084  34.577  1.00  0.00     0.010 C 
ENDBRANCH  17  19
ENDBRANCH   7   8
ENDBRANCH   1   7
BRANCH   2  21
HETATM   21  C6  UNK     1      18.870   1.147  30.203  1.00  0.00     0.374 C 
BRANCH  21  22
HETATM   22  C9  UNK     1      19.533   0.154  31.136  1.00  0.00     0.246 C 
HETATM   23  O2  UNK     1      20.743  -0.063  31.132  1.00  0.00    -0.272 OA
HETATM   24  N3  UNK     1      18.619  -0.441  31.994  1.00  0.00    -0.355 N 
HETATM   25  H15 UNK     1      17.632  -0.214  31.909  1.00  0.00     0.162 HD
BRANCH  24  26
HETATM   26  C17 UNK     1      18.991  -1.406  33.004  1.00  0.00     0.162 C 
BRANCH  26  27
HETATM   27  C19 UNK     1      18.510  -1.004  34.368  1.00  0.00    -0.019 A 
HETATM   28  C21 UNK     1      18.987  -1.624  35.524  1.00  0.00     0.042 A 
HETATM   29 Cl1  UNK     1      20.158  -2.889  35.445  1.00  0.00    -0.084 Cl
HETATM   30  C23 UNK     1      18.516  -1.224  36.775  1.00  0.00     0.024 A 
HETATM   31  C25 UNK     1      17.569  -0.205  36.870  1.00  0.00     0.002 A 
HETATM   32  C24 UNK     1      17.093   0.415  35.715  1.00  0.00     0.001 A 
HETATM   33  C22 UNK     1      17.562   0.015  34.465  1.00  0.00     0.010 A 
ENDBRANCH  26  27
ENDBRANCH  24  26
ENDBRANCH  21  22
ENDBRANCH   2  21
TORSDOF 7
ENDMDL
MODEL 2
REMARK VINA RESULT:      -9.6      5.582     12.310
REMARK  7 active torsions:
REMARK  status: ('A' for Active; 'I' for Inactive)
REMARK    1  A    between atoms: C5_12  and  N1_5 
REMARK    2  A    between atoms: C6_13  and  N2_6 
REMARK    3  A    between atoms: C17_24  and  N3_7 
REMARK       I    between atoms: C9_16  and  N3_7 
REMARK    4  A    between atoms: C5_12  and  C7_14 
REMARK    5  A    between atoms: C6_13  and  C9_16 
REMARK    6  A    between atoms: C13_20  and  C18_25 
REMARK    7  A    between atoms: C17_24  and  C19_26 
ROOT
HETATM    1  N1  UNK     1      19.225  -3.024  36.552  1.00  0.00     0.096 N 
HETATM    2  N2  UNK     1      18.409  -0.349  35.820  1.00  0.00     0.100 N 
HETATM    3  C1  UNK     1      18.724  -2.078  37.557  1.00  0.00     0.303 C 
HETATM    4  C2  UNK     1      19.873  -2.304  35.449  1.00  0.00     0.303 C 
HETATM    5  C3  UNK     1      17.761  -1.068  36.923  1.00  0.00     0.303 C 
HETATM    6  C4  UNK     1      18.909  -1.295  34.816  1.00  0.00     0.303 C 
ENDROOT
BRANCH   1   7
HETATM    7  C5  UNK     1      20.147  -3.984  37.158  1.00  0.00     0.312 C 
BRANCH   7   8
HETATM    8  C7  UNK     1      19.729  -5.393  36.917  1.00  0.00    -0.011 A 
HETATM    9  C10 UNK     1      18.589  -5.676  36.272  1.00  0.00     0.092 A 
HETATM   10  C14 UNK     1      18.135  -7.052  36.011  1.00  0.00     0.288 A 
HETATM   11  O1  UNK     1      18.951  -8.075  36.468  1.00  0.00    -0.275 OA
HETATM   12  O3  UNK     1      17.086  -7.272  35.414  1.00  0.00    -0.260 OA
HETATM   13  C11 UNK     1      20.155  -7.809  37.149  1.00  0.00     0.090 A 
HETATM   14  C8  UNK     1      20.573  -6.499  37.391  1.00  0.00     0.007 A 
HETATM   15  C15 UNK     1      20.896  -8.916  37.565  1.00  0.00     0.039 A 
HETATM   16  C12 UNK     1      21.782  -6.318  38.075  1.00  0.00     0.022 A 
HETATM   17  C13 UNK     1      22.536  -7.418  38.498  1.00  0.00    -0.058 A 
HETATM   18  C16 UNK     1      22.094  -8.716  38.243  1.00  0.00     0.010 A 
BRANCH  17  19
HETATM   19  C18 UNK     1      23.821  -7.202  39.225  1.00  0.00     0.034 C 
HETATM   20  C20 UNK     1      24.943  -8.094  38.699  1.00  0.00     0.010 C 
ENDBRANCH  17  19
ENDBRANCH   7   8
ENDBRANCH   1   7
BRANCH   2  21
HETATM   21  C6  UNK     1      17.489   0.612  35.215  1.00  0.00     0.374 C 
BRANCH  21  22
HETATM   22  C9  UNK     1      18.271   1.509  34.277  1.00  0.00     0.246 C 
HETATM   23  O2  UNK     1      19.011   2.407  34.670  1.00  0.00    -0.272 OA
HETATM   24  N3  UNK     1      18.067   1.168  32.947  1.00  0.00    -0.355 N 
HETATM   25  H15 UNK     1      17.419   0.421  32.715  1.00  0.00     0.162 HD
BRANCH  24  26
HETATM   26  C17 UNK     1      18.716   1.845  31.847  1.00  0.00     0.162 C 
BRANCH  26  27
HETATM   27  C19 UNK     1      19.235   0.880  30.820  1.00  0.00    -0.019 A 
HETATM   28  C21 UNK     1      18.944   1.029  29.464  1.00  0.00     0.042 A 
HETATM   29 Cl1  UNK     1      17.968   2.333  28.893  1.00  0.00    -0.084 Cl
HETATM   30  C23 UNK     1      19.444   0.112  28.539  1.00  0.00     0.024 A 
HETATM   31  C25 UNK     1      20.236  -0.952  28.970  1.00  0.00     0.002 A 
HETATM   32  C24 UNK     1      20.527  -1.100  30.326  1.00  0.00     0.001 A 
HETATM   33  C22 UNK     1      20.026  -0.184  31.251  1.00  0.00     0.010 A 
ENDBRANCH  26  27
ENDBRANCH  24  26
ENDBRANCH  21  22
ENDBRANCH   2  21
TORSDOF 7
ENDMDL
MODEL 3
REMARK VINA RESULT:      -9.6      5.360     12.578
REMARK  7 active torsions:
REMARK  status: ('A' for Active; 'I' for Inactive)
REMARK    1  A    between atoms: C5_12  and  N1_5 
REMARK    2  A    between atoms: C6_13  and  N2_6 
REMARK    3  A    between atoms: C17_24  and  N3_7 
REMARK       I    between atoms: C9_16  and  N3_7 
REMARK    4  A    between atoms: C5_12  and  C7_14 
REMARK    5  A    between atoms: C6_13  and  C9_16 
REMARK    6  A    between atoms: C13_20  and  C18_25 
REMARK    7  A    between atoms: C17_24  and  C19_26 
ROOT
HETATM    1  N1  UNK     1      19.332  -3.293  36.213  1.00  0.00     0.096 N 
HETATM    2  N2  UNK     1      18.743  -0.634  35.243  1.00  0.00     0.100 N 
HETATM    3  C1  UNK     1      18.734  -2.277  37.088  1.00  0.00     0.303 C 
HETATM    4  C2  UNK     1      20.160  -2.657  35.181  1.00  0.00     0.303 C 
HETATM    5  C3  UNK     1      17.914  -1.269  36.274  1.00  0.00     0.303 C 
HETATM    6  C4  UNK     1      19.340  -1.650  34.368  1.00  0.00     0.303 C 
ENDROOT
BRANCH   1   7
HETATM    7  C5  UNK     1      20.116  -4.251  36.991  1.00  0.00     0.312 C 
BRANCH   7   8
HETATM    8  C7  UNK     1      19.663  -5.653  36.777  1.00  0.00    -0.011 A 
HETATM    9  C10 UNK     1      18.556  -5.922  36.070  1.00  0.00     0.092 A 
HETATM   10  C14 UNK     1      18.068  -7.291  35.833  1.00  0.00     0.288 A 
HETATM   11  O1  UNK     1      18.816  -8.323  36.380  1.00  0.00    -0.275 OA
HETATM   12  O3  UNK     1      17.052  -7.499  35.179  1.00  0.00    -0.260 OA
HETATM   13  C11 UNK     1      19.984  -8.071  37.127  1.00  0.00     0.090 A 
HETATM   14  C8  UNK     1      20.433  -6.767  37.345  1.00  0.00     0.007 A 
HETATM   15  C15 UNK     1      20.655  -9.185  37.631  1.00  0.00     0.039 A 
HETATM   16  C12 UNK     1      21.603  -6.601  38.099  1.00  0.00     0.022 A 
HETATM   17  C13 UNK     1      22.288  -7.709  38.611  1.00  0.00    -0.058 A 
HETATM   18  C16 UNK     1      21.815  -9.000  38.377  1.00  0.00     0.010 A 
BRANCH  17  19
HETATM   19  C18 UNK     1      23.531  -7.508  39.410  1.00  0.00     0.034 C 
HETATM   20  C20 UNK     1      24.770  -8.051  38.703  1.00  0.00     0.010 C 
ENDBRANCH  17  19
ENDBRANCH   7   8
ENDBRANCH   1   7
BRANCH   2  21
HETATM   21  C6  UNK     1      17.961   0.326  34.466  1.00  0.00     0.374 C 
BRANCH  21  22
HETATM   22  C9  UNK     1      18.488   1.719  34.741  1.00  0.00     0.246 C 
HETATM   23  O2  UNK     1      19.312   1.962  35.620  1.00  0.00    -0.272 OA
HETATM   24  N3  UNK     1      17.953   2.657  33.869  1.00  0.00    -0.355 N 
HETATM   25  H15 UNK     1      17.260   2.366  33.185  1.00  0.00     0.162 HD
BRANCH  24  26
HETATM   26  C17 UNK     1      18.308   4.057  33.895  1.00  0.00     0.162 C 
BRANCH  26  27
HETATM   27  C19 UNK     1      18.684   4.567  32.533  1.00  0.00    -0.019 A 
HETATM   28  C21 UNK     1      19.266   5.823  32.356  1.00  0.00     0.042 A 
HETATM   29 Cl1  UNK     1      19.584   6.861  33.698  1.00  0.00    -0.084 Cl
HETATM   30  C23 UNK     1      19.602   6.262  31.076  1.00  0.00     0.024 A 
HETATM   31  C25 UNK     1      19.356   5.445  29.972  1.00  0.00     0.002 A 
HETATM   32  C24 UNK     1      18.775   4.190  30.148  1.00  0.00     0.001 A 
HETATM   33  C22 UNK     1      18.439   3.751  31.429  1.00  0.00     0.010 A 
ENDBRANCH  26  27
ENDBRANCH  24  26
ENDBRANCH  21  22
ENDBRANCH   2  21
TORSDOF 7
ENDMDL
MODEL 4
REMARK VINA RESULT:      -9.3      7.590     11.558
REMARK  7 active torsions:
REMARK  status: ('A' for Active; 'I' for Inactive)
REMARK    1  A    between atoms: C5_12  and  N1_5 
REMARK    2  A    between atoms: C6_13  and  N2_6 
REMARK    3  A    between atoms: C17_24  and  N3_7 
REMARK       I    between atoms: C9_16  and  N3_7 
REMARK    4  A    between atoms: C5_12  and  C7_14 
REMARK    5  A    between atoms: C6_13  and  C9_16 
REMARK    6  A    between atoms: C13_20  and  C18_25 
REMARK    7  A    between atoms: C17_24  and  C19_26 
ROOT
HETATM    1  N1  UNK     1      19.869  -5.020  36.602  1.00  0.00     0.096 N 
HETATM    2  N2  UNK     1      19.658  -7.897  36.788  1.00  0.00     0.100 N 
HETATM    3  C1  UNK     1      19.846  -5.862  35.400  1.00  0.00     0.303 C 
HETATM    4  C2  UNK     1      20.450  -5.756  37.732  1.00  0.00     0.303 C 
HETATM    5  C3  UNK     1      19.077  -7.162  35.658  1.00  0.00     0.303 C 
HETATM    6  C4  UNK     1      19.680  -7.055  37.990  1.00  0.00     0.303 C 
ENDROOT
BRANCH   1   7
HETATM    7  C5  UNK     1      20.607  -3.782  36.354  1.00  0.00     0.312 C 
BRANCH   7   8
HETATM    8  C7  UNK     1      19.700  -2.619  36.147  1.00  0.00    -0.011 A 
HETATM    9  C10 UNK     1      19.031  -2.072  37.172  1.00  0.00     0.092 A 
HETATM   10  C14 UNK     1      18.123  -0.923  37.016  1.00  0.00     0.288 A 
HETATM   11  O1  UNK     1      17.981  -0.411  35.736  1.00  0.00    -0.275 OA
HETATM   12  O3  UNK     1      17.530  -0.448  37.978  1.00  0.00    -0.260 OA
HETATM   13  C11 UNK     1      18.670  -0.964  34.640  1.00  0.00     0.090 A 
HETATM   14  C8  UNK     1      19.527  -2.055  34.802  1.00  0.00     0.007 A 
HETATM   15  C15 UNK     1      18.450  -0.368  33.397  1.00  0.00     0.039 A 
HETATM   16  C12 UNK     1      20.175  -2.547  33.661  1.00  0.00     0.022 A 
HETATM   17  C13 UNK     1      19.964  -1.960  32.409  1.00  0.00    -0.058 A 
HETATM   18  C16 UNK     1      19.102  -0.872  32.277  1.00  0.00     0.010 A 
BRANCH  17  19
HETATM   19  C18 UNK     1      20.665  -2.501  31.208  1.00  0.00     0.034 C 
HETATM   20  C20 UNK     1      20.512  -1.595  29.989  1.00  0.00     0.010 C 
ENDBRANCH  17  19
ENDBRANCH   7   8
ENDBRANCH   1   7
BRANCH   2  21
HETATM   21  C6  UNK     1      18.923  -9.136  37.036  1.00  0.00     0.374 C 
BRANCH  21  22
HETATM   22  C9  UNK     1      19.890 -10.300  36.953  1.00  0.00     0.246 C 
HETATM   23  O2  UNK     1      19.742 -11.339  37.591  1.00  0.00    -0.272 OA
HETATM   24  N3  UNK     1      20.921 -10.053  36.059  1.00  0.00    -0.355 N 
HETATM   25  H15 UNK     1      20.973  -9.153  35.590  1.00  0.00     0.162 HD
BRANCH  24  26
HETATM   26  C17 UNK     1      21.965 -11.009  35.769  1.00  0.00     0.162 C 
BRANCH  26  27
HETATM   27  C19 UNK     1      23.312 -10.529  36.228  1.00  0.00    -0.019 A 
HETATM   28  C21 UNK     1      24.455 -11.318  36.097  1.00  0.00     0.042 A 
HETATM   29 Cl1  UNK     1      24.380 -12.895  35.399  1.00  0.00    -0.084 Cl
HETATM   30  C23 UNK     1      25.689 -10.838  36.535  1.00  0.00     0.024 A 
HETATM   31  C25 UNK     1      25.780  -9.567  37.103  1.00  0.00     0.002 A 
HETATM   32  C24 UNK     1      24.638  -8.777  37.234  1.00  0.00     0.001 A 
HETATM   33  C22 UNK     1      23.404  -9.258  36.797  1.00  0.00     0.010 A 
ENDBRANCH  26  27
ENDBRANCH  24  26
ENDBRANCH  21  22
ENDBRANCH   2  21
TORSDOF 7
ENDMDL
MODEL 5
REMARK VINA RESULT:      -9.3      3.902      5.966
REMARK  7 active torsions:
REMARK  status: ('A' for Active; 'I' for Inactive)
REMARK    1  A    between atoms: C5_12  and  N1_5 
REMARK    2  A    between atoms: C6_13  and  N2_6 
REMARK    3  A    between atoms: C17_24  and  N3_7 
REMARK       I    between atoms: C9_16  and  N3_7 
REMARK    4  A    between atoms: C5_12  and  C7_14 
REMARK    5  A    between atoms: C6_13  and  C9_16 
REMARK    6  A    between atoms: C13_20  and  C18_25 
REMARK    7  A    between atoms: C17_24  and  C19_26 
ROOT
HETATM    1  N1  UNK     1      17.955   1.649  35.379  1.00  0.00     0.096 N 
HETATM    2  N2  UNK     1      18.197  -0.819  36.866  1.00  0.00     0.100 N 
HETATM    3  C1  UNK     1      19.114   0.765  35.205  1.00  0.00     0.303 C 
HETATM    4  C2  UNK     1      17.411   1.520  36.736  1.00  0.00     0.303 C 
HETATM    5  C3  UNK     1      18.741  -0.691  35.509  1.00  0.00     0.303 C 
HETATM    6  C4  UNK     1      17.038   0.064  37.039  1.00  0.00     0.303 C 
ENDROOT
BRANCH   1   7
HETATM    7  C5  UNK     1      18.314   3.037  35.093  1.00  0.00     0.312 C 
BRANCH   7   8
HETATM    8  C7  UNK     1      18.309   3.328  33.633  1.00  0.00    -0.011 A 
HETATM    9  C10 UNK     1      18.234   2.340  32.730  1.00  0.00     0.092 A 
HETATM   10  C14 UNK     1      18.227   2.580  31.277  1.00  0.00     0.288 A 
HETATM   11  O1  UNK     1      18.301   3.901  30.862  1.00  0.00    -0.275 OA
HETATM   12  O3  UNK     1      18.154   1.650  30.481  1.00  0.00    -0.260 OA
HETATM   13  C11 UNK     1      18.381   4.960  31.788  1.00  0.00     0.090 A 
HETATM   14  C8  UNK     1      18.389   4.718  33.163  1.00  0.00     0.007 A 
HETATM   15  C15 UNK     1      18.454   6.249  31.257  1.00  0.00     0.039 A 
HETATM   16  C12 UNK     1      18.471   5.826  34.017  1.00  0.00     0.022 A 
HETATM   17  C13 UNK     1      18.544   7.124  33.500  1.00  0.00    -0.058 A 
HETATM   18  C16 UNK     1      18.535   7.336  32.122  1.00  0.00     0.010 A 
BRANCH  17  19
HETATM   19  C18 UNK     1      18.630   8.289  34.428  1.00  0.00     0.034 C 
HETATM   20  C20 UNK     1      20.022   8.915  34.446  1.00  0.00     0.010 C 
ENDBRANCH  17  19
ENDBRANCH   7   8
ENDBRANCH   1   7
BRANCH   2  21
HETATM   21  C6  UNK     1      17.840  -2.207  37.154  1.00  0.00     0.374 C 
BRANCH  21  22
HETATM   22  C9  UNK     1      19.095  -3.054  37.098  1.00  0.00     0.246 C 
HETATM   23  O2  UNK     1      20.159  -2.709  37.606  1.00  0.00    -0.272 OA
HETATM   24  N3  UNK     1      18.879  -4.255  36.438  1.00  0.00    -0.355 N 
HETATM   25  H15 UNK     1      17.968  -4.446  36.031  1.00  0.00     0.162 HD
BRANCH  24  26
HETATM   26  C17 UNK     1      19.903  -5.261  36.268  1.00  0.00     0.162 C 
BRANCH  26  27
HETATM   27  C19 UNK     1      19.833  -6.320  37.330  1.00  0.00    -0.019 A 
HETATM   28  C21 UNK     1      19.040  -7.458  37.177  1.00  0.00     0.042 A 
HETATM   29 Cl1  UNK     1      18.094  -7.709  35.756  1.00  0.00    -0.084 Cl
HETATM   30  C23 UNK     1      19.000  -8.421  38.186  1.00  0.00     0.024 A 
HETATM   31  C25 UNK     1      19.754  -8.246  39.346  1.00  0.00     0.002 A 
HETATM   32  C24 UNK     1      20.547  -7.109  39.499  1.00  0.00     0.001 A 
HETATM   33  C22 UNK     1      20.586  -6.146  38.491  1.00  0.00     0.010 A 
ENDBRANCH  26  27
ENDBRANCH  24  26
ENDBRANCH  21  22
ENDBRANCH   2  21
TORSDOF 7
ENDMDL
MODEL 6
REMARK VINA RESULT:      -9.3     14.911     17.318
REMARK  7 active torsions:
REMARK  status: ('A' for Active; 'I' for Inactive)
REMARK    1  A    between atoms: C5_12  and  N1_5 
REMARK    2  A    between atoms: C6_13  and  N2_6 
REMARK    3  A    between atoms: C17_24  and  N3_7 
REMARK       I    between atoms: C9_16  and  N3_7 
REMARK    4  A    between atoms: C5_12  and  C7_14 
REMARK    5  A    between atoms: C6_13  and  C9_16 
REMARK    6  A    between atoms: C13_20  and  C18_25 
REMARK    7  A    between atoms: C17_24  and  C19_26 
ROOT
HETATM    1  N1  UNK     1      28.244  -7.779  36.443  1.00  0.00     0.096 N 
HETATM    2  N2  UNK     1      26.288  -9.908  36.430  1.00  0.00     0.100 N 
HETATM    3  C1  UNK     1      26.984  -7.662  37.187  1.00  0.00     0.303 C 
HETATM    4  C2  UNK     1      28.068  -8.646  35.272  1.00  0.00     0.303 C 
HETATM    5  C3  UNK     1      26.463  -9.043  37.602  1.00  0.00     0.303 C 
HETATM    6  C4  UNK     1      27.548 -10.027  35.687  1.00  0.00     0.303 C 
ENDROOT
BRANCH   1   7
HETATM    7  C5  UNK     1      28.736  -6.462  36.045  1.00  0.00     0.312 C 
BRANCH   7   8
HETATM    8  C7  UNK     1      29.636  -5.865  37.070  1.00  0.00    -0.011 A 
HETATM    9  C10 UNK     1      29.157  -5.060  38.029  1.00  0.00     0.092 A 
HETATM   10  C14 UNK     1      30.007  -4.447  39.062  1.00  0.00     0.288 A 
HETATM   11  O1  UNK     1      31.361  -4.741  39.010  1.00  0.00    -0.275 OA
HETATM   12  O3  UNK     1      29.532  -3.718  39.926  1.00  0.00    -0.260 OA
HETATM   13  C11 UNK     1      31.895  -5.584  38.015  1.00  0.00     0.090 A 
HETATM   14  C8  UNK     1      31.076  -6.157  37.040  1.00  0.00     0.007 A 
HETATM   15  C15 UNK     1      33.271  -5.809  38.059  1.00  0.00     0.039 A 
HETATM   16  C12 UNK     1      31.684  -6.983  36.085  1.00  0.00     0.022 A 
HETATM   17  C13 UNK     1      33.063  -7.218  36.116  1.00  0.00    -0.058 A 
HETATM   18  C16 UNK     1      33.856  -6.632  37.102  1.00  0.00     0.010 A 
BRANCH  17  19
HETATM   19  C18 UNK     1      33.688  -8.102  35.090  1.00  0.00     0.034 C 
HETATM   20  C20 UNK     1      34.528  -7.319  34.084  1.00  0.00     0.010 C 
ENDBRANCH  17  19
ENDBRANCH   7   8
ENDBRANCH   1   7
BRANCH   2  21
HETATM   21  C6  UNK     1      25.793 -11.226  36.826  1.00  0.00     0.374 C 
BRANCH  21  22
HETATM   22  C9  UNK     1      24.604 -11.581  35.957  1.00  0.00     0.246 C 
HETATM   23  O2  UNK     1      24.600 -12.537  35.187  1.00  0.00    -0.272 OA
HETATM   24  N3  UNK     1      23.536 -10.720  36.166  1.00  0.00    -0.355 N 
HETATM   25  H15 UNK     1      23.639  -9.941  36.811  1.00  0.00     0.162 HD
BRANCH  24  26
HETATM   26  C17 UNK     1      22.268 -10.851  35.486  1.00  0.00     0.162 C 
BRANCH  26  27
HETATM   27  C19 UNK     1      21.131 -10.312  36.306  1.00  0.00    -0.019 A 
HETATM   28  C21 UNK     1      20.531  -9.088  36.010  1.00  0.00     0.042 A 
HETATM   29 Cl1  UNK     1      21.066  -8.124  34.682  1.00  0.00    -0.084 Cl
HETATM   30  C23 UNK     1      19.477  -8.619  36.795  1.00  0.00     0.024 A 
HETATM   31  C25 UNK     1      19.024  -9.376  37.875  1.00  0.00     0.002 A 
HETATM   32  C24 UNK     1      19.623 -10.600  38.172  1.00  0.00     0.001 A 
HETATM   33  C22 UNK     1      20.677 -11.067  37.387  1.00  0.00     0.010 A 
ENDBRANCH  26  27
ENDBRANCH  24  26
ENDBRANCH  21  22
ENDBRANCH   2  21
TORSDOF 7
ENDMDL
MODEL 7
REMARK VINA RESULT:      -9.0      3.233      9.352
REMARK  7 active torsions:
REMARK  status: ('A' for Active; 'I' for Inactive)
REMARK    1  A    between atoms: C5_12  and  N1_5 
REMARK    2  A    between atoms: C6_13  and  N2_6 
REMARK    3  A    between atoms: C17_24  and  N3_7 
REMARK       I    between atoms: C9_16  and  N3_7 
REMARK    4  A    between atoms: C5_12  and  C7_14 
REMARK    5  A    between atoms: C6_13  and  C9_16 
REMARK    6  A    between atoms: C13_20  and  C18_25 
REMARK    7  A    between atoms: C17_24  and  C19_26 
ROOT
HETATM    1  N1  UNK     1      18.866   3.615  31.334  1.00  0.00     0.096 N 
HETATM    2  N2  UNK     1      19.115   6.273  32.444  1.00  0.00     0.100 N 
HETATM    3  C1  UNK     1      19.135   4.777  30.478  1.00  0.00     0.303 C 
HETATM    4  C2  UNK     1      18.104   4.020  32.522  1.00  0.00     0.303 C 
HETATM    5  C3  UNK     1      19.877   5.869  31.257  1.00  0.00     0.303 C 
HETATM    6  C4  UNK     1      18.847   5.112  33.300  1.00  0.00     0.303 C 
ENDROOT
BRANCH   1   7
HETATM    7  C5  UNK     1      18.154   2.577  30.590  1.00  0.00     0.312 C 
BRANCH   7   8
HETATM    8  C7  UNK     1      18.919   1.300  30.539  1.00  0.00    -0.011 A 
HETATM    9  C10 UNK     1      19.598   0.943  29.439  1.00  0.00     0.092 A 
HETATM   10  C14 UNK     1      20.366  -0.309  29.342  1.00  0.00     0.288 A 
HETATM   11  O1  UNK     1      20.366  -1.130  30.459  1.00  0.00    -0.275 OA
HETATM   12  O3  UNK     1      20.978  -0.601  28.320  1.00  0.00    -0.260 OA
HETATM   13  C11 UNK     1      19.662  -0.782  31.629  1.00  0.00     0.090 A 
HETATM   14  C8  UNK     1      18.936   0.408  31.707  1.00  0.00     0.007 A 
HETATM   15  C15 UNK     1      19.730  -1.684  32.691  1.00  0.00     0.039 A 
HETATM   16  C12 UNK     1      18.262   0.681  32.905  1.00  0.00     0.022 A 
HETATM   17  C13 UNK     1      18.322  -0.214  33.979  1.00  0.00    -0.058 A 
HETATM   18  C16 UNK     1      19.055  -1.395  33.873  1.00  0.00     0.010 A 
BRANCH  17  19
HETATM   19  C18 UNK     1      17.598   0.098  35.246  1.00  0.00     0.034 C 
HETATM   20  C20 UNK     1      16.088   0.195  35.043  1.00  0.00     0.010 C 
ENDBRANCH  17  19
ENDBRANCH   7   8
ENDBRANCH   1   7
BRANCH   2  21
HETATM   21  C6  UNK     1      19.824   7.313  33.188  1.00  0.00     0.374 C 
BRANCH  21  22
HETATM   22  C9  UNK     1      18.985   7.712  34.385  1.00  0.00     0.246 C 
HETATM   23  O2  UNK     1      19.432   7.761  35.529  1.00  0.00    -0.272 OA
HETATM   24  N3  UNK     1      17.686   8.036  34.022  1.00  0.00    -0.355 N 
HETATM   25  H15 UNK     1      17.400   7.945  33.052  1.00  0.00     0.162 HD
BRANCH  24  26
HETATM   26  C17 UNK     1      16.685   8.477  34.968  1.00  0.00     0.162 C 
BRANCH  26  27
HETATM   27  C19 UNK     1      15.775   9.516  34.379  1.00  0.00    -0.019 A 
HETATM   28  C21 UNK     1      14.569   9.171  33.769  1.00  0.00     0.042 A 
HETATM   29 Cl1  UNK     1      14.058   7.526  33.658  1.00  0.00    -0.084 Cl
HETATM   30  C23 UNK     1      13.749  10.164  33.233  1.00  0.00     0.024 A 
HETATM   31  C25 UNK     1      14.135  11.502  33.309  1.00  0.00     0.002 A 
HETATM   32  C24 UNK     1      15.341  11.848  33.919  1.00  0.00     0.001 A 
HETATM   33  C22 UNK     1      16.161  10.854  34.453  1.00  0.00     0.010 A 
ENDBRANCH  26  27
ENDBRANCH  24  26
ENDBRANCH  21  22
ENDBRANCH   2  21
TORSDOF 7
ENDMDL
MODEL 8
REMARK VINA RESULT:      -9.0     14.403     17.912
REMARK  7 active torsions:
REMARK  status: ('A' for Active; 'I' for Inactive)
REMARK    1  A    between atoms: C5_12  and  N1_5 
REMARK    2  A    between atoms: C6_13  and  N2_6 
REMARK    3  A    between atoms: C17_24  and  N3_7 
REMARK       I    between atoms: C9_16  and  N3_7 
REMARK    4  A    between atoms: C5_12  and  C7_14 
REMARK    5  A    between atoms: C6_13  and  C9_16 
REMARK    6  A    between atoms: C13_20  and  C18_25 
REMARK    7  A    between atoms: C17_24  and  C19_26 
ROOT
HETATM    1  N1  UNK     1      26.840  -9.436  37.625  1.00  0.00     0.096 N 
HETATM    2  N2  UNK     1      29.674  -9.243  38.166  1.00  0.00     0.100 N 
HETATM    3  C1  UNK     1      27.756  -8.794  36.674  1.00  0.00     0.303 C 
HETATM    4  C2  UNK     1      27.347  -9.301  38.996  1.00  0.00     0.303 C 
HETATM    5  C3  UNK     1      29.168  -9.379  36.795  1.00  0.00     0.303 C 
HETATM    6  C4  UNK     1      28.758  -9.886  39.116  1.00  0.00     0.303 C 
ENDROOT
BRANCH   1   7
HETATM    7  C5  UNK     1      25.496  -8.874  37.510  1.00  0.00     0.312 C 
BRANCH   7   8
HETATM    8  C7  UNK     1      24.560  -9.794  36.806  1.00  0.00    -0.011 A 
HETATM    9  C10 UNK     1      24.996 -10.937  36.257  1.00  0.00     0.092 A 
HETATM   10  C14 UNK     1      24.109 -11.876  35.550  1.00  0.00     0.288 A 
HETATM   11  O1  UNK     1      22.770 -11.530  35.471  1.00  0.00    -0.275 OA
HETATM   12  O3  UNK     1      24.544 -12.914  35.063  1.00  0.00    -0.260 OA
HETATM   13  C11 UNK     1      22.282 -10.336  36.039  1.00  0.00     0.090 A 
HETATM   14  C8  UNK     1      23.135  -9.453  36.704  1.00  0.00     0.007 A 
HETATM   15  C15 UNK     1      20.916 -10.089  35.897  1.00  0.00     0.039 A 
HETATM   16  C12 UNK     1      22.572  -8.287  37.240  1.00  0.00     0.022 A 
HETATM   17  C13 UNK     1      21.204  -8.025  37.106  1.00  0.00    -0.058 A 
HETATM   18  C16 UNK     1      20.377  -8.926  36.436  1.00  0.00     0.010 A 
BRANCH  17  19
HETATM   19  C18 UNK     1      20.627  -6.777  37.686  1.00  0.00     0.034 C 
HETATM   20  C20 UNK     1      19.943  -7.022  39.028  1.00  0.00     0.010 C 
ENDBRANCH  17  19
ENDBRANCH   7   8
ENDBRANCH   1   7
BRANCH   2  21
HETATM   21  C6  UNK     1      31.019  -9.803  38.282  1.00  0.00     0.374 C 
BRANCH  21  22
HETATM   22  C9  UNK     1      32.003  -8.838  37.653  1.00  0.00     0.246 C 
HETATM   23  O2  UNK     1      32.488  -9.010  36.537  1.00  0.00    -0.272 OA
HETATM   24  N3  UNK     1      32.253  -7.747  38.472  1.00  0.00    -0.355 N 
HETATM   25  H15 UNK     1      31.821  -7.700  39.390  1.00  0.00     0.162 HD
BRANCH  24  26
HETATM   26  C17 UNK     1      33.133  -6.662  38.100  1.00  0.00     0.162 C 
BRANCH  26  27
HETATM   27  C19 UNK     1      32.371  -5.431  37.701  1.00  0.00    -0.019 A 
HETATM   28  C21 UNK     1      32.838  -4.572  36.705  1.00  0.00     0.042 A 
HETATM   29 Cl1  UNK     1      34.321  -4.880  35.878  1.00  0.00    -0.084 Cl
HETATM   30  C23 UNK     1      32.102  -3.438  36.361  1.00  0.00     0.024 A 
HETATM   31  C25 UNK     1      30.899  -3.164  37.012  1.00  0.00     0.002 A 
HETATM   32  C24 UNK     1      30.432  -4.022  38.007  1.00  0.00     0.001 A 
HETATM   33  C22 UNK     1      31.169  -5.156  38.351  1.00  0.00     0.010 A 
ENDBRANCH  26  27
ENDBRANCH  24  26
ENDBRANCH  21  22
ENDBRANCH   2  21
TORSDOF 7
ENDMDL
MODEL 9
REMARK VINA RESULT:      -8.8     16.092     18.286
REMARK  7 active torsions:
REMARK  status: ('A' for Active; 'I' for Inactive)
REMARK    1  A    between atoms: C5_12  and  N1_5 
REMARK    2  A    between atoms: C6_13  and  N2_6 
REMARK    3  A    between atoms: C17_24  and  N3_7 
REMARK       I    between atoms: C9_16  and  N3_7 
REMARK    4  A    between atoms: C5_12  and  C7_14 
REMARK    5  A    between atoms: C6_13  and  C9_16 
REMARK    6  A    between atoms: C13_20  and  C18_25 
REMARK    7  A    between atoms: C17_24  and  C19_26 
ROOT
HETATM    1  N1  UNK     1      32.999  -6.943  35.001  1.00  0.00     0.096 N 
HETATM    2  N2  UNK     1      33.452  -8.083  32.383  1.00  0.00     0.100 N 
HETATM    3  C1  UNK     1      34.189  -7.754  34.718  1.00  0.00     0.303 C 
HETATM    4  C2  UNK     1      31.880  -7.360  34.147  1.00  0.00     0.303 C 
HETATM    5  C3  UNK     1      34.571  -7.666  33.236  1.00  0.00     0.303 C 
HETATM    6  C4  UNK     1      32.263  -7.271  32.665  1.00  0.00     0.303 C 
ENDROOT
BRANCH   1   7
HETATM    7  C5  UNK     1      32.634  -7.033  36.414  1.00  0.00     0.312 C 
BRANCH   7   8
HETATM    8  C7  UNK     1      31.763  -5.903  36.842  1.00  0.00    -0.011 A 
HETATM    9  C10 UNK     1      32.096  -4.632  36.574  1.00  0.00     0.092 A 
HETATM   10  C14 UNK     1      31.268  -3.484  36.976  1.00  0.00     0.288 A 
HETATM   11  O1  UNK     1      30.097  -3.769  37.661  1.00  0.00    -0.275 OA
HETATM   12  O3  UNK     1      31.604  -2.335  36.711  1.00  0.00    -0.260 OA
HETATM   13  C11 UNK     1      29.720  -5.094  37.957  1.00  0.00     0.090 A 
HETATM   14  C8  UNK     1      30.516  -6.174  37.570  1.00  0.00     0.007 A 
HETATM   15  C15 UNK     1      28.521  -5.263  38.651  1.00  0.00     0.039 A 
HETATM   16  C12 UNK     1      30.072  -7.460  37.903  1.00  0.00     0.022 A 
HETATM   17  C13 UNK     1      28.872  -7.646  38.599  1.00  0.00    -0.058 A 
HETATM   18  C16 UNK     1      28.097  -6.548  38.972  1.00  0.00     0.010 A 
BRANCH  17  19
HETATM   19  C18 UNK     1      28.418  -9.025  38.942  1.00  0.00     0.034 C 
HETATM   20  C20 UNK     1      27.125  -9.026  39.752  1.00  0.00     0.010 C 
ENDBRANCH  17  19
ENDBRANCH   7   8
ENDBRANCH   1   7
BRANCH   2  21
HETATM   21  C6  UNK     1      33.816  -7.996  30.970  1.00  0.00     0.374 C 
BRANCH  21  22
HETATM   22  C9  UNK     1      32.666  -8.525  30.138  1.00  0.00     0.246 C 
HETATM   23  O2  UNK     1      32.322  -9.705  30.144  1.00  0.00    -0.272 OA
HETATM   24  N3  UNK     1      32.048  -7.518  29.410  1.00  0.00    -0.355 N 
HETATM   25  H15 UNK     1      32.416  -6.572  29.452  1.00  0.00     0.162 HD
BRANCH  24  26
HETATM   26  C17 UNK     1      30.905  -7.745  28.555  1.00  0.00     0.162 C 
BRANCH  26  27
HETATM   27  C19 UNK     1      29.613  -7.687  29.318  1.00  0.00    -0.019 A 
HETATM   28  C21 UNK     1      28.698  -8.741  29.289  1.00  0.00     0.042 A 
HETATM   29 Cl1  UNK     1      29.005 -10.170  28.372  1.00  0.00    -0.084 Cl
HETATM   30  C23 UNK     1      27.508  -8.651  30.011  1.00  0.00     0.024 A 
HETATM   31  C25 UNK     1      27.233  -7.508  30.761  1.00  0.00     0.002 A 
HETATM   32  C24 UNK     1      28.146  -6.455  30.790  1.00  0.00     0.001 A 
HETATM   33  C22 UNK     1      29.336  -6.545  30.068  1.00  0.00     0.010 A 
ENDBRANCH  26  27
ENDBRANCH  24  26
ENDBRANCH  21  22
ENDBRANCH   2  21
TORSDOF 7
ENDMDL
MODEL 10
REMARK VINA RESULT:      -8.8     15.588     18.139
REMARK  7 active torsions:
REMARK  status: ('A' for Active; 'I' for Inactive)
REMARK    1  A    between atoms: C5_12  and  N1_5 
REMARK    2  A    between atoms: C6_13  and  N2_6 
REMARK    3  A    between atoms: C17_24  and  N3_7 
REMARK       I    between atoms: C9_16  and  N3_7 
REMARK    4  A    between atoms: C5_12  and  C7_14 
REMARK    5  A    between atoms: C6_13  and  C9_16 
REMARK    6  A    between atoms: C13_20  and  C18_25 
REMARK    7  A    between atoms: C17_24  and  C19_26 
ROOT
HETATM    1  N1  UNK     1      28.256  -9.028  36.084  1.00  0.00     0.096 N 
HETATM    2  N2  UNK     1      29.588  -8.613  33.551  1.00  0.00     0.100 N 
HETATM    3  C1  UNK     1      28.300  -7.703  35.453  1.00  0.00     0.303 C 
HETATM    4  C2  UNK     1      29.437  -9.814  35.705  1.00  0.00     0.303 C 
HETATM    5  C3  UNK     1      28.408  -7.826  33.929  1.00  0.00     0.303 C 
HETATM    6  C4  UNK     1      29.544  -9.938  34.181  1.00  0.00     0.303 C 
ENDROOT
BRANCH   1   7
HETATM    7  C5  UNK     1      28.157  -8.907  37.537  1.00  0.00     0.312 C 
BRANCH   7   8
HETATM    8  C7  UNK     1      28.121  -7.486  37.982  1.00  0.00    -0.011 A 
HETATM    9  C10 UNK     1      26.958  -6.863  38.214  1.00  0.00     0.092 A 
HETATM   10  C14 UNK     1      26.873  -5.460  38.654  1.00  0.00     0.288 A 
HETATM   11  O1  UNK     1      28.072  -4.787  38.826  1.00  0.00    -0.275 OA
HETATM   12  O3  UNK     1      25.789  -4.924  38.860  1.00  0.00    -0.260 OA
HETATM   13  C11 UNK     1      29.310  -5.415  38.589  1.00  0.00     0.090 A 
HETATM   14  C8  UNK     1      29.376  -6.746  38.171  1.00  0.00     0.007 A 
HETATM   15  C15 UNK     1      30.453  -4.640  38.793  1.00  0.00     0.039 A 
HETATM   16  C12 UNK     1      30.646  -7.297  37.957  1.00  0.00     0.022 A 
HETATM   17  C13 UNK     1      31.801  -6.533  38.157  1.00  0.00    -0.058 A 
HETATM   18  C16 UNK     1      31.705  -5.206  38.575  1.00  0.00     0.010 A 
BRANCH  17  19
HETATM   19  C18 UNK     1      33.143  -7.142  37.923  1.00  0.00     0.034 C 
HETATM   20  C20 UNK     1      33.144  -8.112  36.746  1.00  0.00     0.010 C 
ENDBRANCH  17  19
ENDBRANCH   7   8
ENDBRANCH   1   7
BRANCH   2  21
HETATM   21  C6  UNK     1      29.690  -8.732  32.098  1.00  0.00     0.374 C 
BRANCH  21  22
HETATM   22  C9  UNK     1      30.972  -8.063  31.644  1.00  0.00     0.246 C 
HETATM   23  O2  UNK     1      31.170  -7.715  30.482  1.00  0.00    -0.272 OA
HETATM   24  N3  UNK     1      31.857  -7.873  32.695  1.00  0.00    -0.355 N 
HETATM   25  H15 UNK     1      31.614  -8.213  33.621  1.00  0.00     0.162 HD
BRANCH  24  26
HETATM   26  C17 UNK     1      33.143  -7.231  32.542  1.00  0.00     0.162 C 
BRANCH  26  27
HETATM   27  C19 UNK     1      33.382  -6.194  33.602  1.00  0.00    -0.019 A 
HETATM   28  C21 UNK     1      34.666  -5.908  34.069  1.00  0.00     0.042 A 
HETATM   29 Cl1  UNK     1      36.050  -6.734  33.451  1.00  0.00    -0.084 Cl
HETATM   30  C23 UNK     1      34.850  -4.939  35.055  1.00  0.00     0.024 A 
HETATM   31  C25 UNK     1      33.751  -4.255  35.573  1.00  0.00     0.002 A 
HETATM   32  C24 UNK     1      32.467  -4.540  35.107  1.00  0.00     0.001 A 
HETATM   33  C22 UNK     1      32.284  -5.510  34.122  1.00  0.00     0.010 A 
ENDBRANCH  26  27
ENDBRANCH  24  26
ENDBRANCH  21  22
ENDBRANCH   2  21
TORSDOF 7
ENDMDL
