MODEL 1
REMARK VINA RESULT:      -9.2      0.000      0.000
REMARK  3 active torsions:
REMARK  status: ('A' for Active; 'I' for Inactive)
REMARK    1  A    between atoms: C10_17  and  N1_6 
REMARK       I    between atoms: C12_19  and  N1_6 
REMARK       I    between atoms: C11_18  and  N2_7 
REMARK    2  A    between atoms: C11_18  and  C9_16 
REMARK    3  A    between atoms: C12_19  and  C13_20 
ROOT
HETATM    1  S1  UNK     1      16.598   6.365  31.130  1.00  0.00    -0.075 SA
HETATM    2  C1  UNK     1      16.324   8.324  35.315  1.00  0.00     0.000 C 
HETATM    3  C2  UNK     1      17.831   8.595  35.207  1.00  0.00     0.005 C 
HETATM    4  C3  UNK     1      15.423   9.334  34.597  1.00  0.00     0.000 C 
HETATM    5  C4  UNK     1      18.383   8.800  33.797  1.00  0.00     0.041 C 
HETATM    6  C5  UNK     1      14.813   8.826  33.282  1.00  0.00     0.005 C 
HETATM    7  C6  UNK     1      17.959   7.731  32.838  1.00  0.00    -0.026 A 
HETATM    8  C7  UNK     1      15.746   8.847  32.069  1.00  0.00     0.046 C 
HETATM    9  C8  UNK     1      16.787   7.766  32.098  1.00  0.00    -0.008 A 
HETATM   10  C9  UNK     1      18.698   6.531  32.585  1.00  0.00     0.073 A 
HETATM   11  C10 UNK     1      18.073   5.706  31.680  1.00  0.00     0.093 A 
ENDROOT
BRANCH  11  12
HETATM   12  N1  UNK     1      18.429   4.486  31.171  1.00  0.00    -0.316 N 
HETATM   13  C12 UNK     1      18.198   3.234  31.757  1.00  0.00     0.262 C 
HETATM   14  O3  UNK     1      17.643   2.981  32.820  1.00  0.00    -0.267 OA
HETATM   15  H13 UNK     1      18.891   4.523  30.266  1.00  0.00     0.169 HD
BRANCH  13  16
HETATM   16  C13 UNK     1      18.716   2.121  30.934  1.00  0.00     0.108 A 
HETATM   17  C14 UNK     1      19.130   1.036  31.600  1.00  0.00     0.037 A 
HETATM   18  C15 UNK     1      19.656  -0.111  30.877  1.00  0.00    -0.001 A 
HETATM   19  C17 UNK     1      19.722  -0.059  29.488  1.00  0.00     0.089 A 
HETATM   20  C18 UNK     1      20.099  -1.263  31.530  1.00  0.00     0.014 A 
HETATM   21  O2  UNK     1      19.285   1.086  28.793  1.00  0.00    -0.274 OA
HETATM   22  C19 UNK     1      20.216  -1.124  28.736  1.00  0.00     0.038 A 
HETATM   23  C16 UNK     1      18.776   2.198  29.457  1.00  0.00     0.304 A 
HETATM   24  O4  UNK     1      18.399   3.191  28.844  1.00  0.00    -0.259 OA
HETATM   25  C21 UNK     1      20.655  -2.269  29.396  1.00  0.00     0.003 A 
HETATM   26  C20 UNK     1      20.597  -2.340  30.789  1.00  0.00     0.001 A 
ENDBRANCH  13  16
ENDBRANCH  11  12
BRANCH  10  27
HETATM   27  C11 UNK     1      19.956   6.178  33.197  1.00  0.00     0.252 C 
HETATM   28  O1  UNK     1      21.059   6.461  32.694  1.00  0.00    -0.268 OA
HETATM   29  N2  UNK     1      19.910   5.510  34.418  1.00  0.00    -0.366 N 
HETATM   30  H14 UNK     1      19.031   5.271  34.868  1.00  0.00     0.159 HD
HETATM   31  H15 UNK     1      20.761   5.243  34.900  1.00  0.00     0.159 HD
ENDBRANCH  10  27
TORSDOF 3
ENDMDL
MODEL 2
REMARK VINA RESULT:      -9.1     15.819     20.813
REMARK  3 active torsions:
REMARK  status: ('A' for Active; 'I' for Inactive)
REMARK    1  A    between atoms: C10_17  and  N1_6 
REMARK       I    between atoms: C12_19  and  N1_6 
REMARK       I    between atoms: C11_18  and  N2_7 
REMARK    2  A    between atoms: C11_18  and  C9_16 
REMARK    3  A    between atoms: C12_19  and  C13_20 
ROOT
HETATM    1  S1  UNK     1      19.148  -4.191  11.647  1.00  0.00    -0.075 SA
HETATM    2  C1  UNK     1      22.390  -7.399  10.858  1.00  0.00     0.000 C 
HETATM    3  C2  UNK     1      21.989  -8.031  12.198  1.00  0.00     0.005 C 
HETATM    4  C3  UNK     1      21.498  -7.766   9.668  1.00  0.00     0.000 C 
HETATM    5  C4  UNK     1      20.534  -7.845  12.626  1.00  0.00     0.041 C 
HETATM    6  C5  UNK     1      20.537  -6.653   9.222  1.00  0.00     0.005 C 
HETATM    7  C6  UNK     1      20.073  -6.423  12.542  1.00  0.00    -0.026 A 
HETATM    8  C7  UNK     1      19.276  -6.488  10.073  1.00  0.00     0.046 C 
HETATM    9  C8  UNK     1      19.535  -5.843  11.404  1.00  0.00    -0.008 A 
HETATM   10  C9  UNK     1      20.153  -5.481  13.618  1.00  0.00     0.073 A 
HETATM   11  C10 UNK     1      19.684  -4.237  13.267  1.00  0.00     0.093 A 
ENDROOT
BRANCH  11  12
HETATM   12  N1  UNK     1      19.586  -3.073  13.980  1.00  0.00    -0.316 N 
HETATM   13  C12 UNK     1      18.723  -2.818  15.054  1.00  0.00     0.262 C 
HETATM   14  O3  UNK     1      17.897  -3.568  15.562  1.00  0.00    -0.267 OA
HETATM   15  H13 UNK     1      20.231  -2.342  13.689  1.00  0.00     0.169 HD
BRANCH  13  16
HETATM   16  C13 UNK     1      18.880  -1.451  15.594  1.00  0.00     0.108 A 
HETATM   17  C14 UNK     1      18.692  -1.311  16.912  1.00  0.00     0.037 A 
HETATM   18  C15 UNK     1      18.825  -0.003  17.536  1.00  0.00    -0.001 A 
HETATM   19  C17 UNK     1      19.147   1.093  16.740  1.00  0.00     0.089 A 
HETATM   20  C18 UNK     1      18.640   0.189  18.906  1.00  0.00     0.014 A 
HETATM   21  O2  UNK     1      19.342   0.938  15.354  1.00  0.00    -0.274 OA
HETATM   22  C19 UNK     1      19.288   2.371  17.276  1.00  0.00     0.038 A 
HETATM   23  C16 UNK     1      19.223  -0.300  14.729  1.00  0.00     0.304 A 
HETATM   24  O4  UNK     1      19.394  -0.425  13.521  1.00  0.00    -0.259 OA
HETATM   25  C21 UNK     1      19.102   2.555  18.644  1.00  0.00     0.003 A 
HETATM   26  C20 UNK     1      18.778   1.467  19.458  1.00  0.00     0.001 A 
ENDBRANCH  13  16
ENDBRANCH  11  12
BRANCH  10  27
HETATM   27  C11 UNK     1      20.670  -5.759  14.936  1.00  0.00     0.252 C 
HETATM   28  O1  UNK     1      21.874  -5.650  15.230  1.00  0.00    -0.268 OA
HETATM   29  N2  UNK     1      19.756  -6.144  15.914  1.00  0.00    -0.366 N 
HETATM   30  H14 UNK     1      18.764  -6.234  15.719  1.00  0.00     0.159 HD
HETATM   31  H15 UNK     1      20.058  -6.345  16.861  1.00  0.00     0.159 HD
ENDBRANCH  10  27
TORSDOF 3
ENDMDL
MODEL 3
REMARK VINA RESULT:      -9.1     13.843     17.197
REMARK  3 active torsions:
REMARK  status: ('A' for Active; 'I' for Inactive)
REMARK    1  A    between atoms: C10_17  and  N1_6 
REMARK       I    between atoms: C12_19  and  N1_6 
REMARK       I    between atoms: C11_18  and  N2_7 
REMARK    2  A    between atoms: C11_18  and  C9_16 
REMARK    3  A    between atoms: C12_19  and  C13_20 
ROOT
HETATM    1  S1  UNK     1      29.030  -8.813  37.783  1.00  0.00    -0.075 SA
HETATM    2  C1  UNK     1      32.528  -6.748  35.565  1.00  0.00     0.000 C 
HETATM    3  C2  UNK     1      32.594  -5.762  36.738  1.00  0.00     0.005 C 
HETATM    4  C3  UNK     1      33.239  -8.086  35.793  1.00  0.00     0.000 C 
HETATM    5  C4  UNK     1      32.161  -6.299  38.102  1.00  0.00     0.041 C 
HETATM    6  C5  UNK     1      32.301  -9.272  36.064  1.00  0.00     0.005 C 
HETATM    7  C6  UNK     1      30.839  -7.002  38.064  1.00  0.00    -0.026 A 
HETATM    8  C7  UNK     1      31.745  -9.363  37.487  1.00  0.00     0.046 C 
HETATM    9  C8  UNK     1      30.678  -8.349  37.777  1.00  0.00    -0.008 A 
HETATM   10  C9  UNK     1      29.577  -6.365  38.294  1.00  0.00     0.073 A 
HETATM   11  C10 UNK     1      28.517  -7.233  38.174  1.00  0.00     0.093 A 
ENDROOT
BRANCH  11  12
HETATM   12  N1  UNK     1      27.169  -7.039  38.309  1.00  0.00    -0.316 N 
HETATM   13  C12 UNK     1      26.273  -7.851  39.017  1.00  0.00     0.262 C 
HETATM   14  O3  UNK     1      26.507  -8.877  39.645  1.00  0.00    -0.267 OA
HETATM   15  H13 UNK     1      26.814  -6.203  37.852  1.00  0.00     0.169 HD
BRANCH  13  16
HETATM   16  C13 UNK     1      24.885  -7.347  38.955  1.00  0.00     0.108 A 
HETATM   17  C14 UNK     1      23.917  -8.266  39.059  1.00  0.00     0.037 A 
HETATM   18  C15 UNK     1      22.518  -7.867  39.009  1.00  0.00    -0.001 A 
HETATM   19  C17 UNK     1      22.208  -6.520  38.851  1.00  0.00     0.089 A 
HETATM   20  C18 UNK     1      21.477  -8.791  39.114  1.00  0.00     0.014 A 
HETATM   21  O2  UNK     1      23.232  -5.558  38.742  1.00  0.00    -0.274 OA
HETATM   22  C19 UNK     1      20.890  -6.073  38.795  1.00  0.00     0.038 A 
HETATM   23  C16 UNK     1      24.577  -5.909  38.787  1.00  0.00     0.304 A 
HETATM   24  O4  UNK     1      25.462  -5.065  38.691  1.00  0.00    -0.259 OA
HETATM   25  C21 UNK     1      19.857  -7.001  38.901  1.00  0.00     0.003 A 
HETATM   26  C20 UNK     1      20.149  -8.357  39.059  1.00  0.00     0.001 A 
ENDBRANCH  13  16
ENDBRANCH  11  12
BRANCH  10  27
HETATM   27  C11 UNK     1      29.389  -4.969  38.609  1.00  0.00     0.252 C 
HETATM   28  O1  UNK     1      29.028  -4.569  39.730  1.00  0.00    -0.268 OA
HETATM   29  N2  UNK     1      29.649  -4.045  37.600  1.00  0.00    -0.366 N 
HETATM   30  H14 UNK     1      29.956  -4.329  36.675  1.00  0.00     0.159 HD
HETATM   31  H15 UNK     1      29.542  -3.050  37.763  1.00  0.00     0.159 HD
ENDBRANCH  10  27
TORSDOF 3
ENDMDL
MODEL 4
REMARK VINA RESULT:      -9.0      1.119      1.876
REMARK  3 active torsions:
REMARK  status: ('A' for Active; 'I' for Inactive)
REMARK    1  A    between atoms: C10_17  and  N1_6 
REMARK       I    between atoms: C12_19  and  N1_6 
REMARK       I    between atoms: C11_18  and  N2_7 
REMARK    2  A    between atoms: C11_18  and  C9_16 
REMARK    3  A    between atoms: C12_19  and  C13_20 
ROOT
HETATM    1  S1  UNK     1      15.996   6.223  31.678  1.00  0.00    -0.075 SA
HETATM    2  C1  UNK     1      15.866   9.369  35.070  1.00  0.00     0.000 C 
HETATM    3  C2  UNK     1      17.350   9.633  34.784  1.00  0.00     0.005 C 
HETATM    4  C3  UNK     1      14.882  10.085  34.139  1.00  0.00     0.000 C 
HETATM    5  C4  UNK     1      17.814   9.408  33.345  1.00  0.00     0.041 C 
HETATM    6  C5  UNK     1      14.224   9.180  33.087  1.00  0.00     0.005 C 
HETATM    7  C6  UNK     1      17.386   8.085  32.790  1.00  0.00    -0.026 A 
HETATM    8  C7  UNK     1      15.086   8.851  31.866  1.00  0.00     0.046 C 
HETATM    9  C8  UNK     1      16.175   7.859  32.155  1.00  0.00    -0.008 A 
HETATM   10  C9  UNK     1      18.164   6.884  32.869  1.00  0.00     0.073 A 
HETATM   11  C10 UNK     1      17.528   5.804  32.303  1.00  0.00     0.093 A 
ENDROOT
BRANCH  11  12
HETATM   12  N1  UNK     1      17.909   4.497  32.170  1.00  0.00    -0.316 N 
HETATM   13  C12 UNK     1      18.446   3.893  31.025  1.00  0.00     0.262 C 
HETATM   14  O3  UNK     1      18.676   4.401  29.933  1.00  0.00    -0.267 OA
HETATM   15  H13 UNK     1      17.797   3.935  33.010  1.00  0.00     0.169 HD
BRANCH  13  16
HETATM   16  C13 UNK     1      18.747   2.461  31.229  1.00  0.00     0.108 A 
HETATM   17  C14 UNK     1      19.335   1.828  30.206  1.00  0.00     0.037 A 
HETATM   18  C15 UNK     1      19.671   0.416  30.313  1.00  0.00    -0.001 A 
HETATM   19  C17 UNK     1      19.369  -0.260  31.492  1.00  0.00     0.089 A 
HETATM   20  C18 UNK     1      20.285  -0.283  29.272  1.00  0.00     0.014 A 
HETATM   21  O2  UNK     1      18.750   0.412  32.564  1.00  0.00    -0.274 OA
HETATM   22  C19 UNK     1      19.664  -1.612  31.657  1.00  0.00     0.038 A 
HETATM   23  C16 UNK     1      18.418   1.761  32.491  1.00  0.00     0.304 A 
HETATM   24  O4  UNK     1      17.878   2.338  33.430  1.00  0.00    -0.259 OA
HETATM   25  C21 UNK     1      20.277  -2.302  30.614  1.00  0.00     0.003 A 
HETATM   26  C20 UNK     1      20.587  -1.640  29.424  1.00  0.00     0.001 A 
ENDBRANCH  13  16
ENDBRANCH  11  12
BRANCH  10  27
HETATM   27  C11 UNK     1      19.469   6.771  33.474  1.00  0.00     0.252 C 
HETATM   28  O1  UNK     1      20.517   6.658  32.812  1.00  0.00    -0.268 OA
HETATM   29  N2  UNK     1      19.536   6.813  34.864  1.00  0.00    -0.366 N 
HETATM   30  H14 UNK     1      18.706   6.916  35.441  1.00  0.00     0.159 HD
HETATM   31  H15 UNK     1      20.425   6.746  35.346  1.00  0.00     0.159 HD
ENDBRANCH  10  27
TORSDOF 3
ENDMDL
MODEL 5
REMARK VINA RESULT:      -9.0      8.472     13.092
REMARK  3 active torsions:
REMARK  status: ('A' for Active; 'I' for Inactive)
REMARK    1  A    between atoms: C10_17  and  N1_6 
REMARK       I    between atoms: C12_19  and  N1_6 
REMARK       I    between atoms: C11_18  and  N2_7 
REMARK    2  A    between atoms: C11_18  and  C9_16 
REMARK    3  A    between atoms: C12_19  and  C13_20 
ROOT
HETATM    1  S1  UNK     1      18.556  -6.921  37.467  1.00  0.00    -0.075 SA
HETATM    2  C1  UNK     1      21.873 -10.063  36.728  1.00  0.00     0.000 C 
HETATM    3  C2  UNK     1      22.688  -9.352  37.816  1.00  0.00     0.005 C 
HETATM    4  C3  UNK     1      20.818 -11.049  37.240  1.00  0.00     0.000 C 
HETATM    5  C4  UNK     1      21.890  -8.656  38.917  1.00  0.00     0.041 C 
HETATM    6  C5  UNK     1      19.371 -10.541  37.152  1.00  0.00     0.005 C 
HETATM    7  C6  UNK     1      20.808  -7.767  38.386  1.00  0.00    -0.026 A 
HETATM    8  C7  UNK     1      18.945  -9.566  38.252  1.00  0.00     0.046 C 
HETATM    9  C8  UNK     1      19.523  -8.191  38.088  1.00  0.00    -0.008 A 
HETATM   10  C9  UNK     1      20.976  -6.373  38.099  1.00  0.00     0.073 A 
HETATM   11  C10 UNK     1      19.833  -5.796  37.597  1.00  0.00     0.093 A 
ENDROOT
BRANCH  11  12
HETATM   12  N1  UNK     1      19.567  -4.514  37.198  1.00  0.00    -0.316 N 
HETATM   13  C12 UNK     1      19.817  -3.961  35.935  1.00  0.00     0.262 C 
HETATM   14  O3  UNK     1      20.315  -4.500  34.953  1.00  0.00    -0.267 OA
HETATM   15  H13 UNK     1      19.126  -3.933  37.906  1.00  0.00     0.169 HD
BRANCH  13  16
HETATM   16  C13 UNK     1      19.405  -2.545  35.846  1.00  0.00     0.108 A 
HETATM   17  C14 UNK     1      18.793  -2.038  36.923  1.00  0.00     0.037 A 
HETATM   18  C15 UNK     1      18.350  -0.652  36.930  1.00  0.00    -0.001 A 
HETATM   19  C17 UNK     1      18.572   0.131  35.802  1.00  0.00     0.089 A 
HETATM   20  C18 UNK     1      17.709  -0.082  38.032  1.00  0.00     0.014 A 
HETATM   21  O2  UNK     1      19.216  -0.408  34.671  1.00  0.00    -0.274 OA
HETATM   22  C19 UNK     1      18.172   1.465  35.745  1.00  0.00     0.038 A 
HETATM   23  C16 UNK     1      19.651  -1.730  34.635  1.00  0.00     0.304 A 
HETATM   24  O4  UNK     1      20.210  -2.191  33.645  1.00  0.00    -0.259 OA
HETATM   25  C21 UNK     1      17.533   2.026  36.848  1.00  0.00     0.003 A 
HETATM   26  C20 UNK     1      17.302   1.255  37.989  1.00  0.00     0.001 A 
ENDBRANCH  13  16
ENDBRANCH  11  12
BRANCH  10  27
HETATM   27  C11 UNK     1      22.192  -5.620  38.288  1.00  0.00     0.252 C 
HETATM   28  O1  UNK     1      22.467  -4.598  37.633  1.00  0.00    -0.268 OA
HETATM   29  N2  UNK     1      23.074  -6.063  39.270  1.00  0.00    -0.366 N 
HETATM   30  H14 UNK     1      22.882  -6.885  39.835  1.00  0.00     0.159 HD
HETATM   31  H15 UNK     1      23.940  -5.571  39.455  1.00  0.00     0.159 HD
ENDBRANCH  10  27
TORSDOF 3
ENDMDL
MODEL 6
REMARK VINA RESULT:      -8.9     14.654     17.295
REMARK  3 active torsions:
REMARK  status: ('A' for Active; 'I' for Inactive)
REMARK    1  A    between atoms: C10_17  and  N1_6 
REMARK       I    between atoms: C12_19  and  N1_6 
REMARK       I    between atoms: C11_18  and  N2_7 
REMARK    2  A    between atoms: C11_18  and  C9_16 
REMARK    3  A    between atoms: C12_19  and  C13_20 
ROOT
HETATM    1  S1  UNK     1      29.729  -8.968  36.948  1.00  0.00    -0.075 SA
HETATM    2  C1  UNK     1      32.706  -5.613  35.807  1.00  0.00     0.000 C 
HETATM    3  C2  UNK     1      32.408  -4.983  37.174  1.00  0.00     0.005 C 
HETATM    4  C3  UNK     1      33.732  -6.751  35.820  1.00  0.00     0.000 C 
HETATM    5  C4  UNK     1      32.028  -5.947  38.297  1.00  0.00     0.041 C 
HETATM    6  C5  UNK     1      33.130  -8.156  35.667  1.00  0.00     0.005 C 
HETATM    7  C6  UNK     1      30.953  -6.913  37.903  1.00  0.00    -0.026 A 
HETATM    8  C7  UNK     1      32.507  -8.749  36.933  1.00  0.00     0.046 C 
HETATM    9  C8  UNK     1      31.186  -8.135  37.292  1.00  0.00    -0.008 A 
HETATM   10  C9  UNK     1      29.551  -6.682  38.088  1.00  0.00     0.073 A 
HETATM   11  C10 UNK     1      28.779  -7.717  37.616  1.00  0.00     0.093 A 
ENDROOT
BRANCH  11  12
HETATM   12  N1  UNK     1      27.422  -7.897  37.593  1.00  0.00    -0.316 N 
HETATM   13  C12 UNK     1      26.626  -8.400  38.630  1.00  0.00     0.262 C 
HETATM   14  O3  UNK     1      26.974  -8.774  39.745  1.00  0.00    -0.267 OA
HETATM   15  H13 UNK     1      26.972  -7.611  36.727  1.00  0.00     0.169 HD
BRANCH  13  16
HETATM   16  C13 UNK     1      25.195  -8.461  38.266  1.00  0.00     0.108 A 
HETATM   17  C14 UNK     1      24.362  -7.733  39.019  1.00  0.00     0.037 A 
HETATM   18  C15 UNK     1      22.934  -7.729  38.738  1.00  0.00    -0.001 A 
HETATM   19  C17 UNK     1      22.454  -8.494  37.678  1.00  0.00     0.089 A 
HETATM   20  C18 UNK     1      22.028  -6.984  39.496  1.00  0.00     0.014 A 
HETATM   21  O2  UNK     1      23.337  -9.258  36.890  1.00  0.00    -0.274 OA
HETATM   22  C19 UNK     1      21.099  -8.534  37.357  1.00  0.00     0.038 A 
HETATM   23  C16 UNK     1      24.707  -9.281  37.134  1.00  0.00     0.304 A 
HETATM   24  O4  UNK     1      25.468  -9.951  36.444  1.00  0.00    -0.259 OA
HETATM   25  C21 UNK     1      20.202  -7.788  38.118  1.00  0.00     0.003 A 
HETATM   26  C20 UNK     1      20.665  -7.015  39.185  1.00  0.00     0.001 A 
ENDBRANCH  13  16
ENDBRANCH  11  12
BRANCH  10  27
HETATM   27  C11 UNK     1      28.968  -5.506  38.687  1.00  0.00     0.252 C 
HETATM   28  O1  UNK     1      28.389  -5.521  39.788  1.00  0.00    -0.268 OA
HETATM   29  N2  UNK     1      29.089  -4.306  37.991  1.00  0.00    -0.366 N 
HETATM   30  H14 UNK     1      29.563  -4.248  37.095  1.00  0.00     0.159 HD
HETATM   31  H15 UNK     1      28.706  -3.445  38.365  1.00  0.00     0.159 HD
ENDBRANCH  10  27
TORSDOF 3
ENDMDL
MODEL 7
REMARK VINA RESULT:      -8.8      7.467      9.771
REMARK  3 active torsions:
REMARK  status: ('A' for Active; 'I' for Inactive)
REMARK    1  A    between atoms: C10_17  and  N1_6 
REMARK       I    between atoms: C12_19  and  N1_6 
REMARK       I    between atoms: C11_18  and  N2_7 
REMARK    2  A    between atoms: C11_18  and  C9_16 
REMARK    3  A    between atoms: C12_19  and  C13_20 
ROOT
HETATM    1  S1  UNK     1      18.119  -2.274  37.408  1.00  0.00    -0.075 SA
HETATM    2  C1  UNK     1      18.979   2.045  35.984  1.00  0.00     0.000 C 
HETATM    3  C2  UNK     1      18.844   1.521  34.547  1.00  0.00     0.005 C 
HETATM    4  C3  UNK     1      17.658   2.361  36.692  1.00  0.00     0.000 C 
HETATM    5  C4  UNK     1      17.905   0.333  34.344  1.00  0.00     0.041 C 
HETATM    6  C5  UNK     1      17.233   1.327  37.746  1.00  0.00     0.005 C 
HETATM    7  C6  UNK     1      18.159  -0.788  35.304  1.00  0.00    -0.026 A 
HETATM    8  C7  UNK     1      16.594   0.049  37.198  1.00  0.00     0.046 C 
HETATM    9  C8  UNK     1      17.581  -0.886  36.561  1.00  0.00    -0.008 A 
HETATM   10  C9  UNK     1      19.047  -1.883  35.053  1.00  0.00     0.073 A 
HETATM   11  C10 UNK     1      19.116  -2.760  36.110  1.00  0.00     0.093 A 
ENDROOT
BRANCH  11  12
HETATM   12  N1  UNK     1      19.831  -3.914  36.283  1.00  0.00    -0.316 N 
HETATM   13  C12 UNK     1      19.313  -5.206  36.437  1.00  0.00     0.262 C 
HETATM   14  O3  UNK     1      18.139  -5.560  36.448  1.00  0.00    -0.267 OA
HETATM   15  H13 UNK     1      20.841  -3.791  36.278  1.00  0.00     0.169 HD
BRANCH  13  16
HETATM   16  C13 UNK     1      20.371  -6.225  36.603  1.00  0.00     0.108 A 
HETATM   17  C14 UNK     1      20.283  -7.303  35.815  1.00  0.00     0.037 A 
HETATM   18  C15 UNK     1      21.279  -8.360  35.906  1.00  0.00    -0.001 A 
HETATM   19  C17 UNK     1      22.317  -8.230  36.823  1.00  0.00     0.089 A 
HETATM   20  C18 UNK     1      21.227  -9.502  35.104  1.00  0.00     0.014 A 
HETATM   21  O2  UNK     1      22.404  -7.092  37.650  1.00  0.00    -0.274 OA
HETATM   22  C19 UNK     1      23.302  -9.206  36.960  1.00  0.00     0.038 A 
HETATM   23  C16 UNK     1      21.467  -6.065  37.585  1.00  0.00     0.304 A 
HETATM   24  O4  UNK     1      21.549  -5.079  38.310  1.00  0.00    -0.259 OA
HETATM   25  C21 UNK     1      23.243 -10.342  36.156  1.00  0.00     0.003 A 
HETATM   26  C20 UNK     1      22.209 -10.490  35.229  1.00  0.00     0.001 A 
ENDBRANCH  13  16
ENDBRANCH  11  12
BRANCH  10  27
HETATM   27  C11 UNK     1      19.812  -2.080  33.846  1.00  0.00     0.252 C 
HETATM   28  O1  UNK     1      20.999  -2.456  33.848  1.00  0.00    -0.268 OA
HETATM   29  N2  UNK     1      19.166  -1.854  32.634  1.00  0.00    -0.366 N 
HETATM   30  H14 UNK     1      18.195  -1.559  32.588  1.00  0.00     0.159 HD
HETATM   31  H15 UNK     1      19.649  -1.984  31.752  1.00  0.00     0.159 HD
ENDBRANCH  10  27
TORSDOF 3
ENDMDL
MODEL 8
REMARK VINA RESULT:      -8.8      8.508     13.282
REMARK  3 active torsions:
REMARK  status: ('A' for Active; 'I' for Inactive)
REMARK    1  A    between atoms: C10_17  and  N1_6 
REMARK       I    between atoms: C12_19  and  N1_6 
REMARK       I    between atoms: C11_18  and  N2_7 
REMARK    2  A    between atoms: C11_18  and  C9_16 
REMARK    3  A    between atoms: C12_19  and  C13_20 
ROOT
HETATM    1  S1  UNK     1      20.940  -6.250  38.773  1.00  0.00    -0.075 SA
HETATM    2  C1  UNK     1      18.997 -10.400  38.120  1.00  0.00     0.000 C 
HETATM    3  C2  UNK     1      19.587 -10.373  36.704  1.00  0.00     0.005 C 
HETATM    4  C3  UNK     1      19.964 -10.839  39.224  1.00  0.00     0.000 C 
HETATM    5  C4  UNK     1      20.889  -9.593  36.526  1.00  0.00     0.041 C 
HETATM    6  C5  UNK     1      20.486  -9.696  40.109  1.00  0.00     0.005 C 
HETATM    7  C6  UNK     1      20.835  -8.217  37.113  1.00  0.00    -0.026 A 
HETATM    8  C7  UNK     1      21.612  -8.854  39.505  1.00  0.00     0.046 C 
HETATM    9  C8  UNK     1      21.144  -7.916  38.430  1.00  0.00    -0.008 A 
HETATM   10  C9  UNK     1      20.433  -7.045  36.393  1.00  0.00     0.073 A 
HETATM   11  C10 UNK     1      20.448  -5.913  37.174  1.00  0.00     0.093 A 
ENDROOT
BRANCH  11  12
HETATM   12  N1  UNK     1      20.139  -4.612  36.887  1.00  0.00    -0.316 N 
HETATM   13  C12 UNK     1      18.861  -4.084  36.659  1.00  0.00     0.262 C 
HETATM   14  O3  UNK     1      17.783  -4.668  36.669  1.00  0.00    -0.267 OA
HETATM   15  H13 UNK     1      20.938  -3.983  36.860  1.00  0.00     0.169 HD
BRANCH  13  16
HETATM   16  C13 UNK     1      18.890  -2.634  36.375  1.00  0.00     0.108 A 
HETATM   17  C14 UNK     1      17.991  -1.886  37.025  1.00  0.00     0.037 A 
HETATM   18  C15 UNK     1      17.942  -0.447  36.811  1.00  0.00    -0.001 A 
HETATM   19  C17 UNK     1      18.841   0.131  35.921  1.00  0.00     0.089 A 
HETATM   20  C18 UNK     1      17.022   0.372  37.468  1.00  0.00     0.014 A 
HETATM   21  O2  UNK     1      19.785  -0.662  35.239  1.00  0.00    -0.274 OA
HETATM   22  C19 UNK     1      18.846   1.503  35.671  1.00  0.00     0.038 A 
HETATM   23  C16 UNK     1      19.856  -2.040  35.424  1.00  0.00     0.304 A 
HETATM   24  O4  UNK     1      20.680  -2.723  34.825  1.00  0.00    -0.259 OA
HETATM   25  C21 UNK     1      17.925   2.312  36.331  1.00  0.00     0.003 A 
HETATM   26  C20 UNK     1      17.015   1.749  37.228  1.00  0.00     0.001 A 
ENDBRANCH  13  16
ENDBRANCH  11  12
BRANCH  10  27
HETATM   27  C11 UNK     1      20.039  -7.010  35.005  1.00  0.00     0.252 C 
HETATM   28  O1  UNK     1      20.856  -6.967  34.068  1.00  0.00    -0.268 OA
HETATM   29  N2  UNK     1      18.675  -7.047  34.726  1.00  0.00    -0.366 N 
HETATM   30  H14 UNK     1      17.976  -7.094  35.461  1.00  0.00     0.159 HD
HETATM   31  H15 UNK     1      18.337  -7.033  33.770  1.00  0.00     0.159 HD
ENDBRANCH  10  27
TORSDOF 3
ENDMDL
MODEL 9
REMARK VINA RESULT:      -8.7     15.313     17.299
REMARK  3 active torsions:
REMARK  status: ('A' for Active; 'I' for Inactive)
REMARK    1  A    between atoms: C10_17  and  N1_6 
REMARK       I    between atoms: C12_19  and  N1_6 
REMARK       I    between atoms: C11_18  and  N2_7 
REMARK    2  A    between atoms: C11_18  and  C9_16 
REMARK    3  A    between atoms: C12_19  and  C13_20 
ROOT
HETATM    1  S1  UNK     1      30.082  -8.762  36.505  1.00  0.00    -0.075 SA
HETATM    2  C1  UNK     1      32.814  -5.085  35.844  1.00  0.00     0.000 C 
HETATM    3  C2  UNK     1      32.446  -4.646  37.268  1.00  0.00     0.005 C 
HETATM    4  C3  UNK     1      33.923  -6.138  35.748  1.00  0.00     0.000 C 
HETATM    5  C4  UNK     1      32.122  -5.763  38.259  1.00  0.00     0.041 C 
HETATM    6  C5  UNK     1      33.433  -7.555  35.416  1.00  0.00     0.005 C 
HETATM    7  C6  UNK     1      31.130  -6.751  37.727  1.00  0.00    -0.026 A 
HETATM    8  C7  UNK     1      32.836  -8.339  36.587  1.00  0.00     0.046 C 
HETATM    9  C8  UNK     1      31.465  -7.871  36.982  1.00  0.00    -0.008 A 
HETATM   10  C9  UNK     1      29.712  -6.648  37.901  1.00  0.00     0.073 A 
HETATM   11  C10 UNK     1      29.028  -7.673  37.291  1.00  0.00     0.093 A 
ENDROOT
BRANCH  11  12
HETATM   12  N1  UNK     1      27.690  -7.948  37.212  1.00  0.00    -0.316 N 
HETATM   13  C12 UNK     1      27.010  -8.991  37.854  1.00  0.00     0.262 C 
HETATM   14  O3  UNK     1      27.464  -9.852  38.599  1.00  0.00    -0.267 OA
HETATM   15  H13 UNK     1      27.158  -7.301  36.636  1.00  0.00     0.169 HD
BRANCH  13  16
HETATM   16  C13 UNK     1      25.564  -8.996  37.548  1.00  0.00     0.108 A 
HETATM   17  C14 UNK     1      25.124 -10.003  36.784  1.00  0.00     0.037 A 
HETATM   18  C15 UNK     1      23.716 -10.093  36.429  1.00  0.00    -0.001 A 
HETATM   19  C17 UNK     1      22.841  -9.117  36.895  1.00  0.00     0.089 A 
HETATM   20  C18 UNK     1      23.213 -11.126  35.635  1.00  0.00     0.014 A 
HETATM   21  O2  UNK     1      23.310  -8.059  37.699  1.00  0.00    -0.274 OA
HETATM   22  C19 UNK     1      21.481  -9.145  36.591  1.00  0.00     0.038 A 
HETATM   23  C16 UNK     1      24.651  -7.948  38.055  1.00  0.00     0.304 A 
HETATM   24  O4  UNK     1      25.051  -7.022  38.755  1.00  0.00    -0.259 OA
HETATM   25  C21 UNK     1      20.988 -10.179  35.799  1.00  0.00     0.003 A 
HETATM   26  C20 UNK     1      21.851 -11.167  35.321  1.00  0.00     0.001 A 
ENDBRANCH  13  16
ENDBRANCH  11  12
BRANCH  10  27
HETATM   27  C11 UNK     1      29.031  -5.598  38.620  1.00  0.00     0.252 C 
HETATM   28  O1  UNK     1      28.456  -5.782  39.708  1.00  0.00    -0.268 OA
HETATM   29  N2  UNK     1      29.049  -4.323  38.060  1.00  0.00    -0.366 N 
HETATM   30  H14 UNK     1      29.516  -4.128  37.179  1.00  0.00     0.159 HD
HETATM   31  H15 UNK     1      28.595  -3.543  38.522  1.00  0.00     0.159 HD
ENDBRANCH  10  27
TORSDOF 3
ENDMDL
MODEL 10
REMARK VINA RESULT:      -8.6     13.723     16.805
REMARK  3 active torsions:
REMARK  status: ('A' for Active; 'I' for Inactive)
REMARK    1  A    between atoms: C10_17  and  N1_6 
REMARK       I    between atoms: C12_19  and  N1_6 
REMARK       I    between atoms: C11_18  and  N2_7 
REMARK    2  A    between atoms: C11_18  and  C9_16 
REMARK    3  A    between atoms: C12_19  and  C13_20 
ROOT
HETATM    1  S1  UNK     1      18.610  -0.880  18.753  1.00  0.00    -0.075 SA
HETATM    2  C1  UNK     1      21.262   2.599  20.263  1.00  0.00     0.000 C 
HETATM    3  C2  UNK     1      20.591   3.477  19.198  1.00  0.00     0.005 C 
HETATM    4  C3  UNK     1      20.466   2.419  21.560  1.00  0.00     0.000 C 
HETATM    5  C4  UNK     1      19.157   3.110  18.822  1.00  0.00     0.041 C 
HETATM    6  C5  UNK     1      19.793   1.047  21.712  1.00  0.00     0.005 C 
HETATM    7  C6  UNK     1      18.984   1.657  18.508  1.00  0.00    -0.026 A 
HETATM    8  C7  UNK     1      18.492   0.859  20.928  1.00  0.00     0.046 C 
HETATM    9  C8  UNK     1      18.706   0.681  19.452  1.00  0.00    -0.008 A 
HETATM   10  C9  UNK     1      19.110   1.091  17.198  1.00  0.00     0.073 A 
HETATM   11  C10 UNK     1      18.930  -0.272  17.191  1.00  0.00     0.093 A 
ENDROOT
BRANCH  11  12
HETATM   12  N1  UNK     1      18.967  -1.184  16.171  1.00  0.00    -0.316 N 
HETATM   13  C12 UNK     1      17.986  -2.136  15.863  1.00  0.00     0.262 C 
HETATM   14  O3  UNK     1      16.919  -2.342  16.430  1.00  0.00    -0.267 OA
HETATM   15  H13 UNK     1      19.796  -1.130  15.585  1.00  0.00     0.169 HD
BRANCH  13  16
HETATM   16  C13 UNK     1      18.351  -2.964  14.694  1.00  0.00     0.108 A 
HETATM   17  C14 UNK     1      18.374  -4.288  14.891  1.00  0.00     0.037 A 
HETATM   18  C15 UNK     1      18.722  -5.186  13.800  1.00  0.00    -0.001 A 
HETATM   19  C17 UNK     1      19.028  -4.644  12.555  1.00  0.00     0.089 A 
HETATM   20  C18 UNK     1      18.758  -6.572  13.960  1.00  0.00     0.014 A 
HETATM   21  O2  UNK     1      19.002  -3.250  12.354  1.00  0.00    -0.274 OA
HETATM   22  C19 UNK     1      19.370  -5.449  11.469  1.00  0.00     0.038 A 
HETATM   23  C16 UNK     1      18.673  -2.367  13.378  1.00  0.00     0.304 A 
HETATM   24  O4  UNK     1      18.654  -1.155  13.195  1.00  0.00    -0.259 OA
HETATM   25  C21 UNK     1      19.403  -6.831  11.637  1.00  0.00     0.003 A 
HETATM   26  C20 UNK     1      19.098  -7.392  12.879  1.00  0.00     0.001 A 
ENDBRANCH  13  16
ENDBRANCH  11  12
BRANCH  10  27
HETATM   27  C11 UNK     1      19.404   1.829  15.993  1.00  0.00     0.252 C 
HETATM   28  O1  UNK     1      19.952   1.317  15.000  1.00  0.00    -0.268 OA
HETATM   29  N2  UNK     1      19.029   3.169  15.956  1.00  0.00    -0.366 N 
HETATM   30  H14 UNK     1      18.570   3.623  16.740  1.00  0.00     0.159 HD
HETATM   31  H15 UNK     1      19.202   3.737  15.133  1.00  0.00     0.159 HD
ENDBRANCH  10  27
TORSDOF 3
ENDMDL
