MODEL 1
REMARK VINA RESULT:      -9.5      0.000      0.000
REMARK  5 active torsions:
REMARK  status: ('A' for Active; 'I' for Inactive)
REMARK    1  A    between atoms: C17_25  and  O2_5 
REMARK    2  A    between atoms: C5_13  and  O2_5 
REMARK    3  A    between atoms: C10_18  and  N1_8 
REMARK       I    between atoms: C9_17  and  N1_8 
REMARK    4  A    between atoms: C3_11  and  C9_17 
REMARK    5  A    between atoms: C12_20  and  C18_26 
ROOT
HETATM    1  O1  UNK     1      19.393  -0.985  34.690  1.00  0.00    -0.271 OA
HETATM    2  O3  UNK     1      20.551  -2.858  34.082  1.00  0.00    -0.259 OA
HETATM    3  C1  UNK     1      18.448  -0.830  36.924  1.00  0.00     0.002 A 
HETATM    4  C2  UNK     1      18.666  -0.277  35.666  1.00  0.00     0.123 A 
HETATM    5  C3  UNK     1      19.673  -2.819  36.283  1.00  0.00     0.108 A 
HETATM    6  C4  UNK     1      18.983  -2.151  37.214  1.00  0.00     0.037 A 
HETATM    7  C5  UNK     1      18.180   0.983  35.325  1.00  0.00     0.103 A 
HETATM    8  C6  UNK     1      17.723  -0.097  37.866  1.00  0.00     0.014 A 
HETATM    9  C7  UNK     1      19.919  -2.250  34.939  1.00  0.00     0.304 A 
HETATM   10  C8  UNK     1      17.458   1.708  36.270  1.00  0.00     0.040 A 
HETATM   11  C11 UNK     1      17.229   1.169  37.538  1.00  0.00     0.004 A 
ENDROOT
BRANCH   5  12
HETATM   12  C9  UNK     1      20.173  -4.144  36.670  1.00  0.00     0.262 C 
HETATM   13  O4  UNK     1      21.319  -4.262  37.099  1.00  0.00    -0.267 OA
HETATM   14  N1  UNK     1      19.221  -5.138  36.485  1.00  0.00    -0.323 N 
HETATM   15  H5  UNK     1      18.303  -4.869  36.138  1.00  0.00     0.169 HD
BRANCH  14  16
HETATM   16  C10 UNK     1      19.355  -6.522  36.750  1.00  0.00     0.035 A 
HETATM   17  C13 UNK     1      19.940  -7.339  35.799  1.00  0.00     0.030 A 
HETATM   18  C15 UNK     1      20.073  -8.703  36.059  1.00  0.00     0.018 A 
HETATM   19  C12 UNK     1      19.616  -9.229  37.267  1.00  0.00     0.048 A 
HETATM   20  C16 UNK     1      19.027  -8.392  38.215  1.00  0.00     0.018 A 
HETATM   21  C14 UNK     1      18.896  -7.028  37.954  1.00  0.00     0.030 A 
BRANCH  19  22
HETATM   22  C18 UNK     1      19.757 -10.688  37.547  1.00  0.00     0.417 C 
HETATM   23  F1  UNK     1      19.238 -11.067  38.752  1.00  0.00    -0.166 F 
HETATM   24  F2  UNK     1      19.136 -11.482  36.625  1.00  0.00    -0.166 F 
HETATM   25  F3  UNK     1      21.059 -11.096  37.564  1.00  0.00    -0.166 F 
ENDBRANCH  19  22
ENDBRANCH  14  16
ENDBRANCH   5  12
BRANCH   7  26
HETATM   26  O2  UNK     1      18.401   1.512  34.092  1.00  0.00    -0.349 OA
BRANCH  26  27
HETATM   27  C17 UNK     1      18.229   2.922  33.948  1.00  0.00     0.171 C 
HETATM   28  C19 UNK     1      18.133   3.260  32.476  1.00  0.00     0.034 C 
ENDBRANCH  26  27
ENDBRANCH   7  26
TORSDOF 5
ENDMDL
MODEL 2
REMARK VINA RESULT:      -9.2      2.728      4.106
REMARK  5 active torsions:
REMARK  status: ('A' for Active; 'I' for Inactive)
REMARK    1  A    between atoms: C17_25  and  O2_5 
REMARK    2  A    between atoms: C5_13  and  O2_5 
REMARK    3  A    between atoms: C10_18  and  N1_8 
REMARK       I    between atoms: C9_17  and  N1_8 
REMARK    4  A    between atoms: C3_11  and  C9_17 
REMARK    5  A    between atoms: C12_20  and  C18_26 
ROOT
HETATM    1  O1  UNK     1      18.505   0.178  33.074  1.00  0.00    -0.271 OA
HETATM    2  O3  UNK     1      17.937   0.005  35.279  1.00  0.00    -0.259 OA
HETATM    3  C1  UNK     1      19.958  -1.494  32.073  1.00  0.00     0.002 A 
HETATM    4  C2  UNK     1      19.200  -0.333  31.960  1.00  0.00     0.123 A 
HETATM    5  C3  UNK     1      19.361  -1.680  34.414  1.00  0.00     0.108 A 
HETATM    6  C4  UNK     1      20.023  -2.170  33.360  1.00  0.00     0.037 A 
HETATM    7  C5  UNK     1      19.097   0.362  30.757  1.00  0.00     0.103 A 
HETATM    8  C6  UNK     1      20.633  -1.970  30.947  1.00  0.00     0.014 A 
HETATM    9  C7  UNK     1      18.546  -0.448  34.317  1.00  0.00     0.304 A 
HETATM   10  C8  UNK     1      19.773  -0.120  29.639  1.00  0.00     0.040 A 
HETATM   11  C11 UNK     1      20.540  -1.284  29.733  1.00  0.00     0.004 A 
ENDROOT
BRANCH   5  12
HETATM   12  C9  UNK     1      19.487  -2.432  35.667  1.00  0.00     0.262 C 
HETATM   13  O4  UNK     1      19.316  -1.860  36.742  1.00  0.00    -0.267 OA
HETATM   14  N1  UNK     1      19.803  -3.767  35.449  1.00  0.00    -0.323 N 
HETATM   15  H5  UNK     1      19.890  -4.092  34.489  1.00  0.00     0.169 HD
BRANCH  14  16
HETATM   16  C10 UNK     1      20.000  -4.778  36.419  1.00  0.00     0.035 A 
HETATM   17  C13 UNK     1      21.075  -4.684  37.285  1.00  0.00     0.030 A 
HETATM   18  C15 UNK     1      21.271  -5.680  38.242  1.00  0.00     0.018 A 
HETATM   19  C12 UNK     1      20.386  -6.756  38.318  1.00  0.00     0.048 A 
HETATM   20  C16 UNK     1      19.308  -6.836  37.437  1.00  0.00     0.018 A 
HETATM   21  C14 UNK     1      19.113  -5.839  36.481  1.00  0.00     0.030 A 
BRANCH  19  22
HETATM   22  C18 UNK     1      20.594  -7.822  39.340  1.00  0.00     0.417 C 
HETATM   23  F1  UNK     1      19.557  -7.946  40.220  1.00  0.00    -0.166 F 
HETATM   24  F2  UNK     1      20.758  -9.068  38.805  1.00  0.00    -0.166 F 
HETATM   25  F3  UNK     1      21.701  -7.604  40.109  1.00  0.00    -0.166 F 
ENDBRANCH  19  22
ENDBRANCH  14  16
ENDBRANCH   5  12
BRANCH   7  26
HETATM   26  O2  UNK     1      18.352   1.495  30.661  1.00  0.00    -0.349 OA
BRANCH  26  27
HETATM   27  C17 UNK     1      18.692   2.411  29.621  1.00  0.00     0.171 C 
HETATM   28  C19 UNK     1      18.860   3.793  30.215  1.00  0.00     0.034 C 
ENDBRANCH  26  27
ENDBRANCH   7  26
TORSDOF 5
ENDMDL
MODEL 3
REMARK VINA RESULT:      -9.2      8.617     10.640
REMARK  5 active torsions:
REMARK  status: ('A' for Active; 'I' for Inactive)
REMARK    1  A    between atoms: C17_25  and  O2_5 
REMARK    2  A    between atoms: C5_13  and  O2_5 
REMARK    3  A    between atoms: C10_18  and  N1_8 
REMARK       I    between atoms: C9_17  and  N1_8 
REMARK    4  A    between atoms: C3_11  and  C9_17 
REMARK    5  A    between atoms: C12_20  and  C18_26 
ROOT
HETATM    1  O1  UNK     1      17.872   8.015  33.730  1.00  0.00    -0.271 OA
HETATM    2  O3  UNK     1      19.910   7.071  33.314  1.00  0.00    -0.259 OA
HETATM    3  C1  UNK     1      15.897   7.152  32.606  1.00  0.00     0.002 A 
HETATM    4  C2  UNK     1      16.484   8.050  33.491  1.00  0.00     0.123 A 
HETATM    5  C3  UNK     1      18.057   6.149  32.160  1.00  0.00     0.108 A 
HETATM    6  C4  UNK     1      16.740   6.178  31.930  1.00  0.00     0.037 A 
HETATM    7  C5  UNK     1      15.734   9.007  34.171  1.00  0.00     0.103 A 
HETATM    8  C6  UNK     1      14.518   7.217  32.396  1.00  0.00     0.014 A 
HETATM    9  C7  UNK     1      18.704   7.094  33.099  1.00  0.00     0.304 A 
HETATM   10  C8  UNK     1      14.359   9.066  33.956  1.00  0.00     0.040 A 
HETATM   11  C11 UNK     1      13.752   8.173  33.070  1.00  0.00     0.004 A 
ENDROOT
BRANCH   5  12
HETATM   12  C9  UNK     1      18.822   5.131  31.432  1.00  0.00     0.262 C 
HETATM   13  O4  UNK     1      19.894   5.431  30.908  1.00  0.00    -0.267 OA
HETATM   14  N1  UNK     1      18.188   3.896  31.436  1.00  0.00    -0.323 N 
HETATM   15  H5  UNK     1      17.307   3.806  31.937  1.00  0.00     0.169 HD
BRANCH  14  16
HETATM   16  C10 UNK     1      18.633   2.694  30.835  1.00  0.00     0.035 A 
HETATM   17  C13 UNK     1      18.580   2.566  29.458  1.00  0.00     0.030 A 
HETATM   18  C15 UNK     1      19.019   1.382  28.865  1.00  0.00     0.018 A 
HETATM   19  C12 UNK     1      19.504   0.343  29.660  1.00  0.00     0.048 A 
HETATM   20  C16 UNK     1      19.550   0.488  31.046  1.00  0.00     0.018 A 
HETATM   21  C14 UNK     1      19.112   1.672  31.638  1.00  0.00     0.030 A 
BRANCH  19  22
HETATM   22  C18 UNK     1      19.973  -0.924  29.027  1.00  0.00     0.417 C 
HETATM   23  F1  UNK     1      19.279  -1.264  27.901  1.00  0.00    -0.166 F 
HETATM   24  F2  UNK     1      21.283  -0.888  28.640  1.00  0.00    -0.166 F 
HETATM   25  F3  UNK     1      19.867  -1.999  29.861  1.00  0.00    -0.166 F 
ENDBRANCH  19  22
ENDBRANCH  14  16
ENDBRANCH   5  12
BRANCH   7  26
HETATM   26  O2  UNK     1      16.321   9.879  35.034  1.00  0.00    -0.349 OA
BRANCH  26  27
HETATM   27  C17 UNK     1      16.370  11.250  34.641  1.00  0.00     0.171 C 
HETATM   28  C19 UNK     1      17.758  11.567  34.125  1.00  0.00     0.034 C 
ENDBRANCH  26  27
ENDBRANCH   7  26
TORSDOF 5
ENDMDL
MODEL 4
REMARK VINA RESULT:      -9.1      8.611     12.832
REMARK  5 active torsions:
REMARK  status: ('A' for Active; 'I' for Inactive)
REMARK    1  A    between atoms: C17_25  and  O2_5 
REMARK    2  A    between atoms: C5_13  and  O2_5 
REMARK    3  A    between atoms: C10_18  and  N1_8 
REMARK       I    between atoms: C9_17  and  N1_8 
REMARK    4  A    between atoms: C3_11  and  C9_17 
REMARK    5  A    between atoms: C12_20  and  C18_26 
ROOT
HETATM    1  O1  UNK     1      18.718   0.670  32.648  1.00  0.00    -0.271 OA
HETATM    2  O3  UNK     1      17.913   2.504  33.748  1.00  0.00    -0.259 OA
HETATM    3  C1  UNK     1      19.458   0.882  30.342  1.00  0.00     0.002 A 
HETATM    4  C2  UNK     1      19.253   0.102  31.475  1.00  0.00     0.123 A 
HETATM    5  C3  UNK     1      18.603   2.829  31.504  1.00  0.00     0.108 A 
HETATM    6  C4  UNK     1      19.110   2.294  30.388  1.00  0.00     0.037 A 
HETATM    7  C5  UNK     1      19.564  -1.256  31.497  1.00  0.00     0.103 A 
HETATM    8  C6  UNK     1      19.990   0.283  29.199  1.00  0.00     0.014 A 
HETATM    9  C7  UNK     1      18.378   2.018  32.722  1.00  0.00     0.304 A 
HETATM   10  C8  UNK     1      20.095  -1.846  30.353  1.00  0.00     0.040 A 
HETATM   11  C11 UNK     1      20.308  -1.079  29.205  1.00  0.00     0.004 A 
ENDROOT
BRANCH   5  12
HETATM   12  C9  UNK     1      18.285   4.260  31.453  1.00  0.00     0.262 C 
HETATM   13  O4  UNK     1      18.577   4.914  30.453  1.00  0.00    -0.267 OA
HETATM   14  N1  UNK     1      17.661   4.701  32.612  1.00  0.00    -0.323 N 
HETATM   15  H5  UNK     1      17.470   4.023  33.346  1.00  0.00     0.169 HD
BRANCH  14  16
HETATM   16  C10 UNK     1      17.217   6.012  32.909  1.00  0.00     0.035 A 
HETATM   17  C13 UNK     1      16.145   6.538  32.209  1.00  0.00     0.030 A 
HETATM   18  C15 UNK     1      15.707   7.830  32.501  1.00  0.00     0.018 A 
HETATM   19  C12 UNK     1      16.348   8.576  33.490  1.00  0.00     0.048 A 
HETATM   20  C16 UNK     1      17.427   8.031  34.185  1.00  0.00     0.018 A 
HETATM   21  C14 UNK     1      17.864   6.740  33.893  1.00  0.00     0.030 A 
BRANCH  19  22
HETATM   22  C18 UNK     1      15.880   9.957  33.803  1.00  0.00     0.417 C 
HETATM   23  F1  UNK     1      14.993  10.455  32.891  1.00  0.00    -0.166 F 
HETATM   24  F2  UNK     1      15.245  10.059  35.008  1.00  0.00    -0.166 F 
HETATM   25  F3  UNK     1      16.902  10.861  33.850  1.00  0.00    -0.166 F 
ENDBRANCH  19  22
ENDBRANCH  14  16
ENDBRANCH   5  12
BRANCH   7  26
HETATM   26  O2  UNK     1      19.359  -2.007  32.612  1.00  0.00    -0.349 OA
BRANCH  26  27
HETATM   27  C17 UNK     1      20.516  -2.463  33.312  1.00  0.00     0.171 C 
HETATM   28  C19 UNK     1      20.227  -2.460  34.797  1.00  0.00     0.034 C 
ENDBRANCH  26  27
ENDBRANCH   7  26
TORSDOF 5
ENDMDL
MODEL 5
REMARK VINA RESULT:      -8.6      5.035      9.398
REMARK  5 active torsions:
REMARK  status: ('A' for Active; 'I' for Inactive)
REMARK    1  A    between atoms: C17_25  and  O2_5 
REMARK    2  A    between atoms: C5_13  and  O2_5 
REMARK    3  A    between atoms: C10_18  and  N1_8 
REMARK       I    between atoms: C9_17  and  N1_8 
REMARK    4  A    between atoms: C3_11  and  C9_17 
REMARK    5  A    between atoms: C12_20  and  C18_26 
ROOT
HETATM    1  O1  UNK     1      20.391  -7.917  35.811  1.00  0.00    -0.271 OA
HETATM    2  O3  UNK     1      20.563  -5.880  34.794  1.00  0.00    -0.259 OA
HETATM    3  C1  UNK     1      20.020  -8.033  38.211  1.00  0.00     0.002 A 
HETATM    4  C2  UNK     1      20.204  -8.669  36.988  1.00  0.00     0.123 A 
HETATM    5  C3  UNK     1      20.204  -5.870  37.136  1.00  0.00     0.108 A 
HETATM    6  C4  UNK     1      20.026  -6.579  38.256  1.00  0.00     0.037 A 
HETATM    7  C5  UNK     1      20.209 -10.058  36.877  1.00  0.00     0.103 A 
HETATM    8  C6  UNK     1      19.837  -8.813  39.355  1.00  0.00     0.014 A 
HETATM    9  C7  UNK     1      20.400  -6.525  35.823  1.00  0.00     0.304 A 
HETATM   10  C8  UNK     1      20.025 -10.829  38.022  1.00  0.00     0.040 A 
HETATM   11  C11 UNK     1      19.840 -10.208  39.260  1.00  0.00     0.004 A 
ENDROOT
BRANCH   5  12
HETATM   12  C9  UNK     1      20.194  -4.410  37.283  1.00  0.00     0.262 C 
HETATM   13  O4  UNK     1      21.093  -3.854  37.911  1.00  0.00    -0.267 OA
HETATM   14  N1  UNK     1      19.103  -3.827  36.652  1.00  0.00    -0.323 N 
HETATM   15  H5  UNK     1      18.454  -4.431  36.152  1.00  0.00     0.169 HD
BRANCH  14  16
HETATM   16  C10 UNK     1      18.774  -2.452  36.590  1.00  0.00     0.035 A 
HETATM   17  C13 UNK     1      19.168  -1.712  35.489  1.00  0.00     0.030 A 
HETATM   18  C15 UNK     1      18.845  -0.355  35.427  1.00  0.00     0.018 A 
HETATM   19  C12 UNK     1      18.132   0.239  36.468  1.00  0.00     0.048 A 
HETATM   20  C16 UNK     1      17.743  -0.521  37.571  1.00  0.00     0.018 A 
HETATM   21  C14 UNK     1      18.066  -1.877  37.632  1.00  0.00     0.030 A 
BRANCH  19  22
HETATM   22  C18 UNK     1      17.786   1.688  36.403  1.00  0.00     0.417 C 
HETATM   23  F1  UNK     1      17.574   2.144  35.133  1.00  0.00    -0.166 F 
HETATM   24  F2  UNK     1      16.651   2.010  37.091  1.00  0.00    -0.166 F 
HETATM   25  F3  UNK     1      18.766   2.486  36.919  1.00  0.00    -0.166 F 
ENDBRANCH  19  22
ENDBRANCH  14  16
ENDBRANCH   5  12
BRANCH   7  26
HETATM   26  O2  UNK     1      20.389 -10.667  35.674  1.00  0.00    -0.349 OA
BRANCH  26  27
HETATM   27  C17 UNK     1      21.653 -10.485  35.035  1.00  0.00     0.171 C 
HETATM   28  C19 UNK     1      22.704 -11.273  35.787  1.00  0.00     0.034 C 
ENDBRANCH  26  27
ENDBRANCH   7  26
TORSDOF 5
ENDMDL
MODEL 6
REMARK VINA RESULT:      -8.5      9.427     13.310
REMARK  5 active torsions:
REMARK  status: ('A' for Active; 'I' for Inactive)
REMARK    1  A    between atoms: C17_25  and  O2_5 
REMARK    2  A    between atoms: C5_13  and  O2_5 
REMARK    3  A    between atoms: C10_18  and  N1_8 
REMARK       I    between atoms: C9_17  and  N1_8 
REMARK    4  A    between atoms: C3_11  and  C9_17 
REMARK    5  A    between atoms: C12_20  and  C18_26 
ROOT
HETATM    1  O1  UNK     1      18.270   1.693  32.137  1.00  0.00    -0.271 OA
HETATM    2  O3  UNK     1      18.214   3.344  30.560  1.00  0.00    -0.259 OA
HETATM    3  C1  UNK     1      18.346   2.286  34.493  1.00  0.00     0.002 A 
HETATM    4  C2  UNK     1      18.315   1.319  33.495  1.00  0.00     0.123 A 
HETATM    5  C3  UNK     1      18.290   4.040  32.823  1.00  0.00     0.108 A 
HETATM    6  C4  UNK     1      18.333   3.690  34.114  1.00  0.00     0.037 A 
HETATM    7  C5  UNK     1      18.326  -0.043  33.791  1.00  0.00     0.103 A 
HETATM    8  C6  UNK     1      18.390   1.876  35.828  1.00  0.00     0.014 A 
HETATM    9  C7  UNK     1      18.254   3.028  31.744  1.00  0.00     0.304 A 
HETATM   10  C8  UNK     1      18.369  -0.444  35.124  1.00  0.00     0.040 A 
HETATM   11  C11 UNK     1      18.402   0.513  36.141  1.00  0.00     0.004 A 
ENDROOT
BRANCH   5  12
HETATM   12  C9  UNK     1      18.279   5.480  32.541  1.00  0.00     0.262 C 
HETATM   13  O4  UNK     1      18.257   5.873  31.376  1.00  0.00    -0.267 OA
HETATM   14  N1  UNK     1      18.297   6.243  33.701  1.00  0.00    -0.323 N 
HETATM   15  H5  UNK     1      18.293   5.760  34.597  1.00  0.00     0.169 HD
BRANCH  14  16
HETATM   16  C10 UNK     1      18.294   7.654  33.808  1.00  0.00     0.035 A 
HETATM   17  C13 UNK     1      19.473   8.312  34.112  1.00  0.00     0.030 A 
HETATM   18  C15 UNK     1      19.471   9.703  34.217  1.00  0.00     0.018 A 
HETATM   19  C12 UNK     1      18.289  10.415  34.016  1.00  0.00     0.048 A 
HETATM   20  C16 UNK     1      17.109   9.737  33.711  1.00  0.00     0.018 A 
HETATM   21  C14 UNK     1      17.112   8.346  33.605  1.00  0.00     0.030 A 
BRANCH  19  22
HETATM   22  C18 UNK     1      18.286  11.902  34.128  1.00  0.00     0.417 C 
HETATM   23  F1  UNK     1      17.035  12.451  34.102  1.00  0.00    -0.166 F 
HETATM   24  F2  UNK     1      18.854  12.364  35.281  1.00  0.00    -0.166 F 
HETATM   25  F3  UNK     1      18.971  12.507  33.114  1.00  0.00    -0.166 F 
ENDBRANCH  19  22
ENDBRANCH  14  16
ENDBRANCH   5  12
BRANCH   7  26
HETATM   26  O2  UNK     1      18.294  -0.978  32.805  1.00  0.00    -0.349 OA
BRANCH  26  27
HETATM   27  C17 UNK     1      19.509  -1.674  32.529  1.00  0.00     0.171 C 
HETATM   28  C19 UNK     1      20.058  -1.202  31.200  1.00  0.00     0.034 C 
ENDBRANCH  26  27
ENDBRANCH   7  26
TORSDOF 5
ENDMDL
MODEL 7
REMARK VINA RESULT:      -8.4      7.915     10.477
REMARK  5 active torsions:
REMARK  status: ('A' for Active; 'I' for Inactive)
REMARK    1  A    between atoms: C17_25  and  O2_5 
REMARK    2  A    between atoms: C5_13  and  O2_5 
REMARK    3  A    between atoms: C10_18  and  N1_8 
REMARK       I    between atoms: C9_17  and  N1_8 
REMARK    4  A    between atoms: C3_11  and  C9_17 
REMARK    5  A    between atoms: C12_20  and  C18_26 
ROOT
HETATM    1  O1  UNK     1      28.967  -5.806  38.697  1.00  0.00    -0.271 OA
HETATM    2  O3  UNK     1      26.742  -5.583  39.164  1.00  0.00    -0.259 OA
HETATM    3  C1  UNK     1      29.910  -8.024  38.377  1.00  0.00     0.002 A 
HETATM    4  C2  UNK     1      30.067  -6.643  38.424  1.00  0.00     0.123 A 
HETATM    5  C3  UNK     1      27.551  -7.792  38.874  1.00  0.00     0.108 A 
HETATM    6  C4  UNK     1      28.592  -8.591  38.615  1.00  0.00     0.037 A 
HETATM    7  C5  UNK     1      31.303  -6.037  38.205  1.00  0.00     0.103 A 
HETATM    8  C6  UNK     1      31.024  -8.820  38.103  1.00  0.00     0.014 A 
HETATM    9  C7  UNK     1      27.694  -6.319  38.927  1.00  0.00     0.304 A 
HETATM   10  C8  UNK     1      32.409  -6.838  37.932  1.00  0.00     0.040 A 
HETATM   11  C11 UNK     1      32.271  -8.227  37.881  1.00  0.00     0.004 A 
ENDROOT
BRANCH   5  12
HETATM   12  C9  UNK     1      26.262  -8.457  39.100  1.00  0.00     0.262 C 
HETATM   13  O4  UNK     1      26.211  -9.465  39.803  1.00  0.00    -0.267 OA
HETATM   14  N1  UNK     1      25.219  -7.814  38.447  1.00  0.00    -0.323 N 
HETATM   15  H5  UNK     1      25.426  -6.971  37.917  1.00  0.00     0.169 HD
BRANCH  14  16
HETATM   16  C10 UNK     1      23.850  -8.176  38.442  1.00  0.00     0.035 A 
HETATM   17  C13 UNK     1      23.312  -8.772  37.315  1.00  0.00     0.030 A 
HETATM   18  C15 UNK     1      21.963  -9.128  37.309  1.00  0.00     0.018 A 
HETATM   19  C12 UNK     1      21.173  -8.882  38.432  1.00  0.00     0.048 A 
HETATM   20  C16 UNK     1      21.730  -8.280  39.559  1.00  0.00     0.018 A 
HETATM   21  C14 UNK     1      23.079  -7.925  39.564  1.00  0.00     0.030 A 
BRANCH  19  22
HETATM   22  C18 UNK     1      19.731  -9.263  38.427  1.00  0.00     0.417 C 
HETATM   23  F1  UNK     1      18.889  -8.225  38.711  1.00  0.00    -0.166 F 
HETATM   24  F2  UNK     1      19.299  -9.753  37.227  1.00  0.00    -0.166 F 
HETATM   25  F3  UNK     1      19.440 -10.232  39.344  1.00  0.00    -0.166 F 
ENDBRANCH  19  22
ENDBRANCH  14  16
ENDBRANCH   5  12
BRANCH   7  26
HETATM   26  O2  UNK     1      31.442  -4.685  38.254  1.00  0.00    -0.349 OA
BRANCH  26  27
HETATM   27  C17 UNK     1      31.077  -3.951  37.085  1.00  0.00     0.171 C 
HETATM   28  C19 UNK     1      32.332  -3.449  36.404  1.00  0.00     0.034 C 
ENDBRANCH  26  27
ENDBRANCH   7  26
TORSDOF 5
ENDMDL
MODEL 8
REMARK VINA RESULT:      -8.4      1.649      2.899
REMARK  5 active torsions:
REMARK  status: ('A' for Active; 'I' for Inactive)
REMARK    1  A    between atoms: C17_25  and  O2_5 
REMARK    2  A    between atoms: C5_13  and  O2_5 
REMARK    3  A    between atoms: C10_18  and  N1_8 
REMARK       I    between atoms: C9_17  and  N1_8 
REMARK    4  A    between atoms: C3_11  and  C9_17 
REMARK    5  A    between atoms: C12_20  and  C18_26 
ROOT
HETATM    1  O1  UNK     1      18.416  -0.775  34.950  1.00  0.00    -0.271 OA
HETATM    2  O3  UNK     1      18.316  -1.893  36.939  1.00  0.00    -0.259 OA
HETATM    3  C1  UNK     1      19.792  -1.650  33.148  1.00  0.00     0.002 A 
HETATM    4  C2  UNK     1      18.921  -0.683  33.638  1.00  0.00     0.123 A 
HETATM    5  C3  UNK     1      19.691  -2.838  35.257  1.00  0.00     0.108 A 
HETATM    6  C4  UNK     1      20.174  -2.757  34.012  1.00  0.00     0.037 A 
HETATM    7  C5  UNK     1      18.516   0.401  32.862  1.00  0.00     0.103 A 
HETATM    8  C6  UNK     1      20.271  -1.526  31.842  1.00  0.00     0.014 A 
HETATM    9  C7  UNK     1      18.761  -1.822  35.799  1.00  0.00     0.304 A 
HETATM   10  C8  UNK     1      18.998   0.518  31.561  1.00  0.00     0.040 A 
HETATM   11  C11 UNK     1      19.874  -0.443  31.051  1.00  0.00     0.004 A 
ENDROOT
BRANCH   5  12
HETATM   12  C9  UNK     1      20.134  -3.990  36.051  1.00  0.00     0.262 C 
HETATM   13  O4  UNK     1      21.015  -3.846  36.897  1.00  0.00    -0.267 OA
HETATM   14  N1  UNK     1      19.453  -5.153  35.714  1.00  0.00    -0.323 N 
HETATM   15  H5  UNK     1      18.730  -5.099  35.000  1.00  0.00     0.169 HD
BRANCH  14  16
HETATM   16  C10 UNK     1      19.620  -6.444  36.270  1.00  0.00     0.035 A 
HETATM   17  C13 UNK     1      18.844  -6.819  37.353  1.00  0.00     0.030 A 
HETATM   18  C15 UNK     1      19.008  -8.091  37.902  1.00  0.00     0.018 A 
HETATM   19  C12 UNK     1      19.946  -8.969  37.358  1.00  0.00     0.048 A 
HETATM   20  C16 UNK     1      20.720  -8.574  36.267  1.00  0.00     0.018 A 
HETATM   21  C14 UNK     1      20.555  -7.302  35.719  1.00  0.00     0.030 A 
BRANCH  19  22
HETATM   22  C18 UNK     1      20.122 -10.329  37.944  1.00  0.00     0.417 C 
HETATM   23  F1  UNK     1      19.141 -11.210  37.588  1.00  0.00    -0.166 F 
HETATM   24  F2  UNK     1      21.292 -10.933  37.579  1.00  0.00    -0.166 F 
HETATM   25  F3  UNK     1      20.126 -10.317  39.309  1.00  0.00    -0.166 F 
ENDBRANCH  19  22
ENDBRANCH  14  16
ENDBRANCH   5  12
BRANCH   7  26
HETATM   26  O2  UNK     1      17.663   1.339  33.354  1.00  0.00    -0.349 OA
BRANCH  26  27
HETATM   27  C17 UNK     1      18.216   2.614  33.681  1.00  0.00     0.171 C 
HETATM   28  C19 UNK     1      18.556   2.641  35.155  1.00  0.00     0.034 C 
ENDBRANCH  26  27
ENDBRANCH   7  26
TORSDOF 5
ENDMDL
MODEL 9
REMARK VINA RESULT:      -8.2      7.861     10.549
REMARK  5 active torsions:
REMARK  status: ('A' for Active; 'I' for Inactive)
REMARK    1  A    between atoms: C17_25  and  O2_5 
REMARK    2  A    between atoms: C5_13  and  O2_5 
REMARK    3  A    between atoms: C10_18  and  N1_8 
REMARK       I    between atoms: C9_17  and  N1_8 
REMARK    4  A    between atoms: C3_11  and  C9_17 
REMARK    5  A    between atoms: C12_20  and  C18_26 
ROOT
HETATM    1  O1  UNK     1      29.514  -5.480  38.683  1.00  0.00    -0.271 OA
HETATM    2  O3  UNK     1      27.626  -4.221  38.939  1.00  0.00    -0.259 OA
HETATM    3  C1  UNK     1      29.321  -7.879  38.344  1.00  0.00     0.002 A 
HETATM    4  C2  UNK     1      30.108  -6.740  38.477  1.00  0.00     0.123 A 
HETATM    5  C3  UNK     1      27.315  -6.548  38.618  1.00  0.00     0.108 A 
HETATM    6  C4  UNK     1      27.874  -7.747  38.423  1.00  0.00     0.037 A 
HETATM    7  C5  UNK     1      31.499  -6.798  38.413  1.00  0.00     0.103 A 
HETATM    8  C6  UNK     1      29.946  -9.111  38.141  1.00  0.00     0.014 A 
HETATM    9  C7  UNK     1      28.133  -5.322  38.760  1.00  0.00     0.304 A 
HETATM   10  C8  UNK     1      32.115  -8.031  38.209  1.00  0.00     0.040 A 
HETATM   11  C11 UNK     1      31.341  -9.185  38.074  1.00  0.00     0.004 A 
ENDROOT
BRANCH   5  12
HETATM   12  C9  UNK     1      25.850  -6.517  38.682  1.00  0.00     0.262 C 
HETATM   13  O4  UNK     1      25.267  -5.441  38.813  1.00  0.00    -0.267 OA
HETATM   14  N1  UNK     1      25.293  -7.785  38.579  1.00  0.00    -0.323 N 
HETATM   15  H5  UNK     1      25.917  -8.578  38.453  1.00  0.00     0.169 HD
BRANCH  14  16
HETATM   16  C10 UNK     1      23.920  -8.130  38.603  1.00  0.00     0.035 A 
HETATM   17  C13 UNK     1      23.313  -8.568  37.439  1.00  0.00     0.030 A 
HETATM   18  C15 UNK     1      21.960  -8.908  37.461  1.00  0.00     0.018 A 
HETATM   19  C12 UNK     1      21.236  -8.805  38.649  1.00  0.00     0.048 A 
HETATM   20  C16 UNK     1      21.863  -8.362  39.813  1.00  0.00     0.018 A 
HETATM   21  C14 UNK     1      23.216  -8.022  39.789  1.00  0.00     0.030 A 
BRANCH  19  22
HETATM   22  C18 UNK     1      19.790  -9.169  38.674  1.00  0.00     0.417 C 
HETATM   23  F1  UNK     1      19.400  -9.939  37.615  1.00  0.00    -0.166 F 
HETATM   24  F2  UNK     1      19.424  -9.878  39.783  1.00  0.00    -0.166 F 
HETATM   25  F3  UNK     1      18.972  -8.076  38.652  1.00  0.00    -0.166 F 
ENDBRANCH  19  22
ENDBRANCH  14  16
ENDBRANCH   5  12
BRANCH   7  26
HETATM   26  O2  UNK     1      32.257  -5.677  38.544  1.00  0.00    -0.349 OA
BRANCH  26  27
HETATM   27  C17 UNK     1      32.988  -5.248  37.395  1.00  0.00     0.171 C 
HETATM   28  C19 UNK     1      32.214  -4.151  36.698  1.00  0.00     0.034 C 
ENDBRANCH  26  27
ENDBRANCH   7  26
TORSDOF 5
ENDMDL
MODEL 10
REMARK VINA RESULT:      -8.2      8.109     10.608
REMARK  5 active torsions:
REMARK  status: ('A' for Active; 'I' for Inactive)
REMARK    1  A    between atoms: C17_25  and  O2_5 
REMARK    2  A    between atoms: C5_13  and  O2_5 
REMARK    3  A    between atoms: C10_18  and  N1_8 
REMARK       I    between atoms: C9_17  and  N1_8 
REMARK    4  A    between atoms: C3_11  and  C9_17 
REMARK    5  A    between atoms: C12_20  and  C18_26 
ROOT
HETATM    1  O1  UNK     1      29.940  -8.159  38.486  1.00  0.00    -0.271 OA
HETATM    2  O3  UNK     1      28.709 -10.074  38.659  1.00  0.00    -0.259 OA
HETATM    3  C1  UNK     1      28.846  -6.002  38.731  1.00  0.00     0.002 A 
HETATM    4  C2  UNK     1      29.997  -6.751  38.510  1.00  0.00     0.123 A 
HETATM    5  C3  UNK     1      27.536  -8.032  38.912  1.00  0.00     0.108 A 
HETATM    6  C4  UNK     1      27.583  -6.695  38.935  1.00  0.00     0.037 A 
HETATM    7  C5  UNK     1      31.237  -6.149  38.307  1.00  0.00     0.103 A 
HETATM    8  C6  UNK     1      28.942  -4.609  38.747  1.00  0.00     0.014 A 
HETATM    9  C7  UNK     1      28.748  -8.850  38.681  1.00  0.00     0.304 A 
HETATM   10  C8  UNK     1      31.324  -4.759  38.326  1.00  0.00     0.040 A 
HETATM   11  C11 UNK     1      30.179  -3.990  38.545  1.00  0.00     0.004 A 
ENDROOT
BRANCH   5  12
HETATM   12  C9  UNK     1      26.217  -8.638  39.129  1.00  0.00     0.262 C 
HETATM   13  O4  UNK     1      26.115  -9.640  39.835  1.00  0.00    -0.267 OA
HETATM   14  N1  UNK     1      25.209  -7.953  38.464  1.00  0.00    -0.323 N 
HETATM   15  H5  UNK     1      25.458  -7.122  37.933  1.00  0.00     0.169 HD
BRANCH  14  16
HETATM   16  C10 UNK     1      23.826  -8.254  38.448  1.00  0.00     0.035 A 
HETATM   17  C13 UNK     1      23.267  -8.806  37.309  1.00  0.00     0.030 A 
HETATM   18  C15 UNK     1      21.903  -9.103  37.292  1.00  0.00     0.018 A 
HETATM   19  C12 UNK     1      21.120  -8.842  38.416  1.00  0.00     0.048 A 
HETATM   20  C16 UNK     1      21.699  -8.285  39.556  1.00  0.00     0.018 A 
HETATM   21  C14 UNK     1      23.062  -7.989  39.572  1.00  0.00     0.030 A 
BRANCH  19  22
HETATM   22  C18 UNK     1      19.663  -9.159  38.400  1.00  0.00     0.417 C 
HETATM   23  F1  UNK     1      19.190  -9.498  37.164  1.00  0.00    -0.166 F 
HETATM   24  F2  UNK     1      19.322 -10.205  39.210  1.00  0.00    -0.166 F 
HETATM   25  F3  UNK     1      18.892  -8.110  38.812  1.00  0.00    -0.166 F 
ENDBRANCH  19  22
ENDBRANCH  14  16
ENDBRANCH   5  12
BRANCH   7  26
HETATM   26  O2  UNK     1      32.354  -6.894  38.093  1.00  0.00    -0.349 OA
BRANCH  26  27
HETATM   27  C17 UNK     1      33.034  -6.705  36.852  1.00  0.00     0.171 C 
HETATM   28  C19 UNK     1      34.486  -6.381  37.129  1.00  0.00     0.034 C 
ENDBRANCH  26  27
ENDBRANCH   7  26
TORSDOF 5
ENDMDL
