MODEL 1
REMARK VINA RESULT:      -8.9      0.000      0.000
REMARK  4 active torsions:
REMARK  status: ('A' for Active; 'I' for Inactive)
REMARK    1  A    between atoms: C5_11  and  N1_5 
REMARK       I    between atoms: C7_13  and  N2_6 
REMARK    2  A    between atoms: C5_11  and  C6_12 
REMARK    3  A    between atoms: C12_18  and  C7_13 
REMARK    4  A    between atoms: C13_19  and  C17_23 
ROOT
HETATM    1  C5  UNK     1      18.432   5.963  32.140  1.00  0.00     0.312 C 
ENDROOT
BRANCH   1   2
HETATM    2  N1  UNK     1      18.140   4.633  31.607  1.00  0.00     0.095 N 
HETATM    3  C1  UNK     1      18.546   3.593  32.562  1.00  0.00     0.292 C 
HETATM    4  C3  UNK     1      18.218   2.196  32.031  1.00  0.00     0.156 C 
HETATM    5  N2  UNK     1      18.779   1.993  30.690  1.00  0.00    -0.343 N 
HETATM    6  C4  UNK     1      18.475   3.062  29.738  1.00  0.00     0.156 C 
HETATM    7  C7  UNK     1      19.508   0.866  30.267  1.00  0.00     0.277 C 
HETATM    8  C2  UNK     1      18.815   4.435  30.316  1.00  0.00     0.292 C 
HETATM    9  O2  UNK     1      19.953   0.758  29.123  1.00  0.00    -0.265 OA
BRANCH   7  10
HETATM   10  C12 UNK     1      19.729  -0.196  31.243  1.00  0.00     0.142 A 
HETATM   11  O3  UNK     1      20.996  -0.657  31.404  1.00  0.00    -0.317 OA
HETATM   12  C21 UNK     1      20.940  -1.626  32.354  1.00  0.00     0.143 A 
HETATM   13  C20 UNK     1      19.650  -1.789  32.802  1.00  0.00     0.027 A 
HETATM   14  C18 UNK     1      18.863  -0.860  32.080  1.00  0.00     0.045 A 
ENDBRANCH   7  10
ENDBRANCH   1   2
BRANCH   1  15
HETATM   15  C6  UNK     1      17.200   6.780  32.318  1.00  0.00    -0.011 A 
HETATM   16  C8  UNK     1      17.284   8.105  32.947  1.00  0.00     0.007 A 
HETATM   17  C10 UNK     1      16.112   8.847  33.101  1.00  0.00     0.090 A 
HETATM   18  C11 UNK     1      18.479   8.675  33.406  1.00  0.00     0.022 A 
HETATM   19  O1  UNK     1      14.869   8.346  32.666  1.00  0.00    -0.275 OA
HETATM   20  C15 UNK     1      16.104  10.115  33.688  1.00  0.00     0.039 A 
HETATM   21  C14 UNK     1      14.759   7.100  32.069  1.00  0.00     0.288 A 
HETATM   22  O4  UNK     1      13.683   6.653  31.686  1.00  0.00    -0.260 OA
HETATM   23  C9  UNK     1      16.004   6.328  31.914  1.00  0.00     0.092 A 
HETATM   24  C16 UNK     1      17.301  10.662  34.136  1.00  0.00     0.010 A 
HETATM   25  C13 UNK     1      18.487   9.945  33.996  1.00  0.00    -0.058 A 
BRANCH  25  26
HETATM   26  C17 UNK     1      19.771  10.531  34.477  1.00  0.00     0.034 C 
HETATM   27  C19 UNK     1      20.892   9.497  34.541  1.00  0.00     0.010 C 
ENDBRANCH  25  26
ENDBRANCH   1  15
TORSDOF 4
ENDMDL
MODEL 2
REMARK VINA RESULT:      -8.7      6.800     10.759
REMARK  4 active torsions:
REMARK  status: ('A' for Active; 'I' for Inactive)
REMARK    1  A    between atoms: C5_11  and  N1_5 
REMARK       I    between atoms: C7_13  and  N2_6 
REMARK    2  A    between atoms: C5_11  and  C6_12 
REMARK    3  A    between atoms: C12_18  and  C7_13 
REMARK    4  A    between atoms: C13_19  and  C17_23 
ROOT
HETATM    1  C5  UNK     1      19.491  -3.123  36.711  1.00  0.00     0.312 C 
ENDROOT
BRANCH   1   2
HETATM    2  N1  UNK     1      20.365  -4.294  36.759  1.00  0.00     0.095 N 
HETATM    3  C1  UNK     1      19.583  -5.529  36.613  1.00  0.00     0.292 C 
HETATM    4  C3  UNK     1      20.488  -6.763  36.630  1.00  0.00     0.156 C 
HETATM    5  N2  UNK     1      21.353  -6.769  37.815  1.00  0.00    -0.343 N 
HETATM    6  C4  UNK     1      22.074  -5.517  38.046  1.00  0.00     0.156 C 
HETATM    7  C7  UNK     1      21.566  -7.867  38.670  1.00  0.00     0.277 C 
HETATM    8  C2  UNK     1      21.130  -4.317  38.014  1.00  0.00     0.292 C 
HETATM    9  O2  UNK     1      22.307  -7.806  39.652  1.00  0.00    -0.265 OA
BRANCH   7  10
HETATM   10  C12 UNK     1      20.866  -9.108  38.356  1.00  0.00     0.142 A 
HETATM   11  O3  UNK     1      21.417  -9.930  37.425  1.00  0.00    -0.317 OA
HETATM   12  C21 UNK     1      20.589 -11.002  37.314  1.00  0.00     0.143 A 
HETATM   13  C20 UNK     1      19.515 -10.873  38.163  1.00  0.00     0.027 A 
HETATM   14  C18 UNK     1      19.694  -9.642  38.839  1.00  0.00     0.045 A 
ENDBRANCH   7  10
ENDBRANCH   1   2
BRANCH   1  15
HETATM   15  C6  UNK     1      19.558  -2.425  35.398  1.00  0.00    -0.011 A 
HETATM   16  C8  UNK     1      18.864  -1.143  35.213  1.00  0.00     0.007 A 
HETATM   17  C10 UNK     1      18.945  -0.512  33.971  1.00  0.00     0.090 A 
HETATM   18  C11 UNK     1      18.119  -0.509  36.216  1.00  0.00     0.022 A 
HETATM   19  O1  UNK     1      19.674  -1.083  32.909  1.00  0.00    -0.275 OA
HETATM   20  C15 UNK     1      18.315   0.707  33.711  1.00  0.00     0.039 A 
HETATM   21  C14 UNK     1      20.340  -2.291  33.054  1.00  0.00     0.288 A 
HETATM   22  O4  UNK     1      20.978  -2.797  32.138  1.00  0.00    -0.260 OA
HETATM   23  C9  UNK     1      20.245  -2.945  34.371  1.00  0.00     0.092 A 
HETATM   24  C16 UNK     1      17.581   1.320  34.720  1.00  0.00     0.010 A 
HETATM   25  C13 UNK     1      17.482   0.714  35.971  1.00  0.00    -0.058 A 
BRANCH  25  26
HETATM   26  C17 UNK     1      16.695   1.370  37.055  1.00  0.00     0.034 C 
HETATM   27  C19 UNK     1      17.469   1.449  38.368  1.00  0.00     0.010 C 
ENDBRANCH  25  26
ENDBRANCH   1  15
TORSDOF 4
ENDMDL
MODEL 3
REMARK VINA RESULT:      -8.5      7.637     10.793
REMARK  4 active torsions:
REMARK  status: ('A' for Active; 'I' for Inactive)
REMARK    1  A    between atoms: C5_11  and  N1_5 
REMARK       I    between atoms: C7_13  and  N2_6 
REMARK    2  A    between atoms: C5_11  and  C6_12 
REMARK    3  A    between atoms: C12_18  and  C7_13 
REMARK    4  A    between atoms: C13_19  and  C17_23 
ROOT
HETATM    1  C5  UNK     1      20.524  -3.050  36.865  1.00  0.00     0.312 C 
ENDROOT
BRANCH   1   2
HETATM    2  N1  UNK     1      19.894  -4.299  37.293  1.00  0.00     0.095 N 
HETATM    3  C1  UNK     1      20.876  -5.392  37.316  1.00  0.00     0.292 C 
HETATM    4  C3  UNK     1      20.239  -6.698  37.792  1.00  0.00     0.156 C 
HETATM    5  N2  UNK     1      19.041  -7.021  37.008  1.00  0.00    -0.343 N 
HETATM    6  C4  UNK     1      18.084  -5.920  36.883  1.00  0.00     0.156 C 
HETATM    7  C7  UNK     1      18.742  -8.275  36.444  1.00  0.00     0.277 C 
HETATM    8  C2  UNK     1      18.769  -4.640  36.410  1.00  0.00     0.292 C 
HETATM    9  O2  UNK     1      17.716  -8.480  35.794  1.00  0.00    -0.265 OA
BRANCH   7  10
HETATM   10  C12 UNK     1      19.705  -9.351  36.653  1.00  0.00     0.142 A 
HETATM   11  O3  UNK     1      20.765  -9.428  35.806  1.00  0.00    -0.317 OA
HETATM   12  C21 UNK     1      21.504 -10.497  36.204  1.00  0.00     0.143 A 
HETATM   13  C20 UNK     1      20.927 -11.104  37.296  1.00  0.00     0.027 A 
HETATM   14  C18 UNK     1      19.759 -10.360  37.587  1.00  0.00     0.045 A 
ENDBRANCH   7  10
ENDBRANCH   1   2
BRANCH   1  15
HETATM   15  C6  UNK     1      19.524  -2.042  36.418  1.00  0.00    -0.011 A 
HETATM   16  C8  UNK     1      19.393  -1.721  34.990  1.00  0.00     0.007 A 
HETATM   17  C10 UNK     1      18.448  -0.771  34.602  1.00  0.00     0.090 A 
HETATM   18  C11 UNK     1      20.168  -2.317  33.985  1.00  0.00     0.022 A 
HETATM   19  O1  UNK     1      17.630  -0.127  35.551  1.00  0.00    -0.275 OA
HETATM   20  C15 UNK     1      18.260  -0.409  33.266  1.00  0.00     0.039 A 
HETATM   21  C14 UNK     1      17.730  -0.409  36.905  1.00  0.00     0.288 A 
HETATM   22  O4  UNK     1      17.023   0.146  37.739  1.00  0.00    -0.260 OA
HETATM   23  C9  UNK     1      18.733  -1.413  37.299  1.00  0.00     0.092 A 
HETATM   24  C16 UNK     1      19.038  -1.012  32.284  1.00  0.00     0.010 A 
HETATM   25  C13 UNK     1      19.990  -1.964  32.642  1.00  0.00    -0.058 A 
BRANCH  25  26
HETATM   26  C17 UNK     1      20.826  -2.611  31.589  1.00  0.00     0.034 C 
HETATM   27  C19 UNK     1      20.443  -2.155  30.184  1.00  0.00     0.010 C 
ENDBRANCH  25  26
ENDBRANCH   1  15
TORSDOF 4
ENDMDL
MODEL 4
REMARK VINA RESULT:      -8.4     15.927     17.325
REMARK  4 active torsions:
REMARK  status: ('A' for Active; 'I' for Inactive)
REMARK    1  A    between atoms: C5_11  and  N1_5 
REMARK       I    between atoms: C7_13  and  N2_6 
REMARK    2  A    between atoms: C5_11  and  C6_12 
REMARK    3  A    between atoms: C12_18  and  C7_13 
REMARK    4  A    between atoms: C13_19  and  C17_23 
ROOT
HETATM    1  C5  UNK     1      30.211  -8.176  35.709  1.00  0.00     0.312 C 
ENDROOT
BRANCH   1   2
HETATM    2  N1  UNK     1      29.253  -8.240  34.606  1.00  0.00     0.095 N 
HETATM    3  C1  UNK     1      29.745  -9.130  33.545  1.00  0.00     0.292 C 
HETATM    4  C3  UNK     1      28.738  -9.231  32.397  1.00  0.00     0.156 C 
HETATM    5  N2  UNK     1      28.363  -7.902  31.902  1.00  0.00    -0.343 N 
HETATM    6  C4  UNK     1      27.960  -6.958  32.946  1.00  0.00     0.156 C 
HETATM    7  C7  UNK     1      28.314  -7.513  30.551  1.00  0.00     0.277 C 
HETATM    8  C2  UNK     1      28.993  -6.897  34.069  1.00  0.00     0.292 C 
HETATM    9  O2  UNK     1      27.990  -6.377  30.201  1.00  0.00    -0.265 OA
BRANCH   7  10
HETATM   10  C12 UNK     1      28.669  -8.515  29.551  1.00  0.00     0.142 A 
HETATM   11  O3  UNK     1      29.946  -8.524  29.086  1.00  0.00    -0.317 OA
HETATM   12  C21 UNK     1      30.022  -9.533  28.180  1.00  0.00     0.143 A 
HETATM   13  C20 UNK     1      28.808 -10.169  28.061  1.00  0.00     0.027 A 
HETATM   14  C18 UNK     1      27.929  -9.507  28.951  1.00  0.00     0.045 A 
ENDBRANCH   7  10
ENDBRANCH   1   2
BRANCH   1  15
HETATM   15  C6  UNK     1      29.581  -7.706  36.974  1.00  0.00    -0.011 A 
HETATM   16  C8  UNK     1      29.845  -6.345  37.462  1.00  0.00     0.007 A 
HETATM   17  C10 UNK     1      29.241  -5.933  38.650  1.00  0.00     0.090 A 
HETATM   18  C11 UNK     1      30.673  -5.428  36.801  1.00  0.00     0.022 A 
HETATM   19  O1  UNK     1      28.394  -6.795  39.375  1.00  0.00    -0.275 OA
HETATM   20  C15 UNK     1      29.438  -4.657  39.183  1.00  0.00     0.039 A 
HETATM   21  C14 UNK     1      28.127  -8.083  38.939  1.00  0.00     0.288 A 
HETATM   22  O4  UNK     1      27.391  -8.842  39.561  1.00  0.00    -0.260 OA
HETATM   23  C9  UNK     1      28.772  -8.505  37.683  1.00  0.00     0.092 A 
HETATM   24  C16 UNK     1      30.263  -3.761  38.512  1.00  0.00     0.010 A 
HETATM   25  C13 UNK     1      30.880  -4.145  37.323  1.00  0.00    -0.058 A 
BRANCH  25  26
HETATM   26  C17 UNK     1      31.765  -3.186  36.602  1.00  0.00     0.034 C 
HETATM   27  C19 UNK     1      32.861  -3.892  35.808  1.00  0.00     0.010 C 
ENDBRANCH  25  26
ENDBRANCH   1  15
TORSDOF 4
ENDMDL
MODEL 5
REMARK VINA RESULT:      -8.4     16.655     20.030
REMARK  4 active torsions:
REMARK  status: ('A' for Active; 'I' for Inactive)
REMARK    1  A    between atoms: C5_11  and  N1_5 
REMARK       I    between atoms: C7_13  and  N2_6 
REMARK    2  A    between atoms: C5_11  and  C6_12 
REMARK    3  A    between atoms: C12_18  and  C7_13 
REMARK    4  A    between atoms: C13_19  and  C17_23 
ROOT
HETATM    1  C5  UNK     1      31.582  -8.313  32.375  1.00  0.00     0.312 C 
ENDROOT
BRANCH   1   2
HETATM    2  N1  UNK     1      31.591  -8.982  33.676  1.00  0.00     0.095 N 
HETATM    3  C1  UNK     1      30.254  -8.947  34.284  1.00  0.00     0.292 C 
HETATM    4  C3  UNK     1      30.241  -9.670  35.632  1.00  0.00     0.156 C 
HETATM    5  N2  UNK     1      31.288  -9.155  36.521  1.00  0.00    -0.343 N 
HETATM    6  C4  UNK     1      32.618  -9.084  35.914  1.00  0.00     0.156 C 
HETATM    7  C7  UNK     1      31.116  -8.795  37.871  1.00  0.00     0.277 C 
HETATM    8  C2  UNK     1      32.578  -8.359  34.570  1.00  0.00     0.292 C 
HETATM    9  O2  UNK     1      32.040  -8.367  38.564  1.00  0.00    -0.265 OA
BRANCH   7  10
HETATM   10  C12 UNK     1      29.780  -8.943  38.439  1.00  0.00     0.142 A 
HETATM   11  O3  UNK     1      29.460 -10.135  39.007  1.00  0.00    -0.317 OA
HETATM   12  C21 UNK     1      28.183 -10.021  39.457  1.00  0.00     0.143 A 
HETATM   13  C20 UNK     1      27.684  -8.769  39.182  1.00  0.00     0.027 A 
HETATM   14  C18 UNK     1      28.721  -8.069  38.521  1.00  0.00     0.045 A 
ENDBRANCH   7  10
ENDBRANCH   1   2
BRANCH   1  15
HETATM   15  C6  UNK     1      31.474  -9.279  31.247  1.00  0.00    -0.011 A 
HETATM   16  C8  UNK     1      30.239  -9.342  30.453  1.00  0.00     0.007 A 
HETATM   17  C10 UNK     1      30.167 -10.257  29.402  1.00  0.00     0.090 A 
HETATM   18  C11 UNK     1      29.120  -8.532  30.688  1.00  0.00     0.022 A 
HETATM   19  O1  UNK     1      31.249 -11.108  29.100  1.00  0.00    -0.275 OA
HETATM   20  C15 UNK     1      29.032 -10.381  28.598  1.00  0.00     0.039 A 
HETATM   21  C14 UNK     1      32.426 -11.070  29.832  1.00  0.00     0.288 A 
HETATM   22  O4  UNK     1      33.374 -11.806  29.579  1.00  0.00    -0.260 OA
HETATM   23  C9  UNK     1      32.487 -10.100  30.939  1.00  0.00     0.092 A 
HETATM   24  C16 UNK     1      27.932  -9.568  28.847  1.00  0.00     0.010 A 
HETATM   25  C13 UNK     1      27.975  -8.645  29.890  1.00  0.00    -0.058 A 
BRANCH  25  26
HETATM   26  C17 UNK     1      26.796  -7.772  30.158  1.00  0.00     0.034 C 
HETATM   27  C19 UNK     1      27.108  -6.669  31.166  1.00  0.00     0.010 C 
ENDBRANCH  25  26
ENDBRANCH   1  15
TORSDOF 4
ENDMDL
MODEL 6
REMARK VINA RESULT:      -8.3      6.311     11.888
REMARK  4 active torsions:
REMARK  status: ('A' for Active; 'I' for Inactive)
REMARK    1  A    between atoms: C5_11  and  N1_5 
REMARK       I    between atoms: C7_13  and  N2_6 
REMARK    2  A    between atoms: C5_11  and  C6_12 
REMARK    3  A    between atoms: C12_18  and  C7_13 
REMARK    4  A    between atoms: C13_19  and  C17_23 
ROOT
HETATM    1  C5  UNK     1      20.339  -3.352  36.277  1.00  0.00     0.312 C 
ENDROOT
BRANCH   1   2
HETATM    2  N1  UNK     1      19.479  -2.690  35.297  1.00  0.00     0.095 N 
HETATM    3  C1  UNK     1      20.136  -2.636  33.984  1.00  0.00     0.292 C 
HETATM    4  C3  UNK     1      19.234  -1.972  32.941  1.00  0.00     0.156 C 
HETATM    5  N2  UNK     1      18.767  -0.660  33.402  1.00  0.00    -0.343 N 
HETATM    6  C4  UNK     1      18.194  -0.659  34.749  1.00  0.00     0.156 C 
HETATM    7  C7  UNK     1      18.782   0.528  32.648  1.00  0.00     0.277 C 
HETATM    8  C2  UNK     1      19.128  -1.336  35.750  1.00  0.00     0.292 C 
HETATM    9  O2  UNK     1      18.374   1.601  33.096  1.00  0.00    -0.265 OA
BRANCH   7  10
HETATM   10  C12 UNK     1      19.310   0.454  31.290  1.00  0.00     0.142 A 
HETATM   11  O3  UNK     1      18.557   0.976  30.286  1.00  0.00    -0.317 OA
HETATM   12  C21 UNK     1      19.256   0.786  29.137  1.00  0.00     0.143 A 
HETATM   13  C20 UNK     1      20.448   0.150  29.395  1.00  0.00     0.027 A 
HETATM   14  C18 UNK     1      20.483  -0.067  30.793  1.00  0.00     0.045 A 
ENDBRANCH   7  10
ENDBRANCH   1   2
BRANCH   1  15
HETATM   15  C6  UNK     1      19.752  -4.629  36.767  1.00  0.00    -0.011 A 
HETATM   16  C8  UNK     1      20.552  -5.527  37.613  1.00  0.00     0.007 A 
HETATM   17  C10 UNK     1      19.975  -6.717  38.057  1.00  0.00     0.090 A 
HETATM   18  C11 UNK     1      21.871  -5.258  38.003  1.00  0.00     0.022 A 
HETATM   19  O1  UNK     1      18.654  -7.061  37.709  1.00  0.00    -0.275 OA
HETATM   20  C15 UNK     1      20.666  -7.625  38.863  1.00  0.00     0.039 A 
HETATM   21  C14 UNK     1      17.875  -6.234  36.914  1.00  0.00     0.288 A 
HETATM   22  O4  UNK     1      16.724  -6.523  36.605  1.00  0.00    -0.260 OA
HETATM   23  C9  UNK     1      18.498  -4.982  36.452  1.00  0.00     0.092 A 
HETATM   24  C16 UNK     1      21.974  -7.339  39.239  1.00  0.00     0.010 A 
HETATM   25  C13 UNK     1      22.576  -6.158  38.811  1.00  0.00    -0.058 A 
BRANCH  25  26
HETATM   26  C17 UNK     1      23.979  -5.851  39.214  1.00  0.00     0.034 C 
HETATM   27  C19 UNK     1      24.917  -7.035  38.996  1.00  0.00     0.010 C 
ENDBRANCH  25  26
ENDBRANCH   1  15
TORSDOF 4
ENDMDL
MODEL 7
REMARK VINA RESULT:      -8.3     16.298     19.745
REMARK  4 active torsions:
REMARK  status: ('A' for Active; 'I' for Inactive)
REMARK    1  A    between atoms: C5_11  and  N1_5 
REMARK       I    between atoms: C7_13  and  N2_6 
REMARK    2  A    between atoms: C5_11  and  C6_12 
REMARK    3  A    between atoms: C12_18  and  C7_13 
REMARK    4  A    between atoms: C13_19  and  C17_23 
ROOT
HETATM    1  C5  UNK     1      32.026  -7.851  32.142  1.00  0.00     0.312 C 
ENDROOT
BRANCH   1   2
HETATM    2  N1  UNK     1      31.567  -8.223  33.480  1.00  0.00     0.095 N 
HETATM    3  C1  UNK     1      30.763  -7.143  34.069  1.00  0.00     0.292 C 
HETATM    4  C3  UNK     1      30.250  -7.530  35.457  1.00  0.00     0.156 C 
HETATM    5  N2  UNK     1      31.348  -7.967  36.327  1.00  0.00    -0.343 N 
HETATM    6  C4  UNK     1      32.228  -8.974  35.732  1.00  0.00     0.156 C 
HETATM    7  C7  UNK     1      31.566  -7.542  37.650  1.00  0.00     0.277 C 
HETATM    8  C2  UNK     1      32.709  -8.544  34.348  1.00  0.00     0.292 C 
HETATM    9  O2  UNK     1      32.512  -7.949  38.328  1.00  0.00    -0.265 OA
BRANCH   7  10
HETATM   10  C12 UNK     1      30.621  -6.582  38.211  1.00  0.00     0.142 A 
HETATM   11  O3  UNK     1      29.432  -7.054  38.669  1.00  0.00    -0.317 OA
HETATM   12  C21 UNK     1      28.741  -5.981  39.135  1.00  0.00     0.143 A 
HETATM   13  C20 UNK     1      29.476  -4.828  38.979  1.00  0.00     0.027 A 
HETATM   14  C18 UNK     1      30.697  -5.219  38.379  1.00  0.00     0.045 A 
ENDBRANCH   7  10
ENDBRANCH   1   2
BRANCH   1  15
HETATM   15  C6  UNK     1      31.812  -8.941  31.151  1.00  0.00    -0.011 A 
HETATM   16  C8  UNK     1      30.516  -9.067  30.469  1.00  0.00     0.007 A 
HETATM   17  C10 UNK     1      30.345 -10.099  29.545  1.00  0.00     0.090 A 
HETATM   18  C11 UNK     1      29.433  -8.206  30.691  1.00  0.00     0.022 A 
HETATM   19  O1  UNK     1      31.385 -11.007  29.265  1.00  0.00    -0.275 OA
HETATM   20  C15 UNK     1      29.146 -10.288  28.853  1.00  0.00     0.039 A 
HETATM   21  C14 UNK     1      32.617 -10.913  29.893  1.00  0.00     0.288 A 
HETATM   22  O4  UNK     1      33.530 -11.697  29.657  1.00  0.00    -0.260 OA
HETATM   23  C9  UNK     1      32.784  -9.819  30.865  1.00  0.00     0.092 A 
HETATM   24  C16 UNK     1      28.084  -9.423  29.088  1.00  0.00     0.010 A 
HETATM   25  C13 UNK     1      28.226  -8.383  30.004  1.00  0.00    -0.058 A 
BRANCH  25  26
HETATM   26  C17 UNK     1      27.086  -7.454  30.257  1.00  0.00     0.034 C 
HETATM   27  C19 UNK     1      27.266  -6.652  31.543  1.00  0.00     0.010 C 
ENDBRANCH  25  26
ENDBRANCH   1  15
TORSDOF 4
ENDMDL
MODEL 8
REMARK VINA RESULT:      -8.3     15.998     17.439
REMARK  4 active torsions:
REMARK  status: ('A' for Active; 'I' for Inactive)
REMARK    1  A    between atoms: C5_11  and  N1_5 
REMARK       I    between atoms: C7_13  and  N2_6 
REMARK    2  A    between atoms: C5_11  and  C6_12 
REMARK    3  A    between atoms: C12_18  and  C7_13 
REMARK    4  A    between atoms: C13_19  and  C17_23 
ROOT
HETATM    1  C5  UNK     1      31.390  -7.077  35.091  1.00  0.00     0.312 C 
ENDROOT
BRANCH   1   2
HETATM    2  N1  UNK     1      30.244  -7.363  34.229  1.00  0.00     0.095 N 
HETATM    3  C1  UNK     1      30.599  -8.361  33.211  1.00  0.00     0.292 C 
HETATM    4  C3  UNK     1      29.400  -8.693  32.320  1.00  0.00     0.156 C 
HETATM    5  N2  UNK     1      28.810  -7.477  31.750  1.00  0.00    -0.343 N 
HETATM    6  C4  UNK     1      28.533  -6.422  32.725  1.00  0.00     0.156 C 
HETATM    7  C7  UNK     1      28.459  -7.291  30.399  1.00  0.00     0.277 C 
HETATM    8  C2  UNK     1      29.757  -6.131  33.592  1.00  0.00     0.292 C 
HETATM    9  O2  UNK     1      27.966  -6.240  29.983  1.00  0.00    -0.265 OA
BRANCH   7  10
HETATM   10  C12 UNK     1      28.704  -8.399  29.483  1.00  0.00     0.142 A 
HETATM   11  O3  UNK     1      29.928  -8.483  28.900  1.00  0.00    -0.317 OA
HETATM   12  C21 UNK     1      29.905  -9.584  28.104  1.00  0.00     0.143 A 
HETATM   13  C20 UNK     1      28.679 -10.205  28.173  1.00  0.00     0.027 A 
HETATM   14  C18 UNK     1      27.899  -9.435  29.068  1.00  0.00     0.045 A 
ENDBRANCH   7  10
ENDBRANCH   1   2
BRANCH   1  15
HETATM   15  C6  UNK     1      31.137  -5.923  35.997  1.00  0.00    -0.011 A 
HETATM   16  C8  UNK     1      30.233  -6.077  37.146  1.00  0.00     0.007 A 
HETATM   17  C10 UNK     1      30.015  -4.977  37.977  1.00  0.00     0.090 A 
HETATM   18  C11 UNK     1      29.571  -7.271  37.460  1.00  0.00     0.022 A 
HETATM   19  O1  UNK     1      30.644  -3.741  37.730  1.00  0.00    -0.275 OA
HETATM   20  C15 UNK     1      29.172  -5.038  39.089  1.00  0.00     0.039 A 
HETATM   21  C14 UNK     1      31.502  -3.566  36.655  1.00  0.00     0.288 A 
HETATM   22  O4  UNK     1      32.054  -2.495  36.430  1.00  0.00    -0.260 OA
HETATM   23  C9  UNK     1      31.721  -4.735  35.786  1.00  0.00     0.092 A 
HETATM   24  C16 UNK     1      28.525  -6.233  39.384  1.00  0.00     0.010 A 
HETATM   25  C13 UNK     1      28.722  -7.348  38.572  1.00  0.00    -0.058 A 
BRANCH  25  26
HETATM   26  C17 UNK     1      28.028  -8.629  38.887  1.00  0.00     0.034 C 
HETATM   27  C19 UNK     1      26.518  -8.453  39.021  1.00  0.00     0.010 C 
ENDBRANCH  25  26
ENDBRANCH   1  15
TORSDOF 4
ENDMDL
MODEL 9
REMARK VINA RESULT:      -8.2     22.001     23.819
REMARK  4 active torsions:
REMARK  status: ('A' for Active; 'I' for Inactive)
REMARK    1  A    between atoms: C5_11  and  N1_5 
REMARK       I    between atoms: C7_13  and  N2_6 
REMARK    2  A    between atoms: C5_11  and  C6_12 
REMARK    3  A    between atoms: C12_18  and  C7_13 
REMARK    4  A    between atoms: C13_19  and  C17_23 
ROOT
HETATM    1  C5  UNK     1      15.552   8.428  10.858  1.00  0.00     0.312 C 
ENDROOT
BRANCH   1   2
HETATM    2  N1  UNK     1      15.128   7.613   9.720  1.00  0.00     0.095 N 
HETATM    3  C1  UNK     1      13.892   8.148   9.132  1.00  0.00     0.292 C 
HETATM    4  C3  UNK     1      13.453   7.323   7.921  1.00  0.00     0.156 C 
HETATM    5  N2  UNK     1      13.357   5.898   8.257  1.00  0.00    -0.343 N 
HETATM    6  C4  UNK     1      14.535   5.353   8.934  1.00  0.00     0.156 C 
HETATM    7  C7  UNK     1      12.281   5.050   7.937  1.00  0.00     0.277 C 
HETATM    8  C2  UNK     1      14.936   6.214  10.130  1.00  0.00     0.292 C 
HETATM    9  O2  UNK     1      12.262   3.858   8.250  1.00  0.00    -0.265 OA
BRANCH   7  10
HETATM   10  C12 UNK     1      11.159   5.634   7.209  1.00  0.00     0.142 A 
HETATM   11  O3  UNK     1       9.950   5.669   7.827  1.00  0.00    -0.317 OA
HETATM   12  C21 UNK     1       9.085   6.252   6.956  1.00  0.00     0.143 A 
HETATM   13  C20 UNK     1       9.729   6.590   5.789  1.00  0.00     0.027 A 
HETATM   14  C18 UNK     1      11.076   6.188   5.953  1.00  0.00     0.045 A 
ENDBRANCH   7  10
ENDBRANCH   1   2
BRANCH   1  15
HETATM   15  C6  UNK     1      16.213   9.691  10.428  1.00  0.00    -0.011 A 
HETATM   16  C8  UNK     1      15.745  10.980  10.957  1.00  0.00     0.007 A 
HETATM   17  C10 UNK     1      16.384  12.147  10.536  1.00  0.00     0.090 A 
HETATM   18  C11 UNK     1      14.686  11.110  11.866  1.00  0.00     0.022 A 
HETATM   19  O1  UNK     1      17.457  12.102   9.624  1.00  0.00    -0.275 OA
HETATM   20  C15 UNK     1      16.002  13.411  10.989  1.00  0.00     0.039 A 
HETATM   21  C14 UNK     1      17.920  10.901   9.109  1.00  0.00     0.288 A 
HETATM   22  O4  UNK     1      18.853  10.850   8.314  1.00  0.00    -0.260 OA
HETATM   23  C9  UNK     1      17.236   9.678   9.562  1.00  0.00     0.092 A 
HETATM   24  C16 UNK     1      14.949  13.519  11.891  1.00  0.00     0.010 A 
HETATM   25  C13 UNK     1      14.292  12.371  12.330  1.00  0.00    -0.058 A 
BRANCH  25  26
HETATM   26  C17 UNK     1      13.163  12.485  13.297  1.00  0.00     0.034 C 
HETATM   27  C19 UNK     1      13.147  11.341  14.308  1.00  0.00     0.010 C 
ENDBRANCH  25  26
ENDBRANCH   1  15
TORSDOF 4
ENDMDL
MODEL 10
REMARK VINA RESULT:      -8.1     22.829     24.540
REMARK  4 active torsions:
REMARK  status: ('A' for Active; 'I' for Inactive)
REMARK    1  A    between atoms: C5_11  and  N1_5 
REMARK       I    between atoms: C7_13  and  N2_6 
REMARK    2  A    between atoms: C5_11  and  C6_12 
REMARK    3  A    between atoms: C12_18  and  C7_13 
REMARK    4  A    between atoms: C13_19  and  C17_23 
ROOT
HETATM    1  C5  UNK     1       7.804   6.432   8.354  1.00  0.00     0.312 C 
ENDROOT
BRANCH   1   2
HETATM    2  N1  UNK     1       9.111   5.870   8.016  1.00  0.00     0.095 N 
HETATM    3  C1  UNK     1      10.033   5.984   9.155  1.00  0.00     0.292 C 
HETATM    4  C3  UNK     1      11.396   5.372   8.826  1.00  0.00     0.156 C 
HETATM    5  N2  UNK     1      11.945   5.935   7.587  1.00  0.00    -0.343 N 
HETATM    6  C4  UNK     1      11.018   5.927   6.455  1.00  0.00     0.156 C 
HETATM    7  C7  UNK     1      13.259   6.406   7.411  1.00  0.00     0.277 C 
HETATM    8  C2  UNK     1       9.672   6.542   6.834  1.00  0.00     0.292 C 
HETATM    9  O2  UNK     1      13.658   6.869   6.341  1.00  0.00    -0.265 OA
BRANCH   7  10
HETATM   10  C12 UNK     1      14.158   6.334   8.559  1.00  0.00     0.142 A 
HETATM   11  O3  UNK     1      15.021   5.287   8.625  1.00  0.00    -0.317 OA
HETATM   12  C21 UNK     1      15.737   5.446   9.769  1.00  0.00     0.143 A 
HETATM   13  C20 UNK     1      15.341   6.583  10.433  1.00  0.00     0.027 A 
HETATM   14  C18 UNK     1      14.315   7.160   9.648  1.00  0.00     0.045 A 
ENDBRANCH   7  10
ENDBRANCH   1   2
BRANCH   1  15
HETATM   15  C6  UNK     1       7.191   5.759   9.532  1.00  0.00    -0.011 A 
HETATM   16  C8  UNK     1       6.781   6.553  10.698  1.00  0.00     0.007 A 
HETATM   17  C10 UNK     1       6.209   5.894  11.788  1.00  0.00     0.090 A 
HETATM   18  C11 UNK     1       6.930   7.943  10.785  1.00  0.00     0.022 A 
HETATM   19  O1  UNK     1       6.024   4.497  11.780  1.00  0.00    -0.275 OA
HETATM   20  C15 UNK     1       5.792   6.573  12.935  1.00  0.00     0.039 A 
HETATM   21  C14 UNK     1       6.401   3.722  10.694  1.00  0.00     0.288 A 
HETATM   22  O4  UNK     1       6.245   2.506  10.676  1.00  0.00    -0.260 OA
HETATM   23  C9  UNK     1       7.004   4.431   9.552  1.00  0.00     0.092 A 
HETATM   24  C16 UNK     1       5.948   7.953  13.000  1.00  0.00     0.010 A 
HETATM   25  C13 UNK     1       6.516   8.638  11.928  1.00  0.00    -0.058 A 
BRANCH  25  26
HETATM   26  C17 UNK     1       6.684  10.118  11.997  1.00  0.00     0.034 C 
HETATM   27  C19 UNK     1       7.980  10.586  11.340  1.00  0.00     0.010 C 
ENDBRANCH  25  26
ENDBRANCH   1  15
TORSDOF 4
ENDMDL
