MODEL 1
REMARK VINA RESULT:      -8.7      0.000      0.000
REMARK  2 active torsions:
REMARK  status: ('A' for Active; 'I' for Inactive)
REMARK    1  A    between atoms: C11_18  and  N1_5 
REMARK       I    between atoms: C8_15  and  N1_5 
REMARK    2  A    between atoms: C3_10  and  C8_15 
ROOT
HETATM    1  O1  UNK     1      19.126   1.571  31.650  1.00  0.00    -0.304 OA
HETATM    2  O2  UNK     1      17.974   2.047  27.767  1.00  0.00    -0.287 OA
HETATM    3  C1  UNK     1      19.085   0.716  29.376  1.00  0.00     0.048 A 
HETATM    4  C2  UNK     1      19.448   0.616  30.719  1.00  0.00     0.090 A 
HETATM    5  C3  UNK     1      18.413   2.672  31.222  1.00  0.00     0.147 A 
HETATM    6  C4  UNK     1      18.323   1.895  28.929  1.00  0.00     0.187 A 
HETATM    7  C5  UNK     1      18.001   2.895  29.968  1.00  0.00     0.098 A 
HETATM    8  C6  UNK     1      19.440  -0.288  28.472  1.00  0.00     0.018 A 
HETATM    9  C7  UNK     1      20.170  -0.491  31.166  1.00  0.00     0.038 A 
HETATM   10  C9  UNK     1      20.163  -1.393  28.922  1.00  0.00     0.001 A 
HETATM   11  C10 UNK     1      20.527  -1.496  30.265  1.00  0.00     0.003 A 
ENDROOT
BRANCH   5  12
HETATM   12  C8  UNK     1      18.078   3.680  32.230  1.00  0.00     0.281 C 
HETATM   13  O3  UNK     1      17.957   3.348  33.409  1.00  0.00    -0.265 OA
HETATM   14  N1  UNK     1      17.937   4.945  31.672  1.00  0.00    -0.298 N 
HETATM   15  H6  UNK     1      18.068   5.064  30.671  1.00  0.00     0.171 HD
BRANCH  14  16
HETATM   16  C11 UNK     1      17.621   6.121  32.359  1.00  0.00     0.196 A 
HETATM   17  S1  UNK     1      18.939   7.120  32.762  1.00  0.00    -0.034 SA
HETATM   18  C12 UNK     1      17.776   8.164  33.471  1.00  0.00     0.097 A 
HETATM   19  N3  UNK     1      16.531   7.746  33.380  1.00  0.00    -0.145 NA
HETATM   20  C13 UNK     1      18.208   9.419  34.117  1.00  0.00     0.081 C 
HETATM   21  N2  UNK     1      16.444   6.533  32.719  1.00  0.00    -0.123 NA
ENDBRANCH  14  16
ENDBRANCH   5  12
TORSDOF 2
ENDMDL
MODEL 2
REMARK VINA RESULT:      -8.5      2.794      7.664
REMARK  2 active torsions:
REMARK  status: ('A' for Active; 'I' for Inactive)
REMARK    1  A    between atoms: C11_18  and  N1_5 
REMARK       I    between atoms: C8_15  and  N1_5 
REMARK    2  A    between atoms: C3_10  and  C8_15 
ROOT
HETATM    1  O1  UNK     1      16.814   5.448  32.279  1.00  0.00    -0.304 OA
HETATM    2  O2  UNK     1      20.259   7.377  33.298  1.00  0.00    -0.287 OA
HETATM    3  C1  UNK     1      17.905   7.463  33.087  1.00  0.00     0.048 A 
HETATM    4  C2  UNK     1      16.765   6.746  32.722  1.00  0.00     0.090 A 
HETATM    5  C3  UNK     1      18.050   4.842  32.198  1.00  0.00     0.147 A 
HETATM    6  C4  UNK     1      19.220   6.807  32.997  1.00  0.00     0.187 A 
HETATM    7  C5  UNK     1      19.220   5.410  32.514  1.00  0.00     0.098 A 
HETATM    8  C6  UNK     1      17.796   8.783  33.531  1.00  0.00     0.018 A 
HETATM    9  C7  UNK     1      15.509   7.347  32.799  1.00  0.00     0.038 A 
HETATM   10  C9  UNK     1      16.538   9.381  33.605  1.00  0.00     0.001 A 
HETATM   11  C10 UNK     1      15.396   8.665  33.241  1.00  0.00     0.003 A 
ENDROOT
BRANCH   5  12
HETATM   12  C8  UNK     1      18.082   3.456  31.724  1.00  0.00     0.281 C 
HETATM   13  O3  UNK     1      17.638   2.557  32.439  1.00  0.00    -0.265 OA
HETATM   14  N1  UNK     1      18.643   3.353  30.458  1.00  0.00    -0.298 N 
HETATM   15  H6  UNK     1      18.967   4.195  29.988  1.00  0.00     0.171 HD
BRANCH  14  16
HETATM   16  C11 UNK     1      18.819   2.176  29.725  1.00  0.00     0.196 A 
HETATM   17  S1  UNK     1      19.835   1.007  30.432  1.00  0.00    -0.034 SA
HETATM   18  C12 UNK     1      19.508   0.056  29.043  1.00  0.00     0.097 A 
HETATM   19  N3  UNK     1      18.704   0.617  28.166  1.00  0.00    -0.145 NA
HETATM   20  C13 UNK     1      20.117  -1.282  28.906  1.00  0.00     0.081 C 
HETATM   21  N2  UNK     1      18.297   1.876  28.575  1.00  0.00    -0.123 NA
ENDBRANCH  14  16
ENDBRANCH   5  12
TORSDOF 2
ENDMDL
MODEL 3
REMARK VINA RESULT:      -8.4      8.961     10.506
REMARK  2 active torsions:
REMARK  status: ('A' for Active; 'I' for Inactive)
REMARK    1  A    between atoms: C11_18  and  N1_5 
REMARK       I    between atoms: C8_15  and  N1_5 
REMARK    2  A    between atoms: C3_10  and  C8_15 
ROOT
HETATM    1  O1  UNK     1      20.245  -6.165  38.017  1.00  0.00    -0.304 OA
HETATM    2  O2  UNK     1      17.609  -7.993  35.498  1.00  0.00    -0.287 OA
HETATM    3  C1  UNK     1      19.053  -8.179  37.362  1.00  0.00     0.048 A 
HETATM    4  C2  UNK     1      19.946  -7.494  38.187  1.00  0.00     0.090 A 
HETATM    5  C3  UNK     1      19.628  -5.495  36.981  1.00  0.00     0.147 A 
HETATM    6  C4  UNK     1      18.400  -7.454  36.260  1.00  0.00     0.187 A 
HETATM    7  C5  UNK     1      18.755  -6.027  36.117  1.00  0.00     0.098 A 
HETATM    8  C6  UNK     1      18.786  -9.533  37.582  1.00  0.00     0.018 A 
HETATM    9  C7  UNK     1      20.576  -8.160  39.238  1.00  0.00     0.038 A 
HETATM   10  C9  UNK     1      19.420 -10.196  38.633  1.00  0.00     0.001 A 
HETATM   11  C10 UNK     1      20.312  -9.512  39.460  1.00  0.00     0.003 A 
ENDROOT
BRANCH   5  12
HETATM   12  C8  UNK     1      19.960  -4.078  36.816  1.00  0.00     0.281 C 
HETATM   13  O3  UNK     1      21.128  -3.708  36.931  1.00  0.00    -0.265 OA
HETATM   14  N1  UNK     1      18.836  -3.311  36.536  1.00  0.00    -0.298 N 
HETATM   15  H6  UNK     1      17.928  -3.764  36.472  1.00  0.00     0.171 HD
BRANCH  14  16
HETATM   16  C11 UNK     1      18.810  -1.929  36.324  1.00  0.00     0.196 A 
HETATM   17  S1  UNK     1      17.850  -1.030  37.404  1.00  0.00    -0.034 SA
HETATM   18  C12 UNK     1      18.351   0.348  36.514  1.00  0.00     0.097 A 
HETATM   19  N3  UNK     1      19.164   0.093  35.512  1.00  0.00    -0.145 NA
HETATM   20  C13 UNK     1      17.868   1.689  36.899  1.00  0.00     0.081 C 
HETATM   21  N2  UNK     1      19.434  -1.261  35.402  1.00  0.00    -0.123 NA
ENDBRANCH  14  16
ENDBRANCH   5  12
TORSDOF 2
ENDMDL
MODEL 4
REMARK VINA RESULT:      -8.4      7.797      9.522
REMARK  2 active torsions:
REMARK  status: ('A' for Active; 'I' for Inactive)
REMARK    1  A    between atoms: C11_18  and  N1_5 
REMARK       I    between atoms: C8_15  and  N1_5 
REMARK    2  A    between atoms: C3_10  and  C8_15 
ROOT
HETATM    1  O1  UNK     1      21.292  -4.501  37.269  1.00  0.00    -0.304 OA
HETATM    2  O2  UNK     1      17.797  -6.603  37.247  1.00  0.00    -0.287 OA
HETATM    3  C1  UNK     1      20.023  -6.431  38.026  1.00  0.00     0.048 A 
HETATM    4  C2  UNK     1      21.189  -5.665  37.990  1.00  0.00     0.090 A 
HETATM    5  C3  UNK     1      20.187  -4.087  36.555  1.00  0.00     0.147 A 
HETATM    6  C4  UNK     1      18.849  -5.979  37.261  1.00  0.00     0.187 A 
HETATM    7  C5  UNK     1      19.010  -4.722  36.500  1.00  0.00     0.098 A 
HETATM    8  C6  UNK     1      19.975  -7.607  38.778  1.00  0.00     0.018 A 
HETATM    9  C7  UNK     1      22.314  -6.072  38.707  1.00  0.00     0.038 A 
HETATM   10  C9  UNK     1      21.103  -8.012  39.493  1.00  0.00     0.001 A 
HETATM   11  C10 UNK     1      22.269  -7.247  39.458  1.00  0.00     0.003 A 
ENDROOT
BRANCH   5  12
HETATM   12  C8  UNK     1      20.317  -2.844  35.792  1.00  0.00     0.281 C 
HETATM   13  O3  UNK     1      21.435  -2.417  35.507  1.00  0.00    -0.265 OA
HETATM   14  N1  UNK     1      19.079  -2.293  35.483  1.00  0.00    -0.298 N 
HETATM   15  H6  UNK     1      18.234  -2.767  35.791  1.00  0.00     0.171 HD
BRANCH  14  16
HETATM   16  C11 UNK     1      18.855  -1.114  34.767  1.00  0.00     0.196 A 
HETATM   17  S1  UNK     1      18.538   0.273  35.702  1.00  0.00    -0.034 SA
HETATM   18  C12 UNK     1      18.411   1.105  34.207  1.00  0.00     0.097 A 
HETATM   19  N3  UNK     1      18.600   0.357  33.141  1.00  0.00    -0.145 NA
HETATM   20  C13 UNK     1      18.110   2.551  34.191  1.00  0.00     0.081 C 
HETATM   21  N2  UNK     1      18.863  -0.959  33.478  1.00  0.00    -0.123 NA
ENDBRANCH  14  16
ENDBRANCH   5  12
TORSDOF 2
ENDMDL
MODEL 5
REMARK VINA RESULT:      -8.3      2.942      7.781
REMARK  2 active torsions:
REMARK  status: ('A' for Active; 'I' for Inactive)
REMARK    1  A    between atoms: C11_18  and  N1_5 
REMARK       I    between atoms: C8_15  and  N1_5 
REMARK    2  A    between atoms: C3_10  and  C8_15 
ROOT
HETATM    1  O1  UNK     1      17.005   6.050  31.754  1.00  0.00    -0.304 OA
HETATM    2  O2  UNK     1      19.361   7.284  34.846  1.00  0.00    -0.287 OA
HETATM    3  C1  UNK     1      17.236   7.329  33.807  1.00  0.00     0.048 A 
HETATM    4  C2  UNK     1      16.486   6.872  32.723  1.00  0.00     0.090 A 
HETATM    5  C3  UNK     1      18.326   5.671  31.872  1.00  0.00     0.147 A 
HETATM    6  C4  UNK     1      18.646   6.918  33.924  1.00  0.00     0.187 A 
HETATM    7  C5  UNK     1      19.158   6.035  32.856  1.00  0.00     0.098 A 
HETATM    8  C6  UNK     1      16.656   8.164  34.765  1.00  0.00     0.018 A 
HETATM    9  C7  UNK     1      15.150   7.248  32.592  1.00  0.00     0.038 A 
HETATM   10  C9  UNK     1      15.319   8.540  34.629  1.00  0.00     0.001 A 
HETATM   11  C10 UNK     1      14.567   8.082  33.546  1.00  0.00     0.003 A 
ENDROOT
BRANCH   5  12
HETATM   12  C8  UNK     1      18.862   4.794  30.828  1.00  0.00     0.281 C 
HETATM   13  O3  UNK     1      19.783   5.189  30.113  1.00  0.00    -0.265 OA
HETATM   14  N1  UNK     1      18.210   3.567  30.795  1.00  0.00    -0.298 N 
HETATM   15  H6  UNK     1      17.460   3.386  31.457  1.00  0.00     0.171 HD
BRANCH  14  16
HETATM   16  C11 UNK     1      18.480   2.511  29.920  1.00  0.00     0.196 A 
HETATM   17  S1  UNK     1      19.441   1.255  30.549  1.00  0.00    -0.034 SA
HETATM   18  C12 UNK     1      19.272   0.517  29.010  1.00  0.00     0.097 A 
HETATM   19  N3  UNK     1      18.550   1.199  28.147  1.00  0.00    -0.145 NA
HETATM   20  C13 UNK     1      19.916  -0.785  28.742  1.00  0.00     0.081 C 
HETATM   21  N2  UNK     1      18.082   2.382  28.692  1.00  0.00    -0.123 NA
ENDBRANCH  14  16
ENDBRANCH   5  12
TORSDOF 2
ENDMDL
MODEL 6
REMARK VINA RESULT:      -8.2     14.669     17.635
REMARK  2 active torsions:
REMARK  status: ('A' for Active; 'I' for Inactive)
REMARK    1  A    between atoms: C11_18  and  N1_5 
REMARK       I    between atoms: C8_15  and  N1_5 
REMARK    2  A    between atoms: C3_10  and  C8_15 
ROOT
HETATM    1  O1  UNK     1      19.185   0.762  16.081  1.00  0.00    -0.304 OA
HETATM    2  O2  UNK     1      18.748  -0.618  19.893  1.00  0.00    -0.287 OA
HETATM    3  C1  UNK     1      19.190   1.217  18.468  1.00  0.00     0.048 A 
HETATM    4  C2  UNK     1      19.327   1.623  17.140  1.00  0.00     0.090 A 
HETATM    5  C3  UNK     1      18.894  -0.557  16.359  1.00  0.00     0.147 A 
HETATM    6  C4  UNK     1      18.880  -0.194  18.754  1.00  0.00     0.187 A 
HETATM    7  C5  UNK     1      18.737  -1.081  17.581  1.00  0.00     0.098 A 
HETATM    8  C6  UNK     1      19.346   2.137  19.507  1.00  0.00     0.018 A 
HETATM    9  C7  UNK     1      19.621   2.954  16.845  1.00  0.00     0.038 A 
HETATM   10  C9  UNK     1      19.641   3.468  19.208  1.00  0.00     0.001 A 
HETATM   11  C10 UNK     1      19.778   3.876  17.880  1.00  0.00     0.003 A 
ENDROOT
BRANCH   5  12
HETATM   12  C8  UNK     1      18.746  -1.461  15.215  1.00  0.00     0.281 C 
HETATM   13  O3  UNK     1      18.129  -2.517  15.350  1.00  0.00    -0.265 OA
HETATM   14  N1  UNK     1      19.362  -0.961  14.075  1.00  0.00    -0.298 N 
HETATM   15  H6  UNK     1      19.838  -0.063  14.120  1.00  0.00     0.171 HD
BRANCH  14  16
HETATM   16  C11 UNK     1      19.403  -1.577  12.821  1.00  0.00     0.196 A 
HETATM   17  S1  UNK     1      20.481  -2.886  12.672  1.00  0.00    -0.034 SA
HETATM   18  C12 UNK     1      19.935  -2.996  11.049  1.00  0.00     0.097 A 
HETATM   19  N3  UNK     1      19.029  -2.105  10.710  1.00  0.00    -0.145 NA
HETATM   20  C13 UNK     1      20.486  -4.034  10.156  1.00  0.00     0.081 C 
HETATM   21  N2  UNK     1      18.716  -1.264  11.765  1.00  0.00    -0.123 NA
ENDBRANCH  14  16
ENDBRANCH   5  12
TORSDOF 2
ENDMDL
MODEL 7
REMARK VINA RESULT:      -8.2     13.956     16.281
REMARK  2 active torsions:
REMARK  status: ('A' for Active; 'I' for Inactive)
REMARK    1  A    between atoms: C11_18  and  N1_5 
REMARK       I    between atoms: C8_15  and  N1_5 
REMARK    2  A    between atoms: C3_10  and  C8_15 
ROOT
HETATM    1  O1  UNK     1      19.475  -1.215  14.669  1.00  0.00    -0.304 OA
HETATM    2  O2  UNK     1      17.772  -4.872  14.069  1.00  0.00    -0.287 OA
HETATM    3  C1  UNK     1      19.208  -3.177  13.259  1.00  0.00     0.048 A 
HETATM    4  C2  UNK     1      19.756  -1.921  13.526  1.00  0.00     0.090 A 
HETATM    5  C3  UNK     1      18.612  -1.785  15.581  1.00  0.00     0.147 A 
HETATM    6  C4  UNK     1      18.288  -3.777  14.240  1.00  0.00     0.187 A 
HETATM    7  C5  UNK     1      18.017  -2.978  15.453  1.00  0.00     0.098 A 
HETATM    8  C6  UNK     1      19.530  -3.851  12.078  1.00  0.00     0.018 A 
HETATM    9  C7  UNK     1      20.629  -1.333  12.611  1.00  0.00     0.038 A 
HETATM   10  C9  UNK     1      20.403  -3.258  11.165  1.00  0.00     0.001 A 
HETATM   11  C10 UNK     1      20.952  -2.003  11.431  1.00  0.00     0.003 A 
ENDROOT
BRANCH   5  12
HETATM   12  C8  UNK     1      18.324  -1.017  16.794  1.00  0.00     0.281 C 
HETATM   13  O3  UNK     1      17.327  -1.286  17.464  1.00  0.00    -0.265 OA
HETATM   14  N1  UNK     1      19.280  -0.036  17.026  1.00  0.00    -0.298 N 
HETATM   15  H6  UNK     1      20.055   0.066  16.377  1.00  0.00     0.171 HD
BRANCH  14  16
HETATM   16  C11 UNK     1      19.297   0.865  18.096  1.00  0.00     0.196 A 
HETATM   17  S1  UNK     1      19.717   0.210  19.610  1.00  0.00    -0.034 SA
HETATM   18  C12 UNK     1      19.508   1.799  20.221  1.00  0.00     0.097 A 
HETATM   19  N3  UNK     1      19.156   2.694  19.323  1.00  0.00    -0.145 NA
HETATM   20  C13 UNK     1      19.722   2.071  21.656  1.00  0.00     0.081 C 
HETATM   21  N2  UNK     1      19.032   2.135  18.062  1.00  0.00    -0.123 NA
ENDBRANCH  14  16
ENDBRANCH   5  12
TORSDOF 2
ENDMDL
MODEL 8
REMARK VINA RESULT:      -8.2     14.274     17.346
REMARK  2 active torsions:
REMARK  status: ('A' for Active; 'I' for Inactive)
REMARK    1  A    between atoms: C11_18  and  N1_5 
REMARK       I    between atoms: C8_15  and  N1_5 
REMARK    2  A    between atoms: C3_10  and  C8_15 
ROOT
HETATM    1  O1  UNK     1      19.086  -0.940  17.263  1.00  0.00    -0.304 OA
HETATM    2  O2  UNK     1      19.340   2.755  15.556  1.00  0.00    -0.287 OA
HETATM    3  C1  UNK     1      19.110   1.475  17.532  1.00  0.00     0.048 A 
HETATM    4  C2  UNK     1      19.029   0.183  18.051  1.00  0.00     0.090 A 
HETATM    5  C3  UNK     1      19.230  -0.765  15.903  1.00  0.00     0.147 A 
HETATM    6  C4  UNK     1      19.265   1.651  16.078  1.00  0.00     0.187 A 
HETATM    7  C5  UNK     1      19.320   0.414  15.273  1.00  0.00     0.098 A 
HETATM    8  C6  UNK     1      19.047   2.582  18.381  1.00  0.00     0.018 A 
HETATM    9  C7  UNK     1      18.882  -0.009  19.425  1.00  0.00     0.038 A 
HETATM   10  C9  UNK     1      18.899   2.386  19.755  1.00  0.00     0.001 A 
HETATM   11  C10 UNK     1      18.818   1.094  20.276  1.00  0.00     0.003 A 
ENDROOT
BRANCH   5  12
HETATM   12  C8  UNK     1      19.289  -1.974  15.079  1.00  0.00     0.281 C 
HETATM   13  O3  UNK     1      20.212  -2.121  14.278  1.00  0.00    -0.265 OA
HETATM   14  N1  UNK     1      18.228  -2.832  15.338  1.00  0.00    -0.298 N 
HETATM   15  H6  UNK     1      17.536  -2.570  16.036  1.00  0.00     0.171 HD
BRANCH  14  16
HETATM   16  C11 UNK     1      17.993  -4.065  14.724  1.00  0.00     0.196 A 
HETATM   17  S1  UNK     1      17.334  -5.277  15.721  1.00  0.00    -0.034 SA
HETATM   18  C12 UNK     1      17.380  -6.280  14.330  1.00  0.00     0.097 A 
HETATM   19  N3  UNK     1      17.856  -5.701  13.248  1.00  0.00    -0.145 NA
HETATM   20  C13 UNK     1      16.907  -7.676  14.412  1.00  0.00     0.081 C 
HETATM   21  N2  UNK     1      18.218  -4.387  13.487  1.00  0.00    -0.123 NA
ENDBRANCH  14  16
ENDBRANCH   5  12
TORSDOF 2
ENDMDL
MODEL 9
REMARK VINA RESULT:      -8.1      1.715      2.406
REMARK  2 active torsions:
REMARK  status: ('A' for Active; 'I' for Inactive)
REMARK    1  A    between atoms: C11_18  and  N1_5 
REMARK       I    between atoms: C8_15  and  N1_5 
REMARK    2  A    between atoms: C3_10  and  C8_15 
ROOT
HETATM    1  O1  UNK     1      19.043   0.526  31.732  1.00  0.00    -0.304 OA
HETATM    2  O2  UNK     1      20.405  -0.611  28.060  1.00  0.00    -0.287 OA
HETATM    3  C1  UNK     1      20.155  -1.137  30.352  1.00  0.00     0.048 A 
HETATM    4  C2  UNK     1      19.667  -0.687  31.579  1.00  0.00     0.090 A 
HETATM    5  C3  UNK     1      18.903   1.322  30.614  1.00  0.00     0.147 A 
HETATM    6  C4  UNK     1      19.999  -0.280  29.165  1.00  0.00     0.187 A 
HETATM    7  C5  UNK     1      19.323   1.016  29.380  1.00  0.00     0.098 A 
HETATM    8  C6  UNK     1      20.781  -2.382  30.255  1.00  0.00     0.018 A 
HETATM    9  C7  UNK     1      19.803  -1.482  32.717  1.00  0.00     0.038 A 
HETATM   10  C9  UNK     1      20.917  -3.174  31.396  1.00  0.00     0.001 A 
HETATM   11  C10 UNK     1      20.428  -2.726  32.625  1.00  0.00     0.003 A 
ENDROOT
BRANCH   5  12
HETATM   12  C8  UNK     1      18.235   2.612  30.797  1.00  0.00     0.281 C 
HETATM   13  O3  UNK     1      17.007   2.678  30.730  1.00  0.00    -0.265 OA
HETATM   14  N1  UNK     1      19.142   3.638  31.032  1.00  0.00    -0.298 N 
HETATM   15  H6  UNK     1      20.136   3.426  31.058  1.00  0.00     0.171 HD
BRANCH  14  16
HETATM   16  C11 UNK     1      18.830   4.984  31.247  1.00  0.00     0.196 A 
HETATM   17  S1  UNK     1      18.699   5.464  32.875  1.00  0.00    -0.034 SA
HETATM   18  C12 UNK     1      18.350   7.027  32.260  1.00  0.00     0.097 A 
HETATM   19  N3  UNK     1      18.347   7.116  30.947  1.00  0.00    -0.145 NA
HETATM   20  C13 UNK     1      18.082   8.142  33.190  1.00  0.00     0.081 C 
HETATM   21  N2  UNK     1      18.633   5.901  30.350  1.00  0.00    -0.123 NA
ENDBRANCH  14  16
ENDBRANCH   5  12
TORSDOF 2
ENDMDL
MODEL 10
REMARK VINA RESULT:      -8.1      1.401      2.335
REMARK  2 active torsions:
REMARK  status: ('A' for Active; 'I' for Inactive)
REMARK    1  A    between atoms: C11_18  and  N1_5 
REMARK       I    between atoms: C8_15  and  N1_5 
REMARK    2  A    between atoms: C3_10  and  C8_15 
ROOT
HETATM    1  O1  UNK     1      19.269   1.928  30.328  1.00  0.00    -0.304 OA
HETATM    2  O2  UNK     1      18.505  -0.058  33.808  1.00  0.00    -0.287 OA
HETATM    3  C1  UNK     1      19.322  -0.148  31.590  1.00  0.00     0.048 A 
HETATM    4  C2  UNK     1      19.558   0.590  30.430  1.00  0.00     0.090 A 
HETATM    5  C3  UNK     1      18.723   2.553  31.429  1.00  0.00     0.147 A 
HETATM    6  C4  UNK     1      18.739   0.530  32.761  1.00  0.00     0.187 A 
HETATM    7  C5  UNK     1      18.445   1.969  32.602  1.00  0.00     0.098 A 
HETATM    8  C6  UNK     1      19.636  -1.509  31.637  1.00  0.00     0.018 A 
HETATM    9  C7  UNK     1      20.109  -0.030  29.309  1.00  0.00     0.038 A 
HETATM   10  C9  UNK     1      20.187  -2.126  30.513  1.00  0.00     0.001 A 
HETATM   11  C10 UNK     1      20.423  -1.389  29.352  1.00  0.00     0.003 A 
ENDROOT
BRANCH   5  12
HETATM   12  C8  UNK     1      18.422   3.981  31.302  1.00  0.00     0.281 C 
HETATM   13  O3  UNK     1      18.686   4.569  30.253  1.00  0.00    -0.265 OA
HETATM   14  N1  UNK     1      17.846   4.495  32.457  1.00  0.00    -0.298 N 
HETATM   15  H6  UNK     1      17.688   3.879  33.251  1.00  0.00     0.171 HD
BRANCH  14  16
HETATM   16  C11 UNK     1      17.442   5.818  32.661  1.00  0.00     0.196 A 
HETATM   17  S1  UNK     1      18.557   6.818  33.469  1.00  0.00    -0.034 SA
HETATM   18  C12 UNK     1      17.387   8.061  33.294  1.00  0.00     0.097 A 
HETATM   19  N3  UNK     1      16.283   7.696  32.678  1.00  0.00    -0.145 NA
HETATM   20  C13 UNK     1      17.663   9.412  33.820  1.00  0.00     0.081 C 
HETATM   21  N2  UNK     1      16.320   6.364  32.304  1.00  0.00    -0.123 NA
ENDBRANCH  14  16
ENDBRANCH   5  12
TORSDOF 2
ENDMDL
