MODEL 1
REMARK VINA RESULT:      -9.1      0.000      0.000
REMARK  4 active torsions:
REMARK  status: ('A' for Active; 'I' for Inactive)
REMARK    1  A    between atoms: C18_25  and  O4_5 
REMARK    2  A    between atoms: C22_29  and  O4_5 
REMARK    3  A    between atoms: C5_12  and  N1_6 
REMARK       I    between atoms: C6_13  and  N2_7 
REMARK    4  A    between atoms: C6_13  and  C9_16 
ROOT
HETATM    1  O1  UNK     1      27.571 -10.261  38.968  1.00  0.00    -0.267 OA
HETATM    2  N1  UNK     1      30.180  -6.945  36.569  1.00  0.00    -0.377 N 
HETATM    3  N2  UNK     1      28.325  -8.981  37.181  1.00  0.00    -0.345 N 
HETATM    4  C1  UNK     1      30.436  -7.841  37.709  1.00  0.00     0.143 C 
HETATM    5  C2  UNK     1      28.773  -6.786  36.171  1.00  0.00     0.143 C 
HETATM    6  C3  UNK     1      29.736  -9.184  37.502  1.00  0.00     0.146 C 
HETATM    7  C4  UNK     1      28.117  -8.154  35.989  1.00  0.00     0.146 C 
HETATM    8  C6  UNK     1      27.346  -9.571  37.971  1.00  0.00     0.260 C 
ENDROOT
BRANCH   8   9
HETATM    9  C9  UNK     1      25.935  -9.354  37.596  1.00  0.00     0.108 A 
HETATM   10  C13 UNK     1      25.360 -10.320  36.870  1.00  0.00     0.037 A 
HETATM   11  C15 UNK     1      23.972 -10.196  36.451  1.00  0.00     0.002 A 
HETATM   12  C17 UNK     1      23.259  -9.059  36.817  1.00  0.00     0.123 A 
HETATM   13  C19 UNK     1      23.332 -11.181  35.695  1.00  0.00     0.014 A 
HETATM   14  O2  UNK     1      23.869  -8.046  37.581  1.00  0.00    -0.271 OA
HETATM   15  C18 UNK     1      21.927  -8.880  36.448  1.00  0.00     0.103 A 
HETATM   16  C16 UNK     1      25.195  -8.136  37.996  1.00  0.00     0.304 A 
HETATM   17  O3  UNK     1      25.718  -7.248  38.661  1.00  0.00    -0.259 OA
HETATM   18  C20 UNK     1      21.296  -9.866  35.694  1.00  0.00     0.040 A 
HETATM   19  C21 UNK     1      21.997 -11.014  35.318  1.00  0.00     0.004 A 
BRANCH  15  20
HETATM   20  O4  UNK     1      21.240  -7.763  36.812  1.00  0.00    -0.349 OA
BRANCH  20  21
HETATM   21  C22 UNK     1      20.073  -7.949  37.612  1.00  0.00     0.171 C 
HETATM   22  C23 UNK     1      20.471  -7.945  39.073  1.00  0.00     0.034 C 
ENDBRANCH  20  21
ENDBRANCH  15  20
ENDBRANCH   8   9
BRANCH   2  23
HETATM   23  C5  UNK     1      31.080  -5.894  36.354  1.00  0.00     0.037 A 
HETATM   24  C7  UNK     1      30.936  -4.634  36.985  1.00  0.00    -0.035 A 
HETATM   25  C10 UNK     1      31.842  -3.599  36.759  1.00  0.00     0.011 A 
HETATM   26  C11 UNK     1      29.791  -4.400  37.915  1.00  0.00     0.050 C 
HETATM   27  C14 UNK     1      32.920  -3.792  35.894  1.00  0.00     0.024 A 
HETATM   28  C12 UNK     1      33.091  -5.020  35.257  1.00  0.00     0.036 A 
HETATM   29 Cl1  UNK     1      34.421  -5.258  34.190  1.00  0.00    -0.084 Cl
HETATM   30  C8  UNK     1      32.185  -6.056  35.483  1.00  0.00     0.053 A 
ENDBRANCH   2  23
TORSDOF 4
ENDMDL
MODEL 2
REMARK VINA RESULT:      -9.0      7.083     10.495
REMARK  4 active torsions:
REMARK  status: ('A' for Active; 'I' for Inactive)
REMARK    1  A    between atoms: C18_25  and  O4_5 
REMARK    2  A    between atoms: C22_29  and  O4_5 
REMARK    3  A    between atoms: C5_12  and  N1_6 
REMARK       I    between atoms: C6_13  and  N2_7 
REMARK    4  A    between atoms: C6_13  and  C9_16 
ROOT
HETATM    1  O1  UNK     1      20.723  -2.466  37.520  1.00  0.00    -0.267 OA
HETATM    2  N1  UNK     1      20.634  -7.237  36.632  1.00  0.00    -0.377 N 
HETATM    3  N2  UNK     1      19.955  -4.499  36.698  1.00  0.00    -0.345 N 
HETATM    4  C1  UNK     1      21.114  -6.396  37.741  1.00  0.00     0.143 C 
HETATM    5  C2  UNK     1      20.321  -6.538  35.376  1.00  0.00     0.143 C 
HETATM    6  C3  UNK     1      20.179  -5.207  37.956  1.00  0.00     0.146 C 
HETATM    7  C4  UNK     1      19.395  -5.353  35.647  1.00  0.00     0.146 C 
HETATM    8  C6  UNK     1      20.251  -3.144  36.606  1.00  0.00     0.260 C 
ENDROOT
BRANCH   8   9
HETATM    9  C9  UNK     1      19.989  -2.468  35.320  1.00  0.00     0.108 A 
HETATM   10  C13 UNK     1      20.558  -3.011  34.238  1.00  0.00     0.037 A 
HETATM   11  C15 UNK     1      20.358  -2.417  32.926  1.00  0.00     0.002 A 
HETATM   12  C17 UNK     1      19.568  -1.277  32.818  1.00  0.00     0.123 A 
HETATM   13  C19 UNK     1      20.932  -2.951  31.770  1.00  0.00     0.014 A 
HETATM   14  O2  UNK     1      18.971  -0.709  33.960  1.00  0.00    -0.271 OA
HETATM   15  C18 UNK     1      19.336  -0.658  31.590  1.00  0.00     0.103 A 
HETATM   16  C16 UNK     1      19.144  -1.256  35.228  1.00  0.00     0.304 A 
HETATM   17  O3  UNK     1      18.620  -0.754  36.217  1.00  0.00    -0.259 OA
HETATM   18  C20 UNK     1      19.913  -1.198  30.443  1.00  0.00     0.040 A 
HETATM   19  C21 UNK     1      20.709  -2.342  30.532  1.00  0.00     0.004 A 
BRANCH  15  20
HETATM   20  O4  UNK     1      18.562   0.456  31.498  1.00  0.00    -0.349 OA
BRANCH  20  21
HETATM   21  C22 UNK     1      18.930   1.425  30.517  1.00  0.00     0.171 C 
HETATM   22  C23 UNK     1      18.328   2.762  30.895  1.00  0.00     0.034 C 
ENDBRANCH  20  21
ENDBRANCH  15  20
ENDBRANCH   8   9
BRANCH   2  23
HETATM   23  C5  UNK     1      21.065  -8.568  36.591  1.00  0.00     0.037 A 
HETATM   24  C7  UNK     1      20.171  -9.657  36.733  1.00  0.00    -0.035 A 
HETATM   25  C10 UNK     1      20.619 -10.977  36.690  1.00  0.00     0.011 A 
HETATM   26  C11 UNK     1      18.714  -9.396  36.934  1.00  0.00     0.050 C 
HETATM   27  C14 UNK     1      21.975 -11.248  36.504  1.00  0.00     0.024 A 
HETATM   28  C12 UNK     1      22.882 -10.199  36.360  1.00  0.00     0.036 A 
HETATM   29 Cl1  UNK     1      24.555 -10.533  36.131  1.00  0.00    -0.084 Cl
HETATM   30  C8  UNK     1      22.434  -8.878  36.403  1.00  0.00     0.053 A 
ENDBRANCH   2  23
TORSDOF 4
ENDMDL
MODEL 3
REMARK VINA RESULT:      -8.8      1.220      2.147
REMARK  4 active torsions:
REMARK  status: ('A' for Active; 'I' for Inactive)
REMARK    1  A    between atoms: C18_25  and  O4_5 
REMARK    2  A    between atoms: C22_29  and  O4_5 
REMARK    3  A    between atoms: C5_12  and  N1_6 
REMARK       I    between atoms: C6_13  and  N2_7 
REMARK    4  A    between atoms: C6_13  and  C9_16 
ROOT
HETATM    1  O1  UNK     1      27.805 -10.025  39.301  1.00  0.00    -0.267 OA
HETATM    2  N1  UNK     1      30.330  -6.794  36.705  1.00  0.00    -0.377 N 
HETATM    3  N2  UNK     1      28.480  -8.788  37.454  1.00  0.00    -0.345 N 
HETATM    4  C1  UNK     1      30.634  -7.675  37.844  1.00  0.00     0.143 C 
HETATM    5  C2  UNK     1      28.906  -6.618  36.382  1.00  0.00     0.143 C 
HETATM    6  C3  UNK     1      29.903  -9.009  37.700  1.00  0.00     0.146 C 
HETATM    7  C4  UNK     1      28.219  -7.977  36.261  1.00  0.00     0.146 C 
HETATM    8  C6  UNK     1      27.536  -9.349  38.307  1.00  0.00     0.260 C 
ENDROOT
BRANCH   8   9
HETATM    9  C9  UNK     1      26.110  -9.114  38.006  1.00  0.00     0.108 A 
HETATM   10  C13 UNK     1      25.497  -8.178  38.739  1.00  0.00     0.037 A 
HETATM   11  C15 UNK     1      24.092  -7.875  38.517  1.00  0.00     0.002 A 
HETATM   12  C17 UNK     1      23.401  -8.574  37.532  1.00  0.00     0.123 A 
HETATM   13  C19 UNK     1      23.412  -6.905  39.258  1.00  0.00     0.014 A 
HETATM   14  O2  UNK     1      24.051  -9.558  36.763  1.00  0.00    -0.271 OA
HETATM   15  C18 UNK     1      22.054  -8.332  37.269  1.00  0.00     0.103 A 
HETATM   16  C16 UNK     1      25.395  -9.870  36.954  1.00  0.00     0.304 A 
HETATM   17  O3  UNK     1      25.954 -10.728  36.279  1.00  0.00    -0.259 OA
HETATM   18  C20 UNK     1      21.384  -7.364  38.013  1.00  0.00     0.040 A 
HETATM   19  C21 UNK     1      22.061  -6.651  39.005  1.00  0.00     0.004 A 
BRANCH  15  20
HETATM   20  O4  UNK     1      21.390  -9.023  36.304  1.00  0.00    -0.349 OA
BRANCH  20  21
HETATM   21  C22 UNK     1      20.126  -9.584  36.658  1.00  0.00     0.171 C 
HETATM   22  C23 UNK     1      20.354 -10.885  37.397  1.00  0.00     0.034 C 
ENDBRANCH  20  21
ENDBRANCH  15  20
ENDBRANCH   8   9
BRANCH   2  23
HETATM   23  C5  UNK     1      31.233  -5.762  36.422  1.00  0.00     0.037 A 
HETATM   24  C7  UNK     1      31.105  -4.469  36.986  1.00  0.00    -0.035 A 
HETATM   25  C10 UNK     1      32.014  -3.453  36.693  1.00  0.00     0.011 A 
HETATM   26  C11 UNK     1      29.973  -4.178  37.917  1.00  0.00     0.050 C 
HETATM   27  C14 UNK     1      33.079  -3.699  35.826  1.00  0.00     0.024 A 
HETATM   28  C12 UNK     1      33.235  -4.961  35.253  1.00  0.00     0.036 A 
HETATM   29 Cl1  UNK     1      34.549  -5.265  34.184  1.00  0.00    -0.084 Cl
HETATM   30  C8  UNK     1      32.325  -5.978  35.547  1.00  0.00     0.053 A 
ENDBRANCH   2  23
TORSDOF 4
ENDMDL
MODEL 4
REMARK VINA RESULT:      -8.8      1.366      2.009
REMARK  4 active torsions:
REMARK  status: ('A' for Active; 'I' for Inactive)
REMARK    1  A    between atoms: C18_25  and  O4_5 
REMARK    2  A    between atoms: C22_29  and  O4_5 
REMARK    3  A    between atoms: C5_12  and  N1_6 
REMARK       I    between atoms: C6_13  and  N2_7 
REMARK    4  A    between atoms: C6_13  and  C9_16 
ROOT
HETATM    1  O1  UNK     1      28.665 -10.180  39.344  1.00  0.00    -0.267 OA
HETATM    2  N1  UNK     1      31.331  -7.418  36.374  1.00  0.00    -0.377 N 
HETATM    3  N2  UNK     1      29.449  -9.280  37.351  1.00  0.00    -0.345 N 
HETATM    4  C1  UNK     1      31.567  -8.077  37.670  1.00  0.00     0.143 C 
HETATM    5  C2  UNK     1      29.930  -7.328  35.938  1.00  0.00     0.143 C 
HETATM    6  C3  UNK     1      30.855  -9.429  37.721  1.00  0.00     0.146 C 
HETATM    7  C4  UNK     1      29.261  -8.699  36.019  1.00  0.00     0.146 C 
HETATM    8  C6  UNK     1      28.457  -9.696  38.231  1.00  0.00     0.260 C 
ENDROOT
BRANCH   8   9
HETATM    9  C9  UNK     1      27.052  -9.544  37.804  1.00  0.00     0.108 A 
HETATM   10  C13 UNK     1      26.507 -10.591  37.174  1.00  0.00     0.037 A 
HETATM   11  C15 UNK     1      25.128 -10.536  36.715  1.00  0.00     0.002 A 
HETATM   12  C17 UNK     1      24.389  -9.379  36.943  1.00  0.00     0.123 A 
HETATM   13  C19 UNK     1      24.520 -11.606  36.055  1.00  0.00     0.014 A 
HETATM   14  O2  UNK     1      24.967  -8.280  37.606  1.00  0.00    -0.271 OA
HETATM   15  C18 UNK     1      23.064  -9.262  36.529  1.00  0.00     0.103 A 
HETATM   16  C16 UNK     1      26.285  -8.303  38.057  1.00  0.00     0.304 A 
HETATM   17  O3  UNK     1      26.779  -7.341  38.635  1.00  0.00    -0.259 OA
HETATM   18  C20 UNK     1      22.465 -10.334  35.871  1.00  0.00     0.040 A 
HETATM   19  C21 UNK     1      23.191 -11.503  35.634  1.00  0.00     0.004 A 
BRANCH  15  20
HETATM   20  O4  UNK     1      22.353  -8.125  36.757  1.00  0.00    -0.349 OA
BRANCH  20  21
HETATM   21  C22 UNK     1      21.131  -8.257  37.482  1.00  0.00     0.171 C 
HETATM   22  C23 UNK     1      21.444  -8.387  38.958  1.00  0.00     0.034 C 
ENDBRANCH  20  21
ENDBRANCH  15  20
ENDBRANCH   8   9
BRANCH   2  23
HETATM   23  C5  UNK     1      32.244  -6.438  35.968  1.00  0.00     0.037 A 
HETATM   24  C7  UNK     1      33.385  -6.745  35.186  1.00  0.00    -0.035 A 
HETATM   25  C10 UNK     1      34.285  -5.755  34.791  1.00  0.00     0.011 A 
HETATM   26  C11 UNK     1      33.639  -8.157  34.772  1.00  0.00     0.050 C 
HETATM   27  C14 UNK     1      34.071  -4.428  35.166  1.00  0.00     0.024 A 
HETATM   28  C12 UNK     1      32.958  -4.092  35.936  1.00  0.00     0.036 A 
HETATM   29 Cl1  UNK     1      32.695  -2.455  36.398  1.00  0.00    -0.084 Cl
HETATM   30  C8  UNK     1      32.058  -5.082  36.331  1.00  0.00     0.053 A 
ENDBRANCH   2  23
TORSDOF 4
ENDMDL
MODEL 5
REMARK VINA RESULT:      -8.7     32.999     34.835
REMARK  4 active torsions:
REMARK  status: ('A' for Active; 'I' for Inactive)
REMARK    1  A    between atoms: C18_25  and  O4_5 
REMARK    2  A    between atoms: C22_29  and  O4_5 
REMARK    3  A    between atoms: C5_12  and  N1_6 
REMARK       I    between atoms: C6_13  and  N2_7 
REMARK    4  A    between atoms: C6_13  and  C9_16 
ROOT
HETATM    1  O1  UNK     1       9.774   5.540   6.946  1.00  0.00    -0.267 OA
HETATM    2  N1  UNK     1      13.628   7.739   8.914  1.00  0.00    -0.377 N 
HETATM    3  N2  UNK     1      10.981   7.103   8.170  1.00  0.00    -0.345 N 
HETATM    4  C1  UNK     1      13.384   6.988   7.671  1.00  0.00     0.143 C 
HETATM    5  C2  UNK     1      12.590   7.634   9.951  1.00  0.00     0.143 C 
HETATM    6  C3  UNK     1      11.988   7.291   7.128  1.00  0.00     0.146 C 
HETATM    7  C4  UNK     1      11.215   7.933   9.355  1.00  0.00     0.146 C 
HETATM    8  C6  UNK     1       9.929   6.219   7.962  1.00  0.00     0.260 C 
ENDROOT
BRANCH   8   9
HETATM    9  C9  UNK     1       8.926   6.078   9.037  1.00  0.00     0.108 A 
HETATM   10  C13 UNK     1       8.008   7.047   9.121  1.00  0.00     0.037 A 
HETATM   11  C15 UNK     1       6.979   6.997  10.147  1.00  0.00     0.002 A 
HETATM   12  C17 UNK     1       6.968   5.926  11.036  1.00  0.00     0.123 A 
HETATM   13  C19 UNK     1       6.000   7.986  10.270  1.00  0.00     0.014 A 
HETATM   14  O2  UNK     1       7.936   4.909  10.943  1.00  0.00    -0.271 OA
HETATM   15  C18 UNK     1       6.009   5.818  12.042  1.00  0.00     0.103 A 
HETATM   16  C16 UNK     1       8.933   4.930   9.971  1.00  0.00     0.304 A 
HETATM   17  O3  UNK     1       9.773   4.039   9.898  1.00  0.00    -0.259 OA
HETATM   18  C20 UNK     1       5.037   6.809  12.158  1.00  0.00     0.040 A 
HETATM   19  C21 UNK     1       5.032   7.891  11.274  1.00  0.00     0.004 A 
BRANCH  15  20
HETATM   20  O4  UNK     1       6.009   4.767  12.904  1.00  0.00    -0.349 OA
BRANCH  20  21
HETATM   21  C22 UNK     1       4.867   3.912  12.888  1.00  0.00     0.171 C 
HETATM   22  C23 UNK     1       5.308   2.506  12.540  1.00  0.00     0.034 C 
ENDBRANCH  20  21
ENDBRANCH  15  20
ENDBRANCH   8   9
BRANCH   2  23
HETATM   23  C5  UNK     1      14.959   7.957   9.290  1.00  0.00     0.037 A 
HETATM   24  C7  UNK     1      15.800   6.907   9.736  1.00  0.00    -0.035 A 
HETATM   25  C10 UNK     1      17.123   7.143  10.107  1.00  0.00     0.011 A 
HETATM   26  C11 UNK     1      15.266   5.514   9.813  1.00  0.00     0.050 C 
HETATM   27  C14 UNK     1      17.645   8.435  10.045  1.00  0.00     0.024 A 
HETATM   28  C12 UNK     1      16.845   9.491   9.610  1.00  0.00     0.036 A 
HETATM   29 Cl1  UNK     1      17.489  11.085   9.534  1.00  0.00    -0.084 Cl
HETATM   30  C8  UNK     1      15.520   9.255   9.239  1.00  0.00     0.053 A 
ENDBRANCH   2  23
TORSDOF 4
ENDMDL
MODEL 6
REMARK VINA RESULT:      -8.5      7.690     10.390
REMARK  4 active torsions:
REMARK  status: ('A' for Active; 'I' for Inactive)
REMARK    1  A    between atoms: C18_25  and  O4_5 
REMARK    2  A    between atoms: C22_29  and  O4_5 
REMARK    3  A    between atoms: C5_12  and  N1_6 
REMARK       I    between atoms: C6_13  and  N2_7 
REMARK    4  A    between atoms: C6_13  and  C9_16 
ROOT
HETATM    1  O1  UNK     1      18.001  -2.934  36.902  1.00  0.00    -0.267 OA
HETATM    2  N1  UNK     1      19.664  -1.157  32.702  1.00  0.00    -0.377 N 
HETATM    3  N2  UNK     1      19.538  -2.204  35.319  1.00  0.00    -0.345 N 
HETATM    4  C1  UNK     1      18.451  -0.948  33.510  1.00  0.00     0.143 C 
HETATM    5  C2  UNK     1      20.485  -2.325  33.055  1.00  0.00     0.143 C 
HETATM    6  C3  UNK     1      18.785  -0.993  35.001  1.00  0.00     0.146 C 
HETATM    7  C4  UNK     1      20.781  -2.330  34.554  1.00  0.00     0.146 C 
HETATM    8  C6  UNK     1      19.056  -3.083  36.283  1.00  0.00     0.260 C 
ENDROOT
BRANCH   8   9
HETATM    9  C9  UNK     1      19.861  -4.283  36.585  1.00  0.00     0.108 A 
HETATM   10  C13 UNK     1      19.447  -5.428  36.030  1.00  0.00     0.037 A 
HETATM   11  C15 UNK     1      20.175  -6.664  36.269  1.00  0.00     0.002 A 
HETATM   12  C17 UNK     1      21.304  -6.634  37.082  1.00  0.00     0.123 A 
HETATM   13  C19 UNK     1      19.780  -7.881  35.709  1.00  0.00     0.014 A 
HETATM   14  O2  UNK     1      21.735  -5.425  37.663  1.00  0.00    -0.271 OA
HETATM   15  C18 UNK     1      22.046  -7.782  37.350  1.00  0.00     0.103 A 
HETATM   16  C16 UNK     1      21.059  -4.227  37.452  1.00  0.00     0.304 A 
HETATM   17  O3  UNK     1      21.442  -3.179  37.963  1.00  0.00    -0.259 OA
HETATM   18  C20 UNK     1      21.645  -8.992  36.788  1.00  0.00     0.040 A 
HETATM   19  C21 UNK     1      20.514  -9.042  35.969  1.00  0.00     0.004 A 
BRANCH  15  20
HETATM   20  O4  UNK     1      23.148  -7.739  38.147  1.00  0.00    -0.349 OA
BRANCH  20  21
HETATM   21  C22 UNK     1      24.252  -8.563  37.775  1.00  0.00     0.171 C 
HETATM   22  C23 UNK     1      25.442  -8.213  38.643  1.00  0.00     0.034 C 
ENDBRANCH  20  21
ENDBRANCH  15  20
ENDBRANCH   8   9
BRANCH   2  23
HETATM   23  C5  UNK     1      19.651  -0.698  31.380  1.00  0.00     0.037 A 
HETATM   24  C7  UNK     1      20.159  -1.470  30.306  1.00  0.00    -0.035 A 
HETATM   25  C10 UNK     1      20.138  -0.996  28.995  1.00  0.00     0.011 A 
HETATM   26  C11 UNK     1      20.732  -2.823  30.576  1.00  0.00     0.050 C 
HETATM   27  C14 UNK     1      19.610   0.265  28.718  1.00  0.00     0.024 A 
HETATM   28  C12 UNK     1      19.101   1.051  29.751  1.00  0.00     0.036 A 
HETATM   29 Cl1  UNK     1      18.449   2.607  29.408  1.00  0.00    -0.084 Cl
HETATM   30  C8  UNK     1      19.122   0.576  31.063  1.00  0.00     0.053 A 
ENDBRANCH   2  23
TORSDOF 4
ENDMDL
MODEL 7
REMARK VINA RESULT:      -8.3     18.432     21.034
REMARK  4 active torsions:
REMARK  status: ('A' for Active; 'I' for Inactive)
REMARK    1  A    between atoms: C18_25  and  O4_5 
REMARK    2  A    between atoms: C22_29  and  O4_5 
REMARK    3  A    between atoms: C5_12  and  N1_6 
REMARK       I    between atoms: C6_13  and  N2_7 
REMARK    4  A    between atoms: C6_13  and  C9_16 
ROOT
HETATM    1  O1  UNK     1      19.278   9.853  34.204  1.00  0.00    -0.267 OA
HETATM    2  N1  UNK     1      14.677  11.231  34.901  1.00  0.00    -0.377 N 
HETATM    3  N2  UNK     1      17.009  10.109  33.777  1.00  0.00    -0.345 N 
HETATM    4  C1  UNK     1      15.993  11.794  35.247  1.00  0.00     0.143 C 
HETATM    5  C2  UNK     1      14.666   9.827  34.463  1.00  0.00     0.143 C 
HETATM    6  C3  UNK     1      17.000  11.527  34.129  1.00  0.00     0.146 C 
HETATM    7  C4  UNK     1      15.697   9.611  33.356  1.00  0.00     0.146 C 
HETATM    8  C6  UNK     1      18.196   9.389  33.843  1.00  0.00     0.260 C 
ENDROOT
BRANCH   8   9
HETATM    9  C9  UNK     1      18.158   7.964  33.458  1.00  0.00     0.108 A 
HETATM   10  C13 UNK     1      18.664   7.661  32.257  1.00  0.00     0.037 A 
HETATM   11  C15 UNK     1      18.672   6.285  31.788  1.00  0.00     0.002 A 
HETATM   12  C17 UNK     1      18.145   5.293  32.609  1.00  0.00     0.123 A 
HETATM   13  C19 UNK     1      19.191   5.924  30.543  1.00  0.00     0.014 A 
HETATM   14  O2  UNK     1      17.614   5.616  33.873  1.00  0.00    -0.271 OA
HETATM   15  C18 UNK     1      18.122   3.954  32.221  1.00  0.00     0.103 A 
HETATM   16  C16 UNK     1      17.593   6.925  34.348  1.00  0.00     0.304 A 
HETATM   17  O3  UNK     1      17.128   7.197  35.450  1.00  0.00    -0.259 OA
HETATM   18  C20 UNK     1      18.641   3.603  30.977  1.00  0.00     0.040 A 
HETATM   19  C21 UNK     1      19.175   4.586  30.139  1.00  0.00     0.004 A 
BRANCH  15  20
HETATM   20  O4  UNK     1      17.604   2.994  33.032  1.00  0.00    -0.349 OA
BRANCH  20  21
HETATM   21  C22 UNK     1      18.414   1.846  33.282  1.00  0.00     0.171 C 
HETATM   22  C23 UNK     1      18.441   1.577  34.772  1.00  0.00     0.034 C 
ENDBRANCH  20  21
ENDBRANCH  15  20
ENDBRANCH   8   9
BRANCH   2  23
HETATM   23  C5  UNK     1      13.554  11.760  35.548  1.00  0.00     0.037 A 
HETATM   24  C7  UNK     1      12.503  12.395  34.841  1.00  0.00    -0.035 A 
HETATM   25  C10 UNK     1      11.392  12.916  35.502  1.00  0.00     0.011 A 
HETATM   26  C11 UNK     1      12.579  12.513  33.353  1.00  0.00     0.050 C 
HETATM   27  C14 UNK     1      11.297  12.820  36.890  1.00  0.00     0.024 A 
HETATM   28  C12 UNK     1      12.313  12.201  37.617  1.00  0.00     0.036 A 
HETATM   29 Cl1  UNK     1      12.196  12.082  39.330  1.00  0.00    -0.084 Cl
HETATM   30  C8  UNK     1      13.426  11.679  36.956  1.00  0.00     0.053 A 
ENDBRANCH   2  23
TORSDOF 4
ENDMDL
MODEL 8
REMARK VINA RESULT:      -8.3      7.471     10.336
REMARK  4 active torsions:
REMARK  status: ('A' for Active; 'I' for Inactive)
REMARK    1  A    between atoms: C18_25  and  O4_5 
REMARK    2  A    between atoms: C22_29  and  O4_5 
REMARK    3  A    between atoms: C5_12  and  N1_6 
REMARK       I    between atoms: C6_13  and  N2_7 
REMARK    4  A    between atoms: C6_13  and  C9_16 
ROOT
HETATM    1  O1  UNK     1      18.028  -2.960  37.195  1.00  0.00    -0.267 OA
HETATM    2  N1  UNK     1      19.801  -1.405  32.953  1.00  0.00    -0.377 N 
HETATM    3  N2  UNK     1      19.609  -2.395  35.588  1.00  0.00    -0.345 N 
HETATM    4  C1  UNK     1      18.620  -1.076  33.767  1.00  0.00     0.143 C 
HETATM    5  C2  UNK     1      20.520  -2.635  33.318  1.00  0.00     0.143 C 
HETATM    6  C3  UNK     1      18.964  -1.127  35.255  1.00  0.00     0.146 C 
HETATM    7  C4  UNK     1      20.828  -2.643  34.814  1.00  0.00     0.146 C 
HETATM    8  C6  UNK     1      19.060  -3.212  36.570  1.00  0.00     0.260 C 
ENDROOT
BRANCH   8   9
HETATM    9  C9  UNK     1      19.758  -4.474  36.885  1.00  0.00     0.108 A 
HETATM   10  C13 UNK     1      20.855  -4.370  37.645  1.00  0.00     0.037 A 
HETATM   11  C15 UNK     1      21.611  -5.558  38.008  1.00  0.00     0.002 A 
HETATM   12  C17 UNK     1      21.176  -6.798  37.552  1.00  0.00     0.123 A 
HETATM   13  C19 UNK     1      22.759  -5.496  38.801  1.00  0.00     0.014 A 
HETATM   14  O2  UNK     1      20.021  -6.901  36.752  1.00  0.00    -0.271 OA
HETATM   15  C18 UNK     1      21.855  -7.974  37.864  1.00  0.00     0.103 A 
HETATM   16  C16 UNK     1      19.277  -5.782  36.388  1.00  0.00     0.304 A 
HETATM   17  O3  UNK     1      18.273  -5.882  35.691  1.00  0.00    -0.259 OA
HETATM   18  C20 UNK     1      23.000  -7.904  38.655  1.00  0.00     0.040 A 
HETATM   19  C21 UNK     1      23.451  -6.667  39.122  1.00  0.00     0.004 A 
BRANCH  15  20
HETATM   20  O4  UNK     1      21.419  -9.180  37.411  1.00  0.00    -0.349 OA
BRANCH  20  21
HETATM   21  C22 UNK     1      22.230  -9.843  36.442  1.00  0.00     0.171 C 
HETATM   22  C23 UNK     1      21.632  -9.628  35.068  1.00  0.00     0.034 C 
ENDBRANCH  20  21
ENDBRANCH  15  20
ENDBRANCH   8   9
BRANCH   2  23
HETATM   23  C5  UNK     1      19.816  -0.967  31.623  1.00  0.00     0.037 A 
HETATM   24  C7  UNK     1      20.331  -1.764  30.570  1.00  0.00    -0.035 A 
HETATM   25  C10 UNK     1      20.338  -1.312  29.251  1.00  0.00     0.011 A 
HETATM   26  C11 UNK     1      20.880  -3.121  30.871  1.00  0.00     0.050 C 
HETATM   27  C14 UNK     1      19.832  -0.048  28.945  1.00  0.00     0.024 A 
HETATM   28  C12 UNK     1      19.318   0.762  29.957  1.00  0.00     0.036 A 
HETATM   29 Cl1  UNK     1      18.693   2.320  29.578  1.00  0.00    -0.084 Cl
HETATM   30  C8  UNK     1      19.310   0.309  31.277  1.00  0.00     0.053 A 
ENDBRANCH   2  23
TORSDOF 4
ENDMDL
MODEL 9
REMARK VINA RESULT:      -8.1     33.811     35.078
REMARK  4 active torsions:
REMARK  status: ('A' for Active; 'I' for Inactive)
REMARK    1  A    between atoms: C18_25  and  O4_5 
REMARK    2  A    between atoms: C22_29  and  O4_5 
REMARK    3  A    between atoms: C5_12  and  N1_6 
REMARK       I    between atoms: C6_13  and  N2_7 
REMARK    4  A    between atoms: C6_13  and  C9_16 
ROOT
HETATM    1  O1  UNK     1      15.512   6.577   9.881  1.00  0.00    -0.267 OA
HETATM    2  N1  UNK     1      16.318  11.363   9.959  1.00  0.00    -0.377 N 
HETATM    3  N2  UNK     1      15.476   8.788   9.169  1.00  0.00    -0.345 N 
HETATM    4  C1  UNK     1      17.047  10.179  10.445  1.00  0.00     0.143 C 
HETATM    5  C2  UNK     1      14.916  11.148   9.569  1.00  0.00     0.143 C 
HETATM    6  C3  UNK     1      16.887   9.014   9.470  1.00  0.00     0.146 C 
HETATM    7  C4  UNK     1      14.810   9.966   8.606  1.00  0.00     0.146 C 
HETATM    8  C6  UNK     1      14.910   7.541   9.404  1.00  0.00     0.260 C 
ENDROOT
BRANCH   8   9
HETATM    9  C9  UNK     1      13.485   7.356   9.065  1.00  0.00     0.108 A 
HETATM   10  C13 UNK     1      13.222   6.927   7.825  1.00  0.00     0.037 A 
HETATM   11  C15 UNK     1      11.849   6.715   7.397  1.00  0.00     0.002 A 
HETATM   12  C17 UNK     1      10.818   6.967   8.297  1.00  0.00     0.123 A 
HETATM   13  C19 UNK     1      11.529   6.267   6.114  1.00  0.00     0.014 A 
HETATM   14  O2  UNK     1      11.100   7.418   9.601  1.00  0.00    -0.271 OA
HETATM   15  C18 UNK     1       9.480   6.784   7.950  1.00  0.00     0.103 A 
HETATM   16  C16 UNK     1      12.404   7.630  10.039  1.00  0.00     0.304 A 
HETATM   17  O3  UNK     1      12.640   8.023  11.177  1.00  0.00    -0.259 OA
HETATM   18  C20 UNK     1       9.170   6.337   6.667  1.00  0.00     0.040 A 
HETATM   19  C21 UNK     1      10.192   6.079   5.751  1.00  0.00     0.004 A 
BRANCH  15  20
HETATM   20  O4  UNK     1       8.482   7.034   8.839  1.00  0.00    -0.349 OA
BRANCH  20  21
HETATM   21  C22 UNK     1       7.604   5.953   9.152  1.00  0.00     0.171 C 
HETATM   22  C23 UNK     1       8.333   4.966  10.038  1.00  0.00     0.034 C 
ENDBRANCH  20  21
ENDBRANCH  15  20
ENDBRANCH   8   9
BRANCH   2  23
HETATM   23  C5  UNK     1      16.714  12.615  10.444  1.00  0.00     0.037 A 
HETATM   24  C7  UNK     1      17.388  13.561   9.633  1.00  0.00    -0.035 A 
HETATM   25  C10 UNK     1      17.776  14.803  10.134  1.00  0.00     0.011 A 
HETATM   26  C11 UNK     1      17.695  13.229   8.209  1.00  0.00     0.050 C 
HETATM   27  C14 UNK     1      17.502  15.137  11.460  1.00  0.00     0.024 A 
HETATM   28  C12 UNK     1      16.840  14.229  12.286  1.00  0.00     0.036 A 
HETATM   29 Cl1  UNK     1      16.502  14.642  13.922  1.00  0.00    -0.084 Cl
HETATM   30  C8  UNK     1      16.451  12.986  11.785  1.00  0.00     0.053 A 
ENDBRANCH   2  23
TORSDOF 4
ENDMDL
MODEL 10
REMARK VINA RESULT:      -8.1      4.676      7.286
REMARK  4 active torsions:
REMARK  status: ('A' for Active; 'I' for Inactive)
REMARK    1  A    between atoms: C18_25  and  O4_5 
REMARK    2  A    between atoms: C22_29  and  O4_5 
REMARK    3  A    between atoms: C5_12  and  N1_6 
REMARK       I    between atoms: C6_13  and  N2_7 
REMARK    4  A    between atoms: C6_13  and  C9_16 
ROOT
HETATM    1  O1  UNK     1      30.821  -5.592  36.113  1.00  0.00    -0.267 OA
HETATM    2  N1  UNK     1      31.102  -8.143  31.993  1.00  0.00    -0.377 N 
HETATM    3  N2  UNK     1      31.364  -7.344  34.687  1.00  0.00    -0.345 N 
HETATM    4  C1  UNK     1      31.103  -6.709  32.328  1.00  0.00     0.143 C 
HETATM    5  C2  UNK     1      30.684  -9.060  33.064  1.00  0.00     0.143 C 
HETATM    6  C3  UNK     1      31.862  -6.464  33.632  1.00  0.00     0.146 C 
HETATM    7  C4  UNK     1      31.462  -8.766  34.346  1.00  0.00     0.146 C 
HETATM    8  C6  UNK     1      30.884  -6.798  35.872  1.00  0.00     0.260 C 
ENDROOT
BRANCH   8   9
HETATM    9  C9  UNK     1      30.410  -7.729  36.916  1.00  0.00     0.108 A 
HETATM   10  C13 UNK     1      29.094  -7.730  37.155  1.00  0.00     0.037 A 
HETATM   11  C15 UNK     1      28.532  -8.612  38.166  1.00  0.00     0.002 A 
HETATM   12  C17 UNK     1      29.386  -9.450  38.876  1.00  0.00     0.123 A 
HETATM   13  C19 UNK     1      27.164  -8.646  38.447  1.00  0.00     0.014 A 
HETATM   14  O2  UNK     1      30.770  -9.445  38.620  1.00  0.00    -0.271 OA
HETATM   15  C18 UNK     1      28.911 -10.319  39.857  1.00  0.00     0.103 A 
HETATM   16  C16 UNK     1      31.337  -8.612  37.659  1.00  0.00     0.304 A 
HETATM   17  O3  UNK     1      32.544  -8.615  37.442  1.00  0.00    -0.259 OA
HETATM   18  C20 UNK     1      27.546 -10.347  40.132  1.00  0.00     0.040 A 
HETATM   19  C21 UNK     1      26.674  -9.512  39.429  1.00  0.00     0.004 A 
BRANCH  15  20
HETATM   20  O4  UNK     1      29.756 -11.133  40.544  1.00  0.00    -0.349 OA
BRANCH  20  21
HETATM   21  C22 UNK     1      29.512 -11.294  41.941  1.00  0.00     0.171 C 
HETATM   22  C23 UNK     1      30.677 -12.034  42.564  1.00  0.00     0.034 C 
ENDBRANCH  20  21
ENDBRANCH  15  20
ENDBRANCH   8   9
BRANCH   2  23
HETATM   23  C5  UNK     1      30.883  -8.498  30.657  1.00  0.00     0.037 A 
HETATM   24  C7  UNK     1      31.903  -8.420  29.677  1.00  0.00    -0.035 A 
HETATM   25  C10 UNK     1      31.666  -8.778  28.350  1.00  0.00     0.011 A 
HETATM   26  C11 UNK     1      33.265  -7.945  30.064  1.00  0.00     0.050 C 
HETATM   27  C14 UNK     1      30.402  -9.223  27.963  1.00  0.00     0.024 A 
HETATM   28  C12 UNK     1      29.375  -9.312  28.902  1.00  0.00     0.036 A 
HETATM   29 Cl1  UNK     1      27.816  -9.862  28.424  1.00  0.00    -0.084 Cl
HETATM   30  C8  UNK     1      29.613  -8.955  30.230  1.00  0.00     0.053 A 
ENDBRANCH   2  23
TORSDOF 4
ENDMDL
