MODEL 1
REMARK VINA RESULT:      -7.2      0.000      0.000
REMARK  1 active torsions:
REMARK  status: ('A' for Active; 'I' for Inactive)
REMARK    1  A    between atoms: C3_7  and  N1_4 
ROOT
HETATM    1  O2  UNK     1      16.266   5.826  10.076  1.00  0.00    -0.275 OA
HETATM    2  O3  UNK     1      15.739   3.605   9.976  1.00  0.00    -0.260 OA
HETATM    3  C3  UNK     1      13.777   6.369   8.822  1.00  0.00     0.049 A 
HETATM    4  C6  UNK     1      14.686   7.471   9.189  1.00  0.00     0.025 A 
HETATM    5  C7  UNK     1      15.902   7.160   9.804  1.00  0.00     0.092 A 
HETATM    6  C8  UNK     1      14.159   5.114   9.097  1.00  0.00     0.113 A 
HETATM    7  C9  UNK     1      14.415   8.829   8.960  1.00  0.00     0.023 A 
HETATM    8  C10 UNK     1      15.329   9.821   9.337  1.00  0.00    -0.061 A 
HETATM    9  C11 UNK     1      16.824   8.138  10.186  1.00  0.00     0.039 A 
HETATM   10  C12 UNK     1      15.436   4.769   9.744  1.00  0.00     0.290 A 
HETATM   11  C13 UNK     1      16.532   9.476   9.949  1.00  0.00     0.009 A 
HETATM   12  C14 UNK     1      15.013  11.257   9.082  1.00  0.00     0.048 C 
ENDROOT
BRANCH   3  13
HETATM   13  N1  UNK     1      12.585   6.649   8.221  1.00  0.00    -0.376 N 
HETATM   14  C1  UNK     1      12.453   6.789   6.770  1.00  0.00     0.149 C 
HETATM   15  C4  UNK     1      11.202   6.054   6.304  1.00  0.00     0.187 C 
HETATM   16  O1  UNK     1      10.055   6.523   7.016  1.00  0.00    -0.388 OA
HETATM   17  C5  UNK     1      10.186   6.271   8.419  1.00  0.00     0.187 C 
HETATM   18  C2  UNK     1      11.390   7.016   8.981  1.00  0.00     0.149 C 
ENDBRANCH   3  13
TORSDOF 1
ENDMDL
MODEL 2
REMARK VINA RESULT:      -7.2     25.666     27.323
REMARK  1 active torsions:
REMARK  status: ('A' for Active; 'I' for Inactive)
REMARK    1  A    between atoms: C3_7  and  N1_4 
ROOT
HETATM    1  O2  UNK     1      20.549  -3.225  34.084  1.00  0.00    -0.275 OA
HETATM    2  O3  UNK     1      20.471  -4.081  36.201  1.00  0.00    -0.260 OA
HETATM    3  C3  UNK     1      18.910  -1.093  34.995  1.00  0.00     0.049 A 
HETATM    4  C6  UNK     1      19.359  -1.144  33.590  1.00  0.00     0.025 A 
HETATM    5  C7  UNK     1      20.165  -2.212  33.184  1.00  0.00     0.092 A 
HETATM    6  C8  UNK     1      19.296  -2.077  35.820  1.00  0.00     0.113 A 
HETATM    7  C9  UNK     1      19.031  -0.186  32.620  1.00  0.00     0.023 A 
HETATM    8  C10 UNK     1      19.495  -0.302  31.304  1.00  0.00    -0.061 A 
HETATM    9  C11 UNK     1      20.637  -2.341  31.875  1.00  0.00     0.039 A 
HETATM   10  C12 UNK     1      20.144  -3.207  35.408  1.00  0.00     0.290 A 
HETATM   11  C13 UNK     1      20.297  -1.378  30.932  1.00  0.00     0.009 A 
HETATM   12  C14 UNK     1      19.130   0.735  30.294  1.00  0.00     0.048 C 
ENDROOT
BRANCH   3  13
HETATM   13  N1  UNK     1      18.122  -0.062  35.415  1.00  0.00    -0.376 N 
HETATM   14  C1  UNK     1      16.668  -0.070  35.254  1.00  0.00     0.149 C 
HETATM   15  C4  UNK     1      16.016   0.427  36.539  1.00  0.00     0.187 C 
HETATM   16  O1  UNK     1      16.531   1.714  36.893  1.00  0.00    -0.388 OA
HETATM   17  C5  UNK     1      17.939   1.650  37.140  1.00  0.00     0.187 C 
HETATM   18  C2  UNK     1      18.678   1.208  35.883  1.00  0.00     0.149 C 
ENDBRANCH   3  13
TORSDOF 1
ENDMDL
MODEL 3
REMARK VINA RESULT:      -7.1     23.017     24.614
REMARK  1 active torsions:
REMARK  status: ('A' for Active; 'I' for Inactive)
REMARK    1  A    between atoms: C3_7  and  N1_4 
ROOT
HETATM    1  O2  UNK     1      18.579   9.643  34.228  1.00  0.00    -0.275 OA
HETATM    2  O3  UNK     1      20.812   9.648  34.716  1.00  0.00    -0.260 OA
HETATM    3  C3  UNK     1      18.958   7.118  32.988  1.00  0.00     0.049 A 
HETATM    4  C6  UNK     1      17.621   7.740  33.024  1.00  0.00     0.025 A 
HETATM    5  C7  UNK     1      17.479   8.985  33.645  1.00  0.00     0.092 A 
HETATM    6  C8  UNK     1      19.980   7.777  33.554  1.00  0.00     0.113 A 
HETATM    7  C9  UNK     1      16.467   7.165  32.472  1.00  0.00     0.023 A 
HETATM    8  C10 UNK     1      15.229   7.818  32.545  1.00  0.00    -0.061 A 
HETATM    9  C11 UNK     1      16.251   9.648  33.726  1.00  0.00     0.039 A 
HETATM   10  C12 UNK     1      19.846   9.087  34.211  1.00  0.00     0.290 A 
HETATM   11  C13 UNK     1      15.122   9.057  33.172  1.00  0.00     0.009 A 
HETATM   12  C14 UNK     1      14.018   7.181  31.950  1.00  0.00     0.048 C 
ENDROOT
BRANCH   3  13
HETATM   13  N1  UNK     1      19.122   5.904  32.388  1.00  0.00    -0.376 N 
HETATM   14  C1  UNK     1      18.693   4.655  33.017  1.00  0.00     0.149 C 
HETATM   15  C4  UNK     1      17.995   3.782  31.980  1.00  0.00     0.187 C 
HETATM   16  O1  UNK     1      18.846   3.574  30.850  1.00  0.00    -0.388 OA
HETATM   17  C5  UNK     1      19.154   4.815  30.208  1.00  0.00     0.187 C 
HETATM   18  C2  UNK     1      19.905   5.734  31.164  1.00  0.00     0.149 C 
ENDBRANCH   3  13
TORSDOF 1
ENDMDL
MODEL 4
REMARK VINA RESULT:      -7.0     23.743     25.412
REMARK  1 active torsions:
REMARK  status: ('A' for Active; 'I' for Inactive)
REMARK    1  A    between atoms: C3_7  and  N1_4 
ROOT
HETATM    1  O2  UNK     1      20.832  -2.084  31.162  1.00  0.00    -0.275 OA
HETATM    2  O3  UNK     1      21.269  -3.600  32.816  1.00  0.00    -0.260 OA
HETATM    3  C3  UNK     1      19.085  -0.767  32.972  1.00  0.00     0.049 A 
HETATM    4  C6  UNK     1      19.275  -0.249  31.604  1.00  0.00     0.025 A 
HETATM    5  C7  UNK     1      20.144  -0.928  30.745  1.00  0.00     0.092 A 
HETATM    6  C8  UNK     1      19.758  -1.870  33.331  1.00  0.00     0.113 A 
HETATM    7  C9  UNK     1      18.636   0.892  31.095  1.00  0.00     0.023 A 
HETATM    8  C10 UNK     1      18.866   1.324  29.783  1.00  0.00    -0.061 A 
HETATM    9  C11 UNK     1      20.384  -0.510  29.434  1.00  0.00     0.039 A 
HETATM   10  C12 UNK     1      20.676  -2.597  32.439  1.00  0.00     0.290 A 
HETATM   11  C13 UNK     1      19.739   0.624  28.953  1.00  0.00     0.009 A 
HETATM   12  C14 UNK     1      18.172   2.541  29.270  1.00  0.00     0.048 C 
ENDROOT
BRANCH   3  13
HETATM   13  N1  UNK     1      18.242  -0.121  33.828  1.00  0.00    -0.376 N 
HETATM   14  C1  UNK     1      16.979  -0.709  34.275  1.00  0.00     0.149 C 
HETATM   15  C4  UNK     1      16.818  -0.479  35.774  1.00  0.00     0.187 C 
HETATM   16  O1  UNK     1      16.924   0.915  36.077  1.00  0.00    -0.388 OA
HETATM   17  C5  UNK     1      18.213   1.420  35.716  1.00  0.00     0.187 C 
HETATM   18  C2  UNK     1      18.437   1.276  34.215  1.00  0.00     0.149 C 
ENDBRANCH   3  13
TORSDOF 1
ENDMDL
MODEL 5
REMARK VINA RESULT:      -7.0     23.577     25.211
REMARK  1 active torsions:
REMARK  status: ('A' for Active; 'I' for Inactive)
REMARK    1  A    between atoms: C3_7  and  N1_4 
ROOT
HETATM    1  O2  UNK     1      18.469   1.377  31.134  1.00  0.00    -0.275 OA
HETATM    2  O3  UNK     1      18.553   2.271  29.033  1.00  0.00    -0.260 OA
HETATM    3  C3  UNK     1      18.363   4.027  32.148  1.00  0.00     0.049 A 
HETATM    4  C6  UNK     1      18.342   2.873  33.067  1.00  0.00     0.025 A 
HETATM    5  C7  UNK     1      18.396   1.585  32.526  1.00  0.00     0.092 A 
HETATM    6  C8  UNK     1      18.433   3.787  30.830  1.00  0.00     0.113 A 
HETATM    7  C9  UNK     1      18.272   2.977  34.464  1.00  0.00     0.023 A 
HETATM    8  C10 UNK     1      18.256   1.833  35.273  1.00  0.00    -0.061 A 
HETATM    9  C11 UNK     1      18.381   0.435  33.320  1.00  0.00     0.039 A 
HETATM   10  C12 UNK     1      18.491   2.438  30.245  1.00  0.00     0.290 A 
HETATM   11  C13 UNK     1      18.310   0.564  34.702  1.00  0.00     0.009 A 
HETATM   12  C14 UNK     1      18.179   1.975  36.757  1.00  0.00     0.048 C 
ENDROOT
BRANCH   3  13
HETATM   13  N1  UNK     1      18.312   5.293  32.653  1.00  0.00    -0.376 N 
HETATM   14  C1  UNK     1      17.056   6.032  32.788  1.00  0.00     0.149 C 
HETATM   15  C4  UNK     1      17.024   6.728  34.144  1.00  0.00     0.187 C 
HETATM   16  O1  UNK     1      18.179   7.555  34.306  1.00  0.00    -0.388 OA
HETATM   17  C5  UNK     1      19.377   6.774  34.269  1.00  0.00     0.187 C 
HETATM   18  C2  UNK     1      19.516   6.081  32.919  1.00  0.00     0.149 C 
ENDBRANCH   3  13
TORSDOF 1
ENDMDL
MODEL 6
REMARK VINA RESULT:      -7.0     24.008     25.556
REMARK  1 active torsions:
REMARK  status: ('A' for Active; 'I' for Inactive)
REMARK    1  A    between atoms: C3_7  and  N1_4 
ROOT
HETATM    1  O2  UNK     1      19.621  -0.189  30.571  1.00  0.00    -0.275 OA
HETATM    2  O3  UNK     1      20.029  -2.418  30.865  1.00  0.00    -0.260 OA
HETATM    3  C3  UNK     1      18.564  -0.139  33.206  1.00  0.00     0.049 A 
HETATM    4  C6  UNK     1      18.599   1.090  32.391  1.00  0.00     0.025 A 
HETATM    5  C7  UNK     1      19.127   1.021  31.098  1.00  0.00     0.092 A 
HETATM    6  C8  UNK     1      19.043  -1.271  32.669  1.00  0.00     0.113 A 
HETATM    7  C9  UNK     1      18.133   2.340  32.825  1.00  0.00     0.023 A 
HETATM    8  C10 UNK     1      18.198   3.464  31.992  1.00  0.00    -0.061 A 
HETATM    9  C11 UNK     1      19.200   2.134  30.256  1.00  0.00     0.039 A 
HETATM   10  C12 UNK     1      19.602  -1.360  31.310  1.00  0.00     0.290 A 
HETATM   11  C13 UNK     1      18.732   3.361  30.709  1.00  0.00     0.009 A 
HETATM   12  C14 UNK     1      17.696   4.781  32.482  1.00  0.00     0.048 C 
ENDROOT
BRANCH   3  13
HETATM   13  N1  UNK     1      18.054  -0.097  34.470  1.00  0.00    -0.376 N 
HETATM   14  C1  UNK     1      18.851   0.320  35.624  1.00  0.00     0.149 C 
HETATM   15  C4  UNK     1      18.023   1.256  36.498  1.00  0.00     0.187 C 
HETATM   16  O1  UNK     1      16.791   0.631  36.867  1.00  0.00    -0.388 OA
HETATM   17  C5  UNK     1      16.001   0.336  35.711  1.00  0.00     0.187 C 
HETATM   18  C2  UNK     1      16.737  -0.641  34.803  1.00  0.00     0.149 C 
ENDBRANCH   3  13
TORSDOF 1
ENDMDL
MODEL 7
REMARK VINA RESULT:      -7.0     22.183     23.732
REMARK  1 active torsions:
REMARK  status: ('A' for Active; 'I' for Inactive)
REMARK    1  A    between atoms: C3_7  and  N1_4 
ROOT
HETATM    1  O2  UNK     1      17.942   2.333  34.005  1.00  0.00    -0.275 OA
HETATM    2  O3  UNK     1      17.896   0.194  34.808  1.00  0.00    -0.260 OA
HETATM    3  C3  UNK     1      18.938   1.284  31.561  1.00  0.00     0.049 A 
HETATM    4  C6  UNK     1      18.716   2.734  31.718  1.00  0.00     0.025 A 
HETATM    5  C7  UNK     1      18.226   3.208  32.938  1.00  0.00     0.092 A 
HETATM    6  C8  UNK     1      18.656   0.484  32.599  1.00  0.00     0.113 A 
HETATM    7  C9  UNK     1      18.968   3.685  30.717  1.00  0.00     0.023 A 
HETATM    8  C10 UNK     1      18.733   5.048  30.941  1.00  0.00    -0.061 A 
HETATM    9  C11 UNK     1      17.986   4.564  33.176  1.00  0.00     0.039 A 
HETATM   10  C12 UNK     1      18.139   0.967  33.890  1.00  0.00     0.290 A 
HETATM   11  C13 UNK     1      18.243   5.487  32.168  1.00  0.00     0.009 A 
HETATM   12  C14 UNK     1      19.009   6.036  29.857  1.00  0.00     0.048 C 
ENDROOT
BRANCH   3  13
HETATM   13  N1  UNK     1      19.416   0.798  30.380  1.00  0.00    -0.376 N 
HETATM   14  C1  UNK     1      20.597  -0.063  30.307  1.00  0.00     0.149 C 
HETATM   15  C4  UNK     1      20.325  -1.212  29.344  1.00  0.00     0.187 C 
HETATM   16  O1  UNK     1      19.924  -0.708  28.068  1.00  0.00    -0.388 OA
HETATM   17  C5  UNK     1      18.709   0.040  28.174  1.00  0.00     0.187 C 
HETATM   18  C2  UNK     1      18.908   1.247  29.083  1.00  0.00     0.149 C 
ENDBRANCH   3  13
TORSDOF 1
ENDMDL
MODEL 8
REMARK VINA RESULT:      -7.0      1.408      1.873
REMARK  1 active torsions:
REMARK  status: ('A' for Active; 'I' for Inactive)
REMARK    1  A    between atoms: C3_7  and  N1_4 
ROOT
HETATM    1  O2  UNK     1      15.569   6.098  10.441  1.00  0.00    -0.275 OA
HETATM    2  O3  UNK     1      15.991   3.967   9.729  1.00  0.00    -0.260 OA
HETATM    3  C3  UNK     1      13.156   6.010   8.947  1.00  0.00     0.049 A 
HETATM    4  C6  UNK     1      13.518   7.217   9.714  1.00  0.00     0.025 A 
HETATM    5  C7  UNK     1      14.716   7.218  10.435  1.00  0.00     0.092 A 
HETATM    6  C8  UNK     1      13.995   4.964   8.978  1.00  0.00     0.113 A 
HETATM    7  C9  UNK     1      12.737   8.381   9.771  1.00  0.00     0.023 A 
HETATM    8  C10 UNK     1      13.147   9.490  10.521  1.00  0.00    -0.061 A 
HETATM    9  C11 UNK     1      15.138   8.317  11.189  1.00  0.00     0.039 A 
HETATM   10  C12 UNK     1      15.259   4.949   9.732  1.00  0.00     0.290 A 
HETATM   11  C13 UNK     1      14.346   9.458  11.230  1.00  0.00     0.009 A 
HETATM   12  C14 UNK     1      12.294  10.714  10.564  1.00  0.00     0.048 C 
ENDROOT
BRANCH   3  13
HETATM   13  N1  UNK     1      11.993   5.985   8.235  1.00  0.00    -0.376 N 
HETATM   14  C1  UNK     1      10.706   5.657   8.848  1.00  0.00     0.149 C 
HETATM   15  C4  UNK     1       9.646   6.631   8.346  1.00  0.00     0.187 C 
HETATM   16  O1  UNK     1       9.601   6.624   6.917  1.00  0.00    -0.388 OA
HETATM   17  C5  UNK     1      10.850   7.050   6.365  1.00  0.00     0.187 C 
HETATM   18  C2  UNK     1      11.964   6.096   6.777  1.00  0.00     0.149 C 
ENDBRANCH   3  13
TORSDOF 1
ENDMDL
MODEL 9
REMARK VINA RESULT:      -6.9     23.818     25.600
REMARK  1 active torsions:
REMARK  status: ('A' for Active; 'I' for Inactive)
REMARK    1  A    between atoms: C3_7  and  N1_4 
ROOT
HETATM    1  O2  UNK     1      18.631   2.804  30.799  1.00  0.00    -0.275 OA
HETATM    2  O3  UNK     1      17.657   4.531  31.935  1.00  0.00    -0.260 OA
HETATM    3  C3  UNK     1      18.382   1.245  33.159  1.00  0.00     0.049 A 
HETATM    4  C6  UNK     1      18.985   0.669  31.942  1.00  0.00     0.025 A 
HETATM    5  C7  UNK     1      19.089   1.472  30.802  1.00  0.00     0.092 A 
HETATM    6  C8  UNK     1      17.959   2.517  33.116  1.00  0.00     0.113 A 
HETATM    7  C9  UNK     1      19.470  -0.644  31.845  1.00  0.00     0.023 A 
HETATM    8  C10 UNK     1      20.031  -1.120  30.653  1.00  0.00    -0.061 A 
HETATM    9  C11 UNK     1      19.645   1.010  29.606  1.00  0.00     0.039 A 
HETATM   10  C12 UNK     1      18.060   3.375  31.924  1.00  0.00     0.290 A 
HETATM   11  C13 UNK     1      20.118  -0.295  29.535  1.00  0.00     0.009 A 
HETATM   12  C14 UNK     1      20.537  -2.522  30.580  1.00  0.00     0.048 C 
ENDROOT
BRANCH   3  13
HETATM   13  N1  UNK     1      18.271   0.481  34.283  1.00  0.00    -0.376 N 
HETATM   14  C1  UNK     1      19.026   0.769  35.503  1.00  0.00     0.149 C 
HETATM   15  C4  UNK     1      18.105   0.629  36.710  1.00  0.00     0.187 C 
HETATM   16  O1  UNK     1      17.494  -0.663  36.724  1.00  0.00    -0.388 OA
HETATM   17  C5  UNK     1      16.685  -0.858  35.560  1.00  0.00     0.187 C 
HETATM   18  C2  UNK     1      17.541  -0.786  34.302  1.00  0.00     0.149 C 
ENDBRANCH   3  13
TORSDOF 1
ENDMDL
MODEL 10
REMARK VINA RESULT:      -6.8     22.762     24.270
REMARK  1 active torsions:
REMARK  status: ('A' for Active; 'I' for Inactive)
REMARK    1  A    between atoms: C3_7  and  N1_4 
ROOT
HETATM    1  O2  UNK     1      14.951   8.578  33.115  1.00  0.00    -0.275 OA
HETATM    2  O3  UNK     1      13.354   7.254  32.157  1.00  0.00    -0.260 OA
HETATM    3  C3  UNK     1      16.885   6.674  32.280  1.00  0.00     0.049 A 
HETATM    4  C6  UNK     1      17.295   7.883  33.020  1.00  0.00     0.025 A 
HETATM    5  C7  UNK     1      16.311   8.794  33.413  1.00  0.00     0.092 A 
HETATM    6  C8  UNK     1      15.581   6.505  32.017  1.00  0.00     0.113 A 
HETATM    7  C9  UNK     1      18.621   8.187  33.363  1.00  0.00     0.023 A 
HETATM    8  C10 UNK     1      18.935   9.356  34.068  1.00  0.00    -0.061 A 
HETATM    9  C11 UNK     1      16.608   9.965  34.116  1.00  0.00     0.039 A 
HETATM   10  C12 UNK     1      14.532   7.454  32.423  1.00  0.00     0.290 A 
HETATM   11  C13 UNK     1      17.929  10.244  34.444  1.00  0.00     0.009 A 
HETATM   12  C14 UNK     1      20.354   9.654  34.418  1.00  0.00     0.048 C 
ENDROOT
BRANCH   3  13
HETATM   13  N1  UNK     1      17.828   5.771  31.887  1.00  0.00    -0.376 N 
HETATM   14  C1  UNK     1      18.064   4.520  32.609  1.00  0.00     0.149 C 
HETATM   15  C4  UNK     1      18.215   3.380  31.608  1.00  0.00     0.187 C 
HETATM   16  O1  UNK     1      19.245   3.682  30.663  1.00  0.00    -0.388 OA
HETATM   17  C5  UNK     1      18.920   4.854  29.911  1.00  0.00     0.187 C 
HETATM   18  C2  UNK     1      18.801   6.061  30.834  1.00  0.00     0.149 C 
ENDBRANCH   3  13
TORSDOF 1
ENDMDL
