MODEL 1
REMARK VINA RESULT:      -7.3      0.000      0.000
REMARK  3 active torsions:
REMARK  status: ('A' for Active; 'I' for Inactive)
REMARK    1  A    between atoms: C11_16  and  O2_2 
REMARK    2  A    between atoms: C5_10  and  O2_2 
REMARK    3  A    between atoms: C10_15  and  C8_13 
ROOT
HETATM    1  O1  UNK     1      12.304   6.565   6.295  1.00  0.00    -0.321 OA
HETATM    2  O3  UNK     1      12.237   5.667  10.278  1.00  0.00    -0.286 OA
HETATM    3  C1  UNK     1      11.017   6.044   8.291  1.00  0.00     0.051 A 
HETATM    4  C2  UNK     1      11.106   6.355   6.933  1.00  0.00     0.089 A 
HETATM    5  C3  UNK     1       9.770   5.841   8.886  1.00  0.00     0.055 A 
HETATM    6  C4  UNK     1      12.256   5.935   9.084  1.00  0.00     0.200 A 
HETATM    7  C5  UNK     1       8.613   5.951   8.115  1.00  0.00     0.080 A 
HETATM    8  C6  UNK     1       9.947   6.465   6.165  1.00  0.00     0.041 A 
HETATM    9  C7  UNK     1       8.701   6.262   6.757  1.00  0.00     0.040 A 
HETATM   10  C8  UNK     1      13.518   6.167   8.349  1.00  0.00     0.075 A 
HETATM   11  C9  UNK     1      13.452   6.458   7.046  1.00  0.00     0.161 A 
ENDROOT
BRANCH   7  12
HETATM   12  O2  UNK     1       7.393   5.753   8.687  1.00  0.00    -0.279 OA
BRANCH  12  13
HETATM   13  C11 UNK     1       7.175   4.439   9.131  1.00  0.00     0.260 C 
HETATM   14  O5  UNK     1       7.145   3.439   8.425  1.00  0.00    -0.265 OA
HETATM   15  C12 UNK     1       6.980   4.426  10.618  1.00  0.00     0.126 C 
ENDBRANCH  12  13
ENDBRANCH   7  12
BRANCH  10  16
HETATM   16  C10 UNK     1      14.841   6.098   8.969  1.00  0.00     0.276 C 
HETATM   17  O4  UNK     1      15.449   5.043   9.114  1.00  0.00    -0.301 OA
ENDBRANCH  10  16
TORSDOF 3
ENDMDL
MODEL 2
REMARK VINA RESULT:      -7.2     24.303     26.360
REMARK  3 active torsions:
REMARK  status: ('A' for Active; 'I' for Inactive)
REMARK    1  A    between atoms: C11_16  and  O2_2 
REMARK    2  A    between atoms: C5_10  and  O2_2 
REMARK    3  A    between atoms: C10_15  and  C8_13 
ROOT
HETATM    1  O1  UNK     1      20.261  -1.015  29.062  1.00  0.00    -0.321 OA
HETATM    2  O3  UNK     1      18.534   1.150  32.061  1.00  0.00    -0.286 OA
HETATM    3  C1  UNK     1      19.704  -0.798  31.418  1.00  0.00     0.051 A 
HETATM    4  C2  UNK     1      20.275  -1.491  30.350  1.00  0.00     0.089 A 
HETATM    5  C3  UNK     1      19.748  -1.332  32.708  1.00  0.00     0.055 A 
HETATM    6  C4  UNK     1      19.053   0.502  31.164  1.00  0.00     0.200 A 
HETATM    7  C5  UNK     1      20.368  -2.563  32.923  1.00  0.00     0.080 A 
HETATM    8  C6  UNK     1      20.894  -2.722  30.568  1.00  0.00     0.041 A 
HETATM    9  C7  UNK     1      20.940  -3.256  31.856  1.00  0.00     0.040 A 
HETATM   10  C8  UNK     1      19.068   0.969  29.761  1.00  0.00     0.075 A 
HETATM   11  C9  UNK     1      19.654   0.199  28.839  1.00  0.00     0.161 A 
ENDROOT
BRANCH   7  12
HETATM   12  O2  UNK     1      20.417  -3.090  34.178  1.00  0.00    -0.279 OA
BRANCH  12  13
HETATM   13  C11 UNK     1      20.817  -2.177  35.167  1.00  0.00     0.260 C 
HETATM   14  O5  UNK     1      21.939  -1.706  35.297  1.00  0.00    -0.265 OA
HETATM   15  C12 UNK     1      19.658  -1.850  36.062  1.00  0.00     0.126 C 
ENDBRANCH  12  13
ENDBRANCH   7  12
BRANCH  10  16
HETATM   16  C10 UNK     1      18.476   2.233  29.322  1.00  0.00     0.276 C 
HETATM   17  O4  UNK     1      17.978   2.379  28.211  1.00  0.00    -0.301 OA
ENDBRANCH  10  16
TORSDOF 3
ENDMDL
MODEL 3
REMARK VINA RESULT:      -7.2     26.088     28.175
REMARK  3 active torsions:
REMARK  status: ('A' for Active; 'I' for Inactive)
REMARK    1  A    between atoms: C11_16  and  O2_2 
REMARK    2  A    between atoms: C5_10  and  O2_2 
REMARK    3  A    between atoms: C10_15  and  C8_13 
ROOT
HETATM    1  O1  UNK     1      18.948  -1.435  36.571  1.00  0.00    -0.321 OA
HETATM    2  O3  UNK     1      16.564   0.682  34.022  1.00  0.00    -0.286 OA
HETATM    3  C1  UNK     1      18.356  -0.831  34.292  1.00  0.00     0.051 A 
HETATM    4  C2  UNK     1      19.139  -1.529  35.214  1.00  0.00     0.089 A 
HETATM    5  C3  UNK     1      18.596  -0.965  32.922  1.00  0.00     0.055 A 
HETATM    6  C4  UNK     1      17.277   0.046  34.785  1.00  0.00     0.200 A 
HETATM    7  C5  UNK     1      19.623  -1.800  32.481  1.00  0.00     0.080 A 
HETATM    8  C6  UNK     1      20.165  -2.362  34.770  1.00  0.00     0.041 A 
HETATM    9  C7  UNK     1      20.405  -2.497  33.402  1.00  0.00     0.040 A 
HETATM   10  C8  UNK     1      17.114   0.108  36.253  1.00  0.00     0.075 A 
HETATM   11  C9  UNK     1      17.937  -0.616  37.017  1.00  0.00     0.161 A 
ENDROOT
BRANCH   7  12
HETATM   12  O2  UNK     1      19.862  -1.937  31.147  1.00  0.00    -0.279 OA
BRANCH  12  13
HETATM   13  C11 UNK     1      20.522  -0.841  30.569  1.00  0.00     0.260 C 
HETATM   14  O5  UNK     1      21.100   0.050  31.177  1.00  0.00    -0.265 OA
HETATM   15  C12 UNK     1      20.421  -0.913  29.074  1.00  0.00     0.126 C 
ENDBRANCH  12  13
ENDBRANCH   7  12
BRANCH  10  16
HETATM   16  C10 UNK     1      16.097   0.920  36.921  1.00  0.00     0.276 C 
HETATM   17  O4  UNK     1      14.913   0.892  36.601  1.00  0.00    -0.301 OA
ENDBRANCH  10  16
TORSDOF 3
ENDMDL
MODEL 4
REMARK VINA RESULT:      -6.8     25.303     27.173
REMARK  3 active torsions:
REMARK  status: ('A' for Active; 'I' for Inactive)
REMARK    1  A    between atoms: C11_16  and  O2_2 
REMARK    2  A    between atoms: C5_10  and  O2_2 
REMARK    3  A    between atoms: C10_15  and  C8_13 
ROOT
HETATM    1  O1  UNK     1      20.378  -2.327  32.217  1.00  0.00    -0.321 OA
HETATM    2  O3  UNK     1      18.814   1.158  30.775  1.00  0.00    -0.286 OA
HETATM    3  C1  UNK     1      19.073  -0.313  32.604  1.00  0.00     0.051 A 
HETATM    4  C2  UNK     1      19.632  -1.517  33.037  1.00  0.00     0.089 A 
HETATM    5  C3  UNK     1      18.322   0.471  33.483  1.00  0.00     0.055 A 
HETATM    6  C4  UNK     1      19.284   0.115  31.208  1.00  0.00     0.200 A 
HETATM    7  C5  UNK     1      18.135   0.044  34.798  1.00  0.00     0.080 A 
HETATM    8  C6  UNK     1      19.443  -1.941  34.352  1.00  0.00     0.041 A 
HETATM    9  C7  UNK     1      18.694  -1.159  35.232  1.00  0.00     0.040 A 
HETATM   10  C8  UNK     1      20.097  -0.792  30.369  1.00  0.00     0.075 A 
HETATM   11  C9  UNK     1      20.571  -1.915  30.919  1.00  0.00     0.161 A 
ENDROOT
BRANCH   7  12
HETATM   12  O2  UNK     1      17.406   0.803  35.663  1.00  0.00    -0.279 OA
BRANCH  12  13
HETATM   13  C11 UNK     1      18.165   1.400  36.681  1.00  0.00     0.260 C 
HETATM   14  O5  UNK     1      19.184   2.060  36.522  1.00  0.00    -0.265 OA
HETATM   15  C12 UNK     1      17.547   1.113  38.017  1.00  0.00     0.126 C 
ENDBRANCH  12  13
ENDBRANCH   7  12
BRANCH  10  16
HETATM   16  C10 UNK     1      20.413  -0.530  28.965  1.00  0.00     0.276 C 
HETATM   17  O4  UNK     1      19.575  -0.607  28.073  1.00  0.00    -0.301 OA
ENDBRANCH  10  16
TORSDOF 3
ENDMDL
MODEL 5
REMARK VINA RESULT:      -6.8     23.215     25.063
REMARK  3 active torsions:
REMARK  status: ('A' for Active; 'I' for Inactive)
REMARK    1  A    between atoms: C11_16  and  O2_2 
REMARK    2  A    between atoms: C5_10  and  O2_2 
REMARK    3  A    between atoms: C10_15  and  C8_13 
ROOT
HETATM    1  O1  UNK     1      18.549   6.160  30.720  1.00  0.00    -0.321 OA
HETATM    2  O3  UNK     1      18.077   4.061  34.189  1.00  0.00    -0.286 OA
HETATM    3  C1  UNK     1      18.419   4.014  31.854  1.00  0.00     0.051 A 
HETATM    4  C2  UNK     1      18.573   4.788  30.702  1.00  0.00     0.089 A 
HETATM    5  C3  UNK     1      18.452   2.620  31.774  1.00  0.00     0.055 A 
HETATM    6  C4  UNK     1      18.220   4.689  33.150  1.00  0.00     0.200 A 
HETATM    7  C5  UNK     1      18.640   2.004  30.537  1.00  0.00     0.080 A 
HETATM    8  C6  UNK     1      18.761   4.169  29.466  1.00  0.00     0.041 A 
HETATM    9  C7  UNK     1      18.794   2.777  29.385  1.00  0.00     0.040 A 
HETATM   10  C8  UNK     1      18.206   6.167  33.114  1.00  0.00     0.075 A 
HETATM   11  C9  UNK     1      18.366   6.778  31.935  1.00  0.00     0.161 A 
ENDROOT
BRANCH   7  12
HETATM   12  O2  UNK     1      18.675   0.645  30.451  1.00  0.00    -0.279 OA
BRANCH  12  13
HETATM   13  C11 UNK     1      19.964   0.116  30.278  1.00  0.00     0.260 C 
HETATM   14  O5  UNK     1      20.862   0.130  31.109  1.00  0.00    -0.265 OA
HETATM   15  C12 UNK     1      20.092  -0.483  28.908  1.00  0.00     0.126 C 
ENDBRANCH  12  13
ENDBRANCH   7  12
BRANCH  10  16
HETATM   16  C10 UNK     1      18.024   7.004  34.300  1.00  0.00     0.276 C 
HETATM   17  O4  UNK     1      16.934   7.159  34.839  1.00  0.00    -0.301 OA
ENDBRANCH  10  16
TORSDOF 3
ENDMDL
MODEL 6
REMARK VINA RESULT:      -6.7     22.779     24.596
REMARK  3 active torsions:
REMARK  status: ('A' for Active; 'I' for Inactive)
REMARK    1  A    between atoms: C11_16  and  O2_2 
REMARK    2  A    between atoms: C5_10  and  O2_2 
REMARK    3  A    between atoms: C10_15  and  C8_13 
ROOT
HETATM    1  O1  UNK     1      18.551   1.806  32.440  1.00  0.00    -0.321 OA
HETATM    2  O3  UNK     1      18.611   3.722  28.836  1.00  0.00    -0.286 OA
HETATM    3  C1  UNK     1      18.377   3.877  31.180  1.00  0.00     0.051 A 
HETATM    4  C2  UNK     1      18.366   3.165  32.381  1.00  0.00     0.089 A 
HETATM    5  C3  UNK     1      18.182   5.261  31.181  1.00  0.00     0.055 A 
HETATM    6  C4  UNK     1      18.594   3.149  29.916  1.00  0.00     0.200 A 
HETATM    7  C5  UNK     1      17.977   5.927  32.389  1.00  0.00     0.080 A 
HETATM    8  C6  UNK     1      18.160   3.834  33.587  1.00  0.00     0.041 A 
HETATM    9  C7  UNK     1      17.966   5.215  33.590  1.00  0.00     0.040 A 
HETATM   10  C8  UNK     1      18.791   1.688  30.037  1.00  0.00     0.075 A 
HETATM   11  C9  UNK     1      18.756   1.139  31.255  1.00  0.00     0.161 A 
ENDROOT
BRANCH   7  12
HETATM   12  O2  UNK     1      17.788   7.276  32.399  1.00  0.00    -0.279 OA
BRANCH  12  13
HETATM   13  C11 UNK     1      16.594   7.691  31.789  1.00  0.00     0.260 C 
HETATM   14  O5  UNK     1      16.499   8.243  30.701  1.00  0.00    -0.265 OA
HETATM   15  C12 UNK     1      15.426   7.359  32.670  1.00  0.00     0.126 C 
ENDBRANCH  12  13
ENDBRANCH   7  12
BRANCH  10  16
HETATM   16  C10 UNK     1      19.023   0.805  28.893  1.00  0.00     0.276 C 
HETATM   17  O4  UNK     1      19.958   0.012  28.849  1.00  0.00    -0.301 OA
ENDBRANCH  10  16
TORSDOF 3
ENDMDL
MODEL 7
REMARK VINA RESULT:      -6.7     23.283     24.813
REMARK  3 active torsions:
REMARK  status: ('A' for Active; 'I' for Inactive)
REMARK    1  A    between atoms: C11_16  and  O2_2 
REMARK    2  A    between atoms: C5_10  and  O2_2 
REMARK    3  A    between atoms: C10_15  and  C8_13 
ROOT
HETATM    1  O1  UNK     1      19.272   2.560  29.789  1.00  0.00    -0.321 OA
HETATM    2  O3  UNK     1      17.814   2.316  33.596  1.00  0.00    -0.286 OA
HETATM    3  C1  UNK     1      18.365   3.679  31.748  1.00  0.00     0.051 A 
HETATM    4  C2  UNK     1      18.873   3.697  30.447  1.00  0.00     0.089 A 
HETATM    5  C3  UNK     1      17.975   4.869  32.368  1.00  0.00     0.055 A 
HETATM    6  C4  UNK     1      18.249   2.390  32.455  1.00  0.00     0.200 A 
HETATM    7  C5  UNK     1      18.096   6.076  31.679  1.00  0.00     0.080 A 
HETATM    8  C6  UNK     1      18.992   4.906  29.762  1.00  0.00     0.041 A 
HETATM    9  C7  UNK     1      18.603   6.095  30.379  1.00  0.00     0.040 A 
HETATM   10  C8  UNK     1      18.690   1.197  31.700  1.00  0.00     0.075 A 
HETATM   11  C9  UNK     1      19.155   1.364  30.458  1.00  0.00     0.161 A 
ENDROOT
BRANCH   7  12
HETATM   12  O2  UNK     1      17.716   7.240  32.275  1.00  0.00    -0.279 OA
BRANCH  12  13
HETATM   13  C11 UNK     1      16.487   7.743  31.819  1.00  0.00     0.260 C 
HETATM   14  O5  UNK     1      16.324   8.454  30.837  1.00  0.00    -0.265 OA
HETATM   15  C12 UNK     1      15.379   7.280  32.718  1.00  0.00     0.126 C 
ENDBRANCH  12  13
ENDBRANCH   7  12
BRANCH  10  16
HETATM   16  C10 UNK     1      18.644  -0.164  32.238  1.00  0.00     0.276 C 
HETATM   17  O4  UNK     1      19.414  -0.556  33.108  1.00  0.00    -0.301 OA
ENDBRANCH  10  16
TORSDOF 3
ENDMDL
MODEL 8
REMARK VINA RESULT:      -6.6     23.590     25.595
REMARK  3 active torsions:
REMARK  status: ('A' for Active; 'I' for Inactive)
REMARK    1  A    between atoms: C11_16  and  O2_2 
REMARK    2  A    between atoms: C5_10  and  O2_2 
REMARK    3  A    between atoms: C10_15  and  C8_13 
ROOT
HETATM    1  O1  UNK     1      17.125   7.903  34.826  1.00  0.00    -0.321 OA
HETATM    2  O3  UNK     1      15.914   8.458  30.967  1.00  0.00    -0.286 OA
HETATM    3  C1  UNK     1      17.204   7.206  32.499  1.00  0.00     0.051 A 
HETATM    4  C2  UNK     1      17.582   7.069  33.836  1.00  0.00     0.089 A 
HETATM    5  C3  UNK     1      17.701   6.328  31.533  1.00  0.00     0.055 A 
HETATM    6  C4  UNK     1      16.276   8.290  32.123  1.00  0.00     0.200 A 
HETATM    7  C5  UNK     1      18.578   5.312  31.913  1.00  0.00     0.080 A 
HETATM    8  C6  UNK     1      18.460   6.052  34.212  1.00  0.00     0.041 A 
HETATM    9  C7  UNK     1      18.957   5.174  33.249  1.00  0.00     0.040 A 
HETATM   10  C8  UNK     1      15.813   9.156  33.228  1.00  0.00     0.075 A 
HETATM   11  C9  UNK     1      16.258   8.907  34.464  1.00  0.00     0.161 A 
ENDROOT
BRANCH   7  12
HETATM   12  O2  UNK     1      19.067   4.450  30.978  1.00  0.00    -0.279 OA
BRANCH  12  13
HETATM   13  C11 UNK     1      18.336   3.257  30.861  1.00  0.00     0.260 C 
HETATM   14  O5  UNK     1      17.622   2.767  31.726  1.00  0.00    -0.265 OA
HETATM   15  C12 UNK     1      18.553   2.654  29.505  1.00  0.00     0.126 C 
ENDBRANCH  12  13
ENDBRANCH   7  12
BRANCH  10  16
HETATM   16  C10 UNK     1      14.889  10.277  33.046  1.00  0.00     0.276 C 
HETATM   17  O4  UNK     1      13.711  10.223  33.380  1.00  0.00    -0.301 OA
ENDBRANCH  10  16
TORSDOF 3
ENDMDL
MODEL 9
REMARK VINA RESULT:      -6.6      2.121      3.588
REMARK  3 active torsions:
REMARK  status: ('A' for Active; 'I' for Inactive)
REMARK    1  A    between atoms: C11_16  and  O2_2 
REMARK    2  A    between atoms: C5_10  and  O2_2 
REMARK    3  A    between atoms: C10_15  and  C8_13 
ROOT
HETATM    1  O1  UNK     1      15.009   4.791   9.156  1.00  0.00    -0.321 OA
HETATM    2  O3  UNK     1      14.491   8.770   9.909  1.00  0.00    -0.286 OA
HETATM    3  C1  UNK     1      13.567   6.748   9.114  1.00  0.00     0.051 A 
HETATM    4  C2  UNK     1      13.806   5.392   8.878  1.00  0.00     0.089 A 
HETATM    5  C3  UNK     1      12.323   7.306   8.809  1.00  0.00     0.055 A 
HETATM    6  C4  UNK     1      14.645   7.577   9.685  1.00  0.00     0.200 A 
HETATM    7  C5  UNK     1      11.321   6.501   8.269  1.00  0.00     0.080 A 
HETATM    8  C6  UNK     1      12.801   4.591   8.337  1.00  0.00     0.041 A 
HETATM    9  C7  UNK     1      11.559   5.147   8.033  1.00  0.00     0.040 A 
HETATM   10  C8  UNK     1      15.917   6.879   9.969  1.00  0.00     0.075 A 
HETATM   11  C9  UNK     1      16.004   5.574   9.692  1.00  0.00     0.161 A 
ENDROOT
BRANCH   7  12
HETATM   12  O2  UNK     1      10.104   7.037   7.971  1.00  0.00    -0.279 OA
BRANCH  12  13
HETATM   13  C11 UNK     1       9.319   6.239   7.124  1.00  0.00     0.260 C 
HETATM   14  O5  UNK     1       8.473   5.431   7.483  1.00  0.00    -0.265 OA
HETATM   15  C12 UNK     1       9.665   6.517   5.691  1.00  0.00     0.126 C 
ENDBRANCH  12  13
ENDBRANCH   7  12
BRANCH  10  16
HETATM   16  C10 UNK     1      17.093   7.538  10.538  1.00  0.00     0.276 C 
HETATM   17  O4  UNK     1      17.837   8.252   9.874  1.00  0.00    -0.301 OA
ENDBRANCH  10  16
TORSDOF 3
ENDMDL
MODEL 10
REMARK VINA RESULT:      -6.6     24.426     26.460
REMARK  3 active torsions:
REMARK  status: ('A' for Active; 'I' for Inactive)
REMARK    1  A    between atoms: C11_16  and  O2_2 
REMARK    2  A    between atoms: C5_10  and  O2_2 
REMARK    3  A    between atoms: C10_15  and  C8_13 
ROOT
HETATM    1  O1  UNK     1      19.306  -1.908  34.233  1.00  0.00    -0.321 OA
HETATM    2  O3  UNK     1      17.601   1.757  33.656  1.00  0.00    -0.286 OA
HETATM    3  C1  UNK     1      18.911  -0.001  32.778  1.00  0.00     0.051 A 
HETATM    4  C2  UNK     1      19.470  -1.254  33.037  1.00  0.00     0.089 A 
HETATM    5  C3  UNK     1      19.112   0.618  31.542  1.00  0.00     0.055 A 
HETATM    6  C4  UNK     1      18.110   0.658  33.827  1.00  0.00     0.200 A 
HETATM    7  C5  UNK     1      19.875  -0.024  30.566  1.00  0.00     0.080 A 
HETATM    8  C6  UNK     1      20.232  -1.893  32.059  1.00  0.00     0.041 A 
HETATM    9  C7  UNK     1      20.433  -1.277  30.824  1.00  0.00     0.040 A 
HETATM   10  C8  UNK     1      17.963  -0.091  35.094  1.00  0.00     0.075 A 
HETATM   11  C9  UNK     1      18.554  -1.285  35.201  1.00  0.00     0.161 A 
ENDROOT
BRANCH   7  12
HETATM   12  O2  UNK     1      20.074   0.571  29.358  1.00  0.00    -0.279 OA
BRANCH  12  13
HETATM   13  C11 UNK     1      19.048   0.339  28.428  1.00  0.00     0.260 C 
HETATM   14  O5  UNK     1      18.995  -0.593  27.637  1.00  0.00    -0.265 OA
HETATM   15  C12 UNK     1      18.004   1.410  28.540  1.00  0.00     0.126 C 
ENDBRANCH  12  13
ENDBRANCH   7  12
BRANCH  10  16
HETATM   16  C10 UNK     1      17.202   0.403  36.242  1.00  0.00     0.276 C 
HETATM   17  O4  UNK     1      15.980   0.499  36.234  1.00  0.00    -0.301 OA
ENDBRANCH  10  16
TORSDOF 3
ENDMDL
