MODEL 1
REMARK VINA RESULT:      -8.7      0.000      0.000
REMARK  7 active torsions:
REMARK  status: ('A' for Active; 'I' for Inactive)
REMARK    1  A    between atoms: C15_23  and  O3_4 
REMARK    2  A    between atoms: C23_31  and  O3_4 
REMARK    3  A    between atoms: C5_13  and  N1_6 
REMARK    4  A    between atoms: C6_14  and  N2_7 
REMARK    5  A    between atoms: C17_25  and  N3_8 
REMARK       I    between atoms: C9_17  and  N3_8 
REMARK    6  A    between atoms: C5_13  and  C7_15 
REMARK    7  A    between atoms: C6_14  and  C9_17 
ROOT
HETATM    1  N1  UNK     1      23.772  -9.362  37.193  1.00  0.00     0.096 N 
HETATM    2  N2  UNK     1      26.201  -8.305  38.350  1.00  0.00     0.100 N 
HETATM    3  C1  UNK     1      23.780  -8.082  37.913  1.00  0.00     0.303 C 
HETATM    4  C2  UNK     1      25.081  -9.613  36.577  1.00  0.00     0.303 C 
HETATM    5  C3  UNK     1      24.892  -8.056  38.965  1.00  0.00     0.303 C 
HETATM    6  C4  UNK     1      26.194  -9.585  37.632  1.00  0.00     0.303 C 
ENDROOT
BRANCH   1   7
HETATM    7  C5  UNK     1      22.712  -9.384  36.186  1.00  0.00     0.312 C 
BRANCH   7   8
HETATM    8  C7  UNK     1      21.357  -9.462  36.798  1.00  0.00    -0.011 A 
HETATM    9  C10 UNK     1      20.941 -10.576  37.418  1.00  0.00     0.092 A 
HETATM   10  C13 UNK     1      19.611 -10.702  38.037  1.00  0.00     0.288 A 
HETATM   11  O1  UNK     1      18.779  -9.597  37.957  1.00  0.00    -0.275 OA
HETATM   12  O4  UNK     1      19.265 -11.737  38.596  1.00  0.00    -0.260 OA
HETATM   13  C11 UNK     1      19.188  -8.412  37.312  1.00  0.00     0.090 A 
HETATM   14  C8  UNK     1      20.451  -8.308  36.728  1.00  0.00     0.009 A 
HETATM   15  C14 UNK     1      18.267  -7.363  37.290  1.00  0.00     0.041 A 
HETATM   16  C12 UNK     1      20.781  -7.096  36.105  1.00  0.00     0.051 A 
HETATM   17  C15 UNK     1      19.869  -6.036  36.075  1.00  0.00     0.069 A 
HETATM   18  C16 UNK     1      18.613  -6.169  36.666  1.00  0.00     0.039 A 
BRANCH  17  19
HETATM   19  O3  UNK     1      20.209  -4.868  35.464  1.00  0.00    -0.351 OA
BRANCH  19  20
HETATM   20  C23 UNK     1      20.058  -3.671  36.225  1.00  0.00     0.171 C 
HETATM   21  C25 UNK     1      20.075  -2.484  35.285  1.00  0.00     0.034 C 
ENDBRANCH  19  20
ENDBRANCH  17  19
ENDBRANCH   7   8
ENDBRANCH   1   7
BRANCH   2  22
HETATM   22  C6  UNK     1      27.262  -8.280  39.355  1.00  0.00     0.375 C 
BRANCH  22  23
HETATM   23  C9  UNK     1      28.214  -7.135  39.059  1.00  0.00     0.250 C 
HETATM   24  O2  UNK     1      28.133  -6.047  39.619  1.00  0.00    -0.271 OA
HETATM   25  N3  UNK     1      29.146  -7.520  38.098  1.00  0.00    -0.324 N 
HETATM   26  H15 UNK     1      29.089  -8.467  37.730  1.00  0.00     0.169 HD
BRANCH  25  27
HETATM   27  C17 UNK     1      30.197  -6.743  37.554  1.00  0.00     0.056 A 
HETATM   28  C18 UNK     1      30.135  -6.243  36.253  1.00  0.00     0.061 A 
HETATM   29 Cl1  UNK     1      28.775  -6.549  35.232  1.00  0.00    -0.082 Cl
HETATM   30  C20 UNK     1      31.187  -5.479  35.748  1.00  0.00     0.033 A 
HETATM   31  C22 UNK     1      32.302  -5.213  36.545  1.00  0.00    -0.060 A 
HETATM   32  C21 UNK     1      32.363  -5.713  37.846  1.00  0.00     0.009 A 
HETATM   33  C24 UNK     1      33.427  -4.396  36.006  1.00  0.00     0.048 C 
HETATM   34  C19 UNK     1      31.311  -6.477  38.351  1.00  0.00     0.032 A 
ENDBRANCH  25  27
ENDBRANCH  22  23
ENDBRANCH   2  22
TORSDOF 7
ENDMDL
MODEL 2
REMARK VINA RESULT:      -8.7      2.497      3.745
REMARK  7 active torsions:
REMARK  status: ('A' for Active; 'I' for Inactive)
REMARK    1  A    between atoms: C15_23  and  O3_4 
REMARK    2  A    between atoms: C23_31  and  O3_4 
REMARK    3  A    between atoms: C5_13  and  N1_6 
REMARK    4  A    between atoms: C6_14  and  N2_7 
REMARK    5  A    between atoms: C17_25  and  N3_8 
REMARK       I    between atoms: C9_17  and  N3_8 
REMARK    6  A    between atoms: C5_13  and  C7_15 
REMARK    7  A    between atoms: C6_14  and  C9_17 
ROOT
HETATM    1  N1  UNK     1      26.810  -9.420  37.591  1.00  0.00     0.096 N 
HETATM    2  N2  UNK     1      29.639  -9.116  38.104  1.00  0.00     0.100 N 
HETATM    3  C1  UNK     1      27.337  -9.383  38.961  1.00  0.00     0.303 C 
HETATM    4  C2  UNK     1      27.669  -8.642  36.689  1.00  0.00     0.303 C 
HETATM    5  C3  UNK     1      28.780  -9.895  39.004  1.00  0.00     0.303 C 
HETATM    6  C4  UNK     1      29.113  -9.155  36.733  1.00  0.00     0.303 C 
ENDROOT
BRANCH   1   7
HETATM    7  C5  UNK     1      25.434  -8.927  37.551  1.00  0.00     0.312 C 
BRANCH   7   8
HETATM    8  C7  UNK     1      24.532  -9.841  36.798  1.00  0.00    -0.011 A 
HETATM    9  C10 UNK     1      24.978 -11.010  36.313  1.00  0.00     0.092 A 
HETATM   10  C13 UNK     1      24.125 -11.946  35.562  1.00  0.00     0.288 A 
HETATM   11  O1  UNK     1      22.806 -11.568  35.367  1.00  0.00    -0.275 OA
HETATM   12  O4  UNK     1      24.568 -13.006  35.133  1.00  0.00    -0.260 OA
HETATM   13  C11 UNK     1      22.309 -10.347  35.864  1.00  0.00     0.090 A 
HETATM   14  C8  UNK     1      23.129  -9.469  36.573  1.00  0.00     0.009 A 
HETATM   15  C14 UNK     1      20.964 -10.069  35.608  1.00  0.00     0.041 A 
HETATM   16  C12 UNK     1      22.558  -8.274  37.033  1.00  0.00     0.051 A 
HETATM   17  C15 UNK     1      21.213  -7.981  36.784  1.00  0.00     0.069 A 
HETATM   18  C16 UNK     1      20.417  -8.878  36.072  1.00  0.00     0.039 A 
BRANCH  17  19
HETATM   19  O3  UNK     1      20.678  -6.815  37.239  1.00  0.00    -0.351 OA
BRANCH  19  20
HETATM   20  C23 UNK     1      19.555  -6.914  38.112  1.00  0.00     0.171 C 
HETATM   21  C25 UNK     1      20.025  -7.395  39.469  1.00  0.00     0.034 C 
ENDBRANCH  19  20
ENDBRANCH  17  19
ENDBRANCH   7   8
ENDBRANCH   1   7
BRANCH   2  22
HETATM   22  C6  UNK     1      31.015  -9.606  38.145  1.00  0.00     0.375 C 
BRANCH  22  23
HETATM   23  C9  UNK     1      31.842  -8.881  37.098  1.00  0.00     0.250 C 
HETATM   24  O2  UNK     1      32.372  -9.462  36.156  1.00  0.00    -0.271 OA
HETATM   25  N3  UNK     1      31.883  -7.517  37.376  1.00  0.00    -0.324 N 
HETATM   26  H15 UNK     1      31.381  -7.182  38.196  1.00  0.00     0.169 HD
BRANCH  25  27
HETATM   27  C17 UNK     1      32.547  -6.505  36.642  1.00  0.00     0.056 A 
HETATM   28  C18 UNK     1      31.874  -5.728  35.699  1.00  0.00     0.061 A 
HETATM   29 Cl1  UNK     1      30.194  -5.961  35.371  1.00  0.00    -0.082 Cl
HETATM   30  C20 UNK     1      32.559  -4.739  34.994  1.00  0.00     0.033 A 
HETATM   31  C22 UNK     1      33.916  -4.524  35.233  1.00  0.00    -0.060 A 
HETATM   32  C21 UNK     1      34.589  -5.301  36.176  1.00  0.00     0.009 A 
HETATM   33  C24 UNK     1      34.649  -3.465  34.480  1.00  0.00     0.048 C 
HETATM   34  C19 UNK     1      33.905  -6.291  36.881  1.00  0.00     0.032 A 
ENDBRANCH  25  27
ENDBRANCH  22  23
ENDBRANCH   2  22
TORSDOF 7
ENDMDL
MODEL 3
REMARK VINA RESULT:      -8.6      2.534      4.818
REMARK  7 active torsions:
REMARK  status: ('A' for Active; 'I' for Inactive)
REMARK    1  A    between atoms: C15_23  and  O3_4 
REMARK    2  A    between atoms: C23_31  and  O3_4 
REMARK    3  A    between atoms: C5_13  and  N1_6 
REMARK    4  A    between atoms: C6_14  and  N2_7 
REMARK    5  A    between atoms: C17_25  and  N3_8 
REMARK       I    between atoms: C9_17  and  N3_8 
REMARK    6  A    between atoms: C5_13  and  C7_15 
REMARK    7  A    between atoms: C6_14  and  C9_17 
ROOT
HETATM    1  N1  UNK     1      25.275  -7.998  38.668  1.00  0.00     0.096 N 
HETATM    2  N2  UNK     1      28.111  -7.489  38.899  1.00  0.00     0.100 N 
HETATM    3  C1  UNK     1      26.179  -8.982  39.275  1.00  0.00     0.303 C 
HETATM    4  C2  UNK     1      25.791  -6.637  38.863  1.00  0.00     0.303 C 
HETATM    5  C3  UNK     1      27.594  -8.848  38.703  1.00  0.00     0.303 C 
HETATM    6  C4  UNK     1      27.207  -6.504  38.291  1.00  0.00     0.303 C 
ENDROOT
BRANCH   1   7
HETATM    7  C5  UNK     1      23.926  -8.124  39.219  1.00  0.00     0.312 C 
BRANCH   7   8
HETATM    8  C7  UNK     1      22.885  -7.634  38.273  1.00  0.00    -0.011 A 
HETATM    9  C10 UNK     1      22.277  -6.454  38.463  1.00  0.00     0.092 A 
HETATM   10  C13 UNK     1      21.243  -5.928  37.557  1.00  0.00     0.288 A 
HETATM   11  O1  UNK     1      20.909  -6.716  36.467  1.00  0.00    -0.275 OA
HETATM   12  O4  UNK     1      20.709  -4.844  37.763  1.00  0.00    -0.260 OA
HETATM   13  C11 UNK     1      21.531  -7.961  36.241  1.00  0.00     0.090 A 
HETATM   14  C8  UNK     1      22.509  -8.448  37.109  1.00  0.00     0.009 A 
HETATM   15  C14 UNK     1      21.115  -8.671  35.112  1.00  0.00     0.041 A 
HETATM   16  C12 UNK     1      23.077  -9.695  36.814  1.00  0.00     0.051 A 
HETATM   17  C15 UNK     1      22.671 -10.418  35.687  1.00  0.00     0.069 A 
HETATM   18  C16 UNK     1      21.691  -9.906  34.837  1.00  0.00     0.039 A 
BRANCH  17  19
HETATM   19  O3  UNK     1      23.236 -11.627  35.419  1.00  0.00    -0.351 OA
BRANCH  19  20
HETATM   20  C23 UNK     1      24.498 -11.901  36.023  1.00  0.00     0.171 C 
HETATM   21  C25 UNK     1      24.704 -13.401  36.076  1.00  0.00     0.034 C 
ENDBRANCH  19  20
ENDBRANCH  17  19
ENDBRANCH   7   8
ENDBRANCH   1   7
BRANCH   2  22
HETATM   22  C6  UNK     1      29.460  -7.361  38.352  1.00  0.00     0.375 C 
BRANCH  22  23
HETATM   23  C9  UNK     1      29.444  -6.384  37.190  1.00  0.00     0.250 C 
HETATM   24  O2  UNK     1      29.443  -5.167  37.350  1.00  0.00    -0.271 OA
HETATM   25  N3  UNK     1      29.440  -7.074  35.979  1.00  0.00    -0.324 N 
HETATM   26  H15 UNK     1      29.451  -8.091  36.011  1.00  0.00     0.169 HD
BRANCH  25  27
HETATM   27  C17 UNK     1      29.426  -6.527  34.674  1.00  0.00     0.056 A 
HETATM   28  C18 UNK     1      30.588  -6.037  34.077  1.00  0.00     0.061 A 
HETATM   29 Cl1  UNK     1      32.107  -6.067  34.900  1.00  0.00    -0.082 Cl
HETATM   30  C20 UNK     1      30.539  -5.507  32.788  1.00  0.00     0.033 A 
HETATM   31  C22 UNK     1      29.330  -5.467  32.094  1.00  0.00    -0.060 A 
HETATM   32  C21 UNK     1      28.168  -5.957  32.692  1.00  0.00     0.009 A 
HETATM   33  C24 UNK     1      29.277  -4.901  30.716  1.00  0.00     0.048 C 
HETATM   34  C19 UNK     1      28.216  -6.488  33.981  1.00  0.00     0.032 A 
ENDBRANCH  25  27
ENDBRANCH  22  23
ENDBRANCH   2  22
TORSDOF 7
ENDMDL
MODEL 4
REMARK VINA RESULT:      -8.4      2.475      4.464
REMARK  7 active torsions:
REMARK  status: ('A' for Active; 'I' for Inactive)
REMARK    1  A    between atoms: C15_23  and  O3_4 
REMARK    2  A    between atoms: C23_31  and  O3_4 
REMARK    3  A    between atoms: C5_13  and  N1_6 
REMARK    4  A    between atoms: C6_14  and  N2_7 
REMARK    5  A    between atoms: C17_25  and  N3_8 
REMARK       I    between atoms: C9_17  and  N3_8 
REMARK    6  A    between atoms: C5_13  and  C7_15 
REMARK    7  A    between atoms: C6_14  and  C9_17 
ROOT
HETATM    1  N1  UNK     1      25.223  -8.389  38.627  1.00  0.00     0.096 N 
HETATM    2  N2  UNK     1      28.109  -8.459  38.479  1.00  0.00     0.100 N 
HETATM    3  C1  UNK     1      26.003  -9.357  39.407  1.00  0.00     0.303 C 
HETATM    4  C2  UNK     1      26.004  -7.166  38.396  1.00  0.00     0.303 C 
HETATM    5  C3  UNK     1      27.327  -9.679  38.708  1.00  0.00     0.303 C 
HETATM    6  C4  UNK     1      27.329  -7.491  37.697  1.00  0.00     0.303 C 
ENDROOT
BRANCH   1   7
HETATM    7  C5  UNK     1      23.961  -8.078  39.297  1.00  0.00     0.312 C 
BRANCH   7   8
HETATM    8  C7  UNK     1      22.933  -7.566  38.350  1.00  0.00    -0.011 A 
HETATM    9  C10 UNK     1      22.353  -6.372  38.536  1.00  0.00     0.092 A 
HETATM   10  C13 UNK     1      21.332  -5.823  37.628  1.00  0.00     0.288 A 
HETATM   11  O1  UNK     1      20.979  -6.607  36.541  1.00  0.00    -0.275 OA
HETATM   12  O4  UNK     1      20.824  -4.726  37.831  1.00  0.00    -0.260 OA
HETATM   13  C11 UNK     1      21.571  -7.867  36.319  1.00  0.00     0.090 A 
HETATM   14  C8  UNK     1      22.536  -8.375  37.188  1.00  0.00     0.009 A 
HETATM   15  C14 UNK     1      21.138  -8.570  35.192  1.00  0.00     0.041 A 
HETATM   16  C12 UNK     1      23.075  -9.636  36.898  1.00  0.00     0.051 A 
HETATM   17  C15 UNK     1      22.652 -10.353  35.773  1.00  0.00     0.069 A 
HETATM   18  C16 UNK     1      21.684  -9.820  34.921  1.00  0.00     0.039 A 
BRANCH  17  19
HETATM   19  O3  UNK     1      23.187 -11.576  35.509  1.00  0.00    -0.351 OA
BRANCH  19  20
HETATM   20  C23 UNK     1      24.527 -11.804  35.942  1.00  0.00     0.171 C 
HETATM   21  C25 UNK     1      24.719 -13.286  36.187  1.00  0.00     0.034 C 
ENDBRANCH  19  20
ENDBRANCH  17  19
ENDBRANCH   7   8
ENDBRANCH   1   7
BRANCH   2  22
HETATM   22  C6  UNK     1      29.371  -8.767  37.811  1.00  0.00     0.375 C 
BRANCH  22  23
HETATM   23  C9  UNK     1      30.222  -7.512  37.732  1.00  0.00     0.250 C 
HETATM   24  O2  UNK     1      30.251  -6.675  38.629  1.00  0.00    -0.271 OA
HETATM   25  N3  UNK     1      30.929  -7.483  36.532  1.00  0.00    -0.324 N 
HETATM   26  H15 UNK     1      30.806  -8.261  35.887  1.00  0.00     0.169 HD
BRANCH  25  27
HETATM   27  C17 UNK     1      31.827  -6.486  36.082  1.00  0.00     0.056 A 
HETATM   28  C18 UNK     1      33.127  -6.397  36.580  1.00  0.00     0.061 A 
HETATM   29 Cl1  UNK     1      33.711  -7.498  37.778  1.00  0.00    -0.082 Cl
HETATM   30  C20 UNK     1      33.987  -5.404  36.114  1.00  0.00     0.033 A 
HETATM   31  C22 UNK     1      33.548  -4.498  35.148  1.00  0.00    -0.060 A 
HETATM   32  C21 UNK     1      32.248  -4.586  34.650  1.00  0.00     0.009 A 
HETATM   33  C24 UNK     1      34.467  -3.435  34.648  1.00  0.00     0.048 C 
HETATM   34  C19 UNK     1      31.388  -5.580  35.116  1.00  0.00     0.032 A 
ENDBRANCH  25  27
ENDBRANCH  22  23
ENDBRANCH   2  22
TORSDOF 7
ENDMDL
MODEL 5
REMARK VINA RESULT:      -8.3      6.456     10.041
REMARK  7 active torsions:
REMARK  status: ('A' for Active; 'I' for Inactive)
REMARK    1  A    between atoms: C15_23  and  O3_4 
REMARK    2  A    between atoms: C23_31  and  O3_4 
REMARK    3  A    between atoms: C5_13  and  N1_6 
REMARK    4  A    between atoms: C6_14  and  N2_7 
REMARK    5  A    between atoms: C17_25  and  N3_8 
REMARK       I    between atoms: C9_17  and  N3_8 
REMARK    6  A    between atoms: C5_13  and  C7_15 
REMARK    7  A    between atoms: C6_14  and  C9_17 
ROOT
HETATM    1  N1  UNK     1      32.360  -5.772  35.882  1.00  0.00     0.096 N 
HETATM    2  N2  UNK     1      35.004  -6.361  34.870  1.00  0.00     0.100 N 
HETATM    3  C1  UNK     1      33.384  -4.726  35.768  1.00  0.00     0.303 C 
HETATM    4  C2  UNK     1      32.574  -6.812  34.866  1.00  0.00     0.303 C 
HETATM    5  C3  UNK     1      34.790  -5.323  35.886  1.00  0.00     0.303 C 
HETATM    6  C4  UNK     1      33.981  -7.408  34.984  1.00  0.00     0.303 C 
ENDROOT
BRANCH   1   7
HETATM    7  C5  UNK     1      31.020  -5.202  35.765  1.00  0.00     0.312 C 
BRANCH   7   8
HETATM    8  C7  UNK     1      30.247  -5.319  37.033  1.00  0.00    -0.011 A 
HETATM    9  C10 UNK     1      30.291  -4.352  37.962  1.00  0.00     0.092 A 
HETATM   10  C13 UNK     1      29.546  -4.422  39.230  1.00  0.00     0.288 A 
HETATM   11  O1  UNK     1      28.775  -5.555  39.438  1.00  0.00    -0.275 OA
HETATM   12  O4  UNK     1      29.610  -3.519  40.056  1.00  0.00    -0.260 OA
HETATM   13  C11 UNK     1      28.710  -6.588  38.480  1.00  0.00     0.090 A 
HETATM   14  C8  UNK     1      29.422  -6.508  37.283  1.00  0.00     0.009 A 
HETATM   15  C14 UNK     1      27.902  -7.682  38.797  1.00  0.00     0.041 A 
HETATM   16  C12 UNK     1      29.304  -7.577  36.384  1.00  0.00     0.051 A 
HETATM   17  C15 UNK     1      28.499  -8.681  36.687  1.00  0.00     0.069 A 
HETATM   18  C16 UNK     1      27.799  -8.733  37.892  1.00  0.00     0.039 A 
BRANCH  17  19
HETATM   19  O3  UNK     1      28.399  -9.709  35.800  1.00  0.00    -0.351 OA
BRANCH  19  20
HETATM   20  C23 UNK     1      29.496  -9.908  34.911  1.00  0.00     0.171 C 
HETATM   21  C25 UNK     1      28.967 -10.061  33.501  1.00  0.00     0.034 C 
ENDBRANCH  19  20
ENDBRANCH  17  19
ENDBRANCH   7   8
ENDBRANCH   1   7
BRANCH   2  22
HETATM   22  C6  UNK     1      36.345  -6.930  34.983  1.00  0.00     0.375 C 
BRANCH  22  23
HETATM   23  C9  UNK     1      36.665  -7.723  33.729  1.00  0.00     0.250 C 
HETATM   24  O2  UNK     1      36.660  -7.220  32.610  1.00  0.00    -0.271 OA
HETATM   25  N3  UNK     1      36.957  -9.046  34.055  1.00  0.00    -0.324 N 
HETATM   26  H15 UNK     1      36.928  -9.312  35.037  1.00  0.00     0.169 HD
BRANCH  25  27
HETATM   27  C17 UNK     1      37.304 -10.097  33.173  1.00  0.00     0.056 A 
HETATM   28  C18 UNK     1      36.343 -10.976  32.674  1.00  0.00     0.061 A 
HETATM   29 Cl1  UNK     1      34.676 -10.833  33.109  1.00  0.00    -0.082 Cl
HETATM   30  C20 UNK     1      36.718 -12.000  31.806  1.00  0.00     0.033 A 
HETATM   31  C22 UNK     1      38.055 -12.146  31.434  1.00  0.00    -0.060 A 
HETATM   32  C21 UNK     1      39.016 -11.266  31.933  1.00  0.00     0.009 A 
HETATM   33  C24 UNK     1      38.457 -13.240  30.504  1.00  0.00     0.048 C 
HETATM   34  C19 UNK     1      38.641 -10.242  32.802  1.00  0.00     0.032 A 
ENDBRANCH  25  27
ENDBRANCH  22  23
ENDBRANCH   2  22
TORSDOF 7
ENDMDL
MODEL 6
REMARK VINA RESULT:      -8.3     32.065     34.953
REMARK  7 active torsions:
REMARK  status: ('A' for Active; 'I' for Inactive)
REMARK    1  A    between atoms: C15_23  and  O3_4 
REMARK    2  A    between atoms: C23_31  and  O3_4 
REMARK    3  A    between atoms: C5_13  and  N1_6 
REMARK    4  A    between atoms: C6_14  and  N2_7 
REMARK    5  A    between atoms: C17_25  and  N3_8 
REMARK       I    between atoms: C9_17  and  N3_8 
REMARK    6  A    between atoms: C5_13  and  C7_15 
REMARK    7  A    between atoms: C6_14  and  C9_17 
ROOT
HETATM    1  N1  UNK     1      11.899   7.135   7.279  1.00  0.00     0.096 N 
HETATM    2  N2  UNK     1       9.488   5.783   8.126  1.00  0.00     0.100 N 
HETATM    3  C1  UNK     1      11.642   6.850   8.697  1.00  0.00     0.303 C 
HETATM    4  C2  UNK     1      11.250   6.131   6.427  1.00  0.00     0.303 C 
HETATM    5  C3  UNK     1      10.137   6.788   8.976  1.00  0.00     0.303 C 
HETATM    6  C4  UNK     1       9.744   6.069   6.708  1.00  0.00     0.303 C 
ENDROOT
BRANCH   1   7
HETATM    7  C5  UNK     1      13.336   7.190   7.013  1.00  0.00     0.312 C 
BRANCH   7   8
HETATM    8  C7  UNK     1      14.142   6.822   8.210  1.00  0.00    -0.011 A 
HETATM    9  C10 UNK     1      14.410   5.540   8.496  1.00  0.00     0.092 A 
HETATM   10  C13 UNK     1      15.202   5.126   9.666  1.00  0.00     0.288 A 
HETATM   11  O1  UNK     1      15.677   6.137  10.487  1.00  0.00    -0.275 OA
HETATM   12  O4  UNK     1      15.427   3.943   9.896  1.00  0.00    -0.260 OA
HETATM   13  C11 UNK     1      15.411   7.494  10.212  1.00  0.00     0.090 A 
HETATM   14  C8  UNK     1      14.658   7.871   9.100  1.00  0.00     0.009 A 
HETATM   15  C14 UNK     1      15.938   8.428  11.108  1.00  0.00     0.041 A 
HETATM   16  C12 UNK     1      14.438   9.241   8.897  1.00  0.00     0.051 A 
HETATM   17  C15 UNK     1      14.958  10.188   9.786  1.00  0.00     0.069 A 
HETATM   18  C16 UNK     1      15.707   9.782  10.889  1.00  0.00     0.039 A 
BRANCH  17  19
HETATM   19  O3  UNK     1      14.733  11.513   9.571  1.00  0.00    -0.351 OA
BRANCH  19  20
HETATM   20  C23 UNK     1      15.802  12.270   9.006  1.00  0.00     0.171 C 
HETATM   21  C25 UNK     1      15.580  12.398   7.514  1.00  0.00     0.034 C 
ENDBRANCH  19  20
ENDBRANCH  17  19
ENDBRANCH   7   8
ENDBRANCH   1   7
BRANCH   2  22
HETATM   22  C6  UNK     1       8.053   5.724   8.392  1.00  0.00     0.375 C 
BRANCH  22  23
HETATM   23  C9  UNK     1       7.788   4.755   9.531  1.00  0.00     0.250 C 
HETATM   24  O2  UNK     1       8.570   3.858   9.830  1.00  0.00    -0.271 OA
HETATM   25  N3  UNK     1       6.573   5.052  10.144  1.00  0.00    -0.324 N 
HETATM   26  H15 UNK     1       6.037   5.839   9.784  1.00  0.00     0.169 HD
BRANCH  25  27
HETATM   27  C17 UNK     1       5.972   4.385  11.238  1.00  0.00     0.056 A 
HETATM   28  C18 UNK     1       5.706   5.046  12.438  1.00  0.00     0.061 A 
HETATM   29 Cl1  UNK     1       6.100   6.715  12.655  1.00  0.00    -0.082 Cl
HETATM   30  C20 UNK     1       5.111   4.360  13.495  1.00  0.00     0.033 A 
HETATM   31  C22 UNK     1       4.781   3.012  13.355  1.00  0.00    -0.060 A 
HETATM   32  C21 UNK     1       5.047   2.351  12.156  1.00  0.00     0.009 A 
HETATM   33  C24 UNK     1       4.144   2.277  14.486  1.00  0.00     0.048 C 
HETATM   34  C19 UNK     1       5.642   3.037  11.097  1.00  0.00     0.032 A 
ENDBRANCH  25  27
ENDBRANCH  22  23
ENDBRANCH   2  22
TORSDOF 7
ENDMDL
MODEL 7
REMARK VINA RESULT:      -8.3      6.122      9.066
REMARK  7 active torsions:
REMARK  status: ('A' for Active; 'I' for Inactive)
REMARK    1  A    between atoms: C15_23  and  O3_4 
REMARK    2  A    between atoms: C23_31  and  O3_4 
REMARK    3  A    between atoms: C5_13  and  N1_6 
REMARK    4  A    between atoms: C6_14  and  N2_7 
REMARK    5  A    between atoms: C17_25  and  N3_8 
REMARK       I    between atoms: C9_17  and  N3_8 
REMARK    6  A    between atoms: C5_13  and  C7_15 
REMARK    7  A    between atoms: C6_14  and  C9_17 
ROOT
HETATM    1  N1  UNK     1      31.451  -9.571  36.355  1.00  0.00     0.096 N 
HETATM    2  N2  UNK     1      32.625 -10.399  33.846  1.00  0.00     0.100 N 
HETATM    3  C1  UNK     1      31.419 -10.975  35.924  1.00  0.00     0.303 C 
HETATM    4  C2  UNK     1      32.631  -8.892  35.805  1.00  0.00     0.303 C 
HETATM    5  C3  UNK     1      31.445 -11.076  34.396  1.00  0.00     0.303 C 
HETATM    6  C4  UNK     1      32.657  -8.995  34.276  1.00  0.00     0.303 C 
ENDROOT
BRANCH   1   7
HETATM    7  C5  UNK     1      31.430  -9.476  37.814  1.00  0.00     0.312 C 
BRANCH   7   8
HETATM    8  C7  UNK     1      30.217  -8.772  38.313  1.00  0.00    -0.011 A 
HETATM    9  C10 UNK     1      29.135  -9.456  38.713  1.00  0.00     0.092 A 
HETATM   10  C13 UNK     1      27.912  -8.806  39.213  1.00  0.00     0.288 A 
HETATM   11  O1  UNK     1      27.917  -7.421  39.259  1.00  0.00    -0.275 OA
HETATM   12  O4  UNK     1      26.942  -9.465  39.570  1.00  0.00    -0.260 OA
HETATM   13  C11 UNK     1      29.040  -6.674  38.846  1.00  0.00     0.090 A 
HETATM   14  C8  UNK     1      30.191  -7.304  38.373  1.00  0.00     0.009 A 
HETATM   15  C14 UNK     1      28.932  -5.284  38.935  1.00  0.00     0.041 A 
HETATM   16  C12 UNK     1      31.263  -6.490  37.980  1.00  0.00     0.051 A 
HETATM   17  C15 UNK     1      31.170  -5.097  38.063  1.00  0.00     0.069 A 
HETATM   18  C16 UNK     1      30.007  -4.495  38.540  1.00  0.00     0.039 A 
BRANCH  17  19
HETATM   19  O3  UNK     1      32.223  -4.325  37.677  1.00  0.00    -0.351 OA
BRANCH  19  20
HETATM   20  C23 UNK     1      32.046  -3.526  36.509  1.00  0.00     0.171 C 
HETATM   21  C25 UNK     1      32.555  -4.292  35.306  1.00  0.00     0.034 C 
ENDBRANCH  19  20
ENDBRANCH  17  19
ENDBRANCH   7   8
ENDBRANCH   1   7
BRANCH   2  22
HETATM   22  C6  UNK     1      32.649 -10.496  32.389  1.00  0.00     0.375 C 
BRANCH  22  23
HETATM   23  C9  UNK     1      31.795  -9.389  31.794  1.00  0.00     0.250 C 
HETATM   24  O2  UNK     1      32.279  -8.400  31.253  1.00  0.00    -0.271 OA
HETATM   25  N3  UNK     1      30.443  -9.683  31.957  1.00  0.00    -0.324 N 
HETATM   26  H15 UNK     1      30.198 -10.554  32.423  1.00  0.00     0.169 HD
BRANCH  25  27
HETATM   27  C17 UNK     1      29.335  -8.907  31.542  1.00  0.00     0.056 A 
HETATM   28  C18 UNK     1      28.826  -7.879  32.337  1.00  0.00     0.061 A 
HETATM   29 Cl1  UNK     1      29.519  -7.500  33.874  1.00  0.00    -0.082 Cl
HETATM   30  C20 UNK     1      27.734  -7.133  31.897  1.00  0.00     0.033 A 
HETATM   31  C22 UNK     1      27.149  -7.413  30.662  1.00  0.00    -0.060 A 
HETATM   32  C21 UNK     1      27.657  -8.441  29.867  1.00  0.00     0.009 A 
HETATM   33  C24 UNK     1      25.981  -6.615  30.190  1.00  0.00     0.048 C 
HETATM   34  C19 UNK     1      28.750  -9.187  30.307  1.00  0.00     0.032 A 
ENDBRANCH  25  27
ENDBRANCH  22  23
ENDBRANCH   2  22
TORSDOF 7
ENDMDL
MODEL 8
REMARK VINA RESULT:      -8.3      6.168      9.585
REMARK  7 active torsions:
REMARK  status: ('A' for Active; 'I' for Inactive)
REMARK    1  A    between atoms: C15_23  and  O3_4 
REMARK    2  A    between atoms: C23_31  and  O3_4 
REMARK    3  A    between atoms: C5_13  and  N1_6 
REMARK    4  A    between atoms: C6_14  and  N2_7 
REMARK    5  A    between atoms: C17_25  and  N3_8 
REMARK       I    between atoms: C9_17  and  N3_8 
REMARK    6  A    between atoms: C5_13  and  C7_15 
REMARK    7  A    between atoms: C6_14  and  C9_17 
ROOT
HETATM    1  N1  UNK     1      32.141  -8.180  36.026  1.00  0.00     0.096 N 
HETATM    2  N2  UNK     1      32.430 -10.353  34.141  1.00  0.00     0.100 N 
HETATM    3  C1  UNK     1      31.641  -9.527  36.331  1.00  0.00     0.303 C 
HETATM    4  C2  UNK     1      33.294  -8.254  35.119  1.00  0.00     0.303 C 
HETATM    5  C3  UNK     1      31.278 -10.278  35.046  1.00  0.00     0.303 C 
HETATM    6  C4  UNK     1      32.929  -9.007  33.834  1.00  0.00     0.303 C 
ENDROOT
BRANCH   1   7
HETATM    7  C5  UNK     1      32.491  -7.466  37.252  1.00  0.00     0.312 C 
BRANCH   7   8
HETATM    8  C7  UNK     1      31.846  -6.125  37.325  1.00  0.00    -0.011 A 
HETATM    9  C10 UNK     1      32.454  -5.038  36.829  1.00  0.00     0.092 A 
HETATM   10  C13 UNK     1      31.858  -3.692  36.877  1.00  0.00     0.288 A 
HETATM   11  O1  UNK     1      30.610  -3.584  37.470  1.00  0.00    -0.275 OA
HETATM   12  O4  UNK     1      32.443  -2.720  36.412  1.00  0.00    -0.260 OA
HETATM   13  C11 UNK     1      29.947  -4.709  38.001  1.00  0.00     0.090 A 
HETATM   14  C8  UNK     1      30.525  -5.978  37.949  1.00  0.00     0.009 A 
HETATM   15  C14 UNK     1      28.695  -4.482  38.576  1.00  0.00     0.041 A 
HETATM   16  C12 UNK     1      29.801  -7.045  38.500  1.00  0.00     0.051 A 
HETATM   17  C15 UNK     1      28.545  -6.834  39.080  1.00  0.00     0.069 A 
HETATM   18  C16 UNK     1      27.993  -5.554  39.118  1.00  0.00     0.039 A 
BRANCH  17  19
HETATM   19  O3  UNK     1      27.859  -7.883  39.610  1.00  0.00    -0.351 OA
BRANCH  19  20
HETATM   20  C23 UNK     1      28.159  -9.179  39.097  1.00  0.00     0.171 C 
HETATM   21  C25 UNK     1      27.265 -10.197  39.774  1.00  0.00     0.034 C 
ENDBRANCH  19  20
ENDBRANCH  17  19
ENDBRANCH   7   8
ENDBRANCH   1   7
BRANCH   2  22
HETATM   22  C6  UNK     1      32.083 -11.069  32.915  1.00  0.00     0.375 C 
BRANCH  22  23
HETATM   23  C9  UNK     1      30.656 -10.733  32.520  1.00  0.00     0.250 C 
HETATM   24  O2  UNK     1      29.743 -11.550  32.583  1.00  0.00    -0.271 OA
HETATM   25  N3  UNK     1      30.570  -9.406  32.104  1.00  0.00    -0.324 N 
HETATM   26  H15 UNK     1      31.421  -8.847  32.117  1.00  0.00     0.169 HD
BRANCH  25  27
HETATM   27  C17 UNK     1      29.419  -8.713  31.659  1.00  0.00     0.056 A 
HETATM   28  C18 UNK     1      28.870  -7.663  32.395  1.00  0.00     0.061 A 
HETATM   29 Cl1  UNK     1      29.562  -7.154  33.895  1.00  0.00    -0.082 Cl
HETATM   30  C20 UNK     1      27.737  -7.000  31.927  1.00  0.00     0.033 A 
HETATM   31  C22 UNK     1      27.151  -7.385  30.720  1.00  0.00    -0.060 A 
HETATM   32  C21 UNK     1      27.701  -8.435  29.984  1.00  0.00     0.009 A 
HETATM   33  C24 UNK     1      25.940  -6.676  30.218  1.00  0.00     0.048 C 
HETATM   34  C19 UNK     1      28.835  -9.098  30.452  1.00  0.00     0.032 A 
ENDBRANCH  25  27
ENDBRANCH  22  23
ENDBRANCH   2  22
TORSDOF 7
ENDMDL
MODEL 9
REMARK VINA RESULT:      -8.3      2.610      4.918
REMARK  7 active torsions:
REMARK  status: ('A' for Active; 'I' for Inactive)
REMARK    1  A    between atoms: C15_23  and  O3_4 
REMARK    2  A    between atoms: C23_31  and  O3_4 
REMARK    3  A    between atoms: C5_13  and  N1_6 
REMARK    4  A    between atoms: C6_14  and  N2_7 
REMARK    5  A    between atoms: C17_25  and  N3_8 
REMARK       I    between atoms: C9_17  and  N3_8 
REMARK    6  A    between atoms: C5_13  and  C7_15 
REMARK    7  A    between atoms: C6_14  and  C9_17 
ROOT
HETATM    1  N1  UNK     1      25.984  -7.381  38.073  1.00  0.00     0.096 N 
HETATM    2  N2  UNK     1      28.686  -6.406  37.747  1.00  0.00     0.100 N 
HETATM    3  C1  UNK     1      26.992  -8.157  37.340  1.00  0.00     0.303 C 
HETATM    4  C2  UNK     1      26.624  -6.551  39.102  1.00  0.00     0.303 C 
HETATM    5  C3  UNK     1      28.045  -7.234  36.719  1.00  0.00     0.303 C 
HETATM    6  C4  UNK     1      27.679  -5.628  38.480  1.00  0.00     0.303 C 
ENDROOT
BRANCH   1   7
HETATM    7  C5  UNK     1      24.982  -8.263  38.668  1.00  0.00     0.312 C 
BRANCH   7   8
HETATM    8  C7  UNK     1      23.614  -7.991  38.147  1.00  0.00    -0.011 A 
HETATM    9  C10 UNK     1      22.913  -6.927  38.565  1.00  0.00     0.092 A 
HETATM   10  C13 UNK     1      21.558  -6.616  38.081  1.00  0.00     0.288 A 
HETATM   11  O1  UNK     1      21.015  -7.486  37.149  1.00  0.00    -0.275 OA
HETATM   12  O4  UNK     1      20.947  -5.634  38.486  1.00  0.00    -0.260 OA
HETATM   13  C11 UNK     1      21.727  -8.614  36.691  1.00  0.00     0.090 A 
HETATM   14  C8  UNK     1      23.010  -8.896  37.160  1.00  0.00     0.009 A 
HETATM   15  C14 UNK     1      21.081  -9.422  35.752  1.00  0.00     0.041 A 
HETATM   16  C12 UNK     1      23.651 -10.036  36.655  1.00  0.00     0.051 A 
HETATM   17  C15 UNK     1      23.017 -10.856  35.715  1.00  0.00     0.069 A 
HETATM   18  C16 UNK     1      21.733 -10.549  35.264  1.00  0.00     0.039 A 
BRANCH  17  19
HETATM   19  O3  UNK     1      23.656 -11.959  35.238  1.00  0.00    -0.351 OA
BRANCH  19  20
HETATM   20  C23 UNK     1      24.864 -12.341  35.891  1.00  0.00     0.171 C 
HETATM   21  C25 UNK     1      24.721 -13.759  36.403  1.00  0.00     0.034 C 
ENDBRANCH  19  20
ENDBRANCH  17  19
ENDBRANCH   7   8
ENDBRANCH   1   7
BRANCH   2  22
HETATM   22  C6  UNK     1      29.690  -5.525  37.154  1.00  0.00     0.375 C 
BRANCH  22  23
HETATM   23  C9  UNK     1      31.029  -6.241  37.111  1.00  0.00     0.250 C 
HETATM   24  O2  UNK     1      31.329  -7.130  37.901  1.00  0.00    -0.271 OA
HETATM   25  N3  UNK     1      31.809  -5.741  36.070  1.00  0.00    -0.324 N 
HETATM   26  H15 UNK     1      31.415  -5.003  35.491  1.00  0.00     0.169 HD
BRANCH  25  27
HETATM   27  C17 UNK     1      33.115  -6.143  35.700  1.00  0.00     0.056 A 
HETATM   28  C18 UNK     1      33.328  -7.124  34.731  1.00  0.00     0.061 A 
HETATM   29 Cl1  UNK     1      32.010  -7.906  33.934  1.00  0.00    -0.082 Cl
HETATM   30  C20 UNK     1      34.627  -7.495  34.389  1.00  0.00     0.033 A 
HETATM   31  C22 UNK     1      35.715  -6.884  35.013  1.00  0.00    -0.060 A 
HETATM   32  C21 UNK     1      35.502  -5.903  35.982  1.00  0.00     0.009 A 
HETATM   33  C24 UNK     1      37.106  -7.280  34.647  1.00  0.00     0.048 C 
HETATM   34  C19 UNK     1      34.202  -5.532  36.325  1.00  0.00     0.032 A 
ENDBRANCH  25  27
ENDBRANCH  22  23
ENDBRANCH   2  22
TORSDOF 7
ENDMDL
MODEL 10
REMARK VINA RESULT:      -8.3      3.181     10.188
REMARK  7 active torsions:
REMARK  status: ('A' for Active; 'I' for Inactive)
REMARK    1  A    between atoms: C15_23  and  O3_4 
REMARK    2  A    between atoms: C23_31  and  O3_4 
REMARK    3  A    between atoms: C5_13  and  N1_6 
REMARK    4  A    between atoms: C6_14  and  N2_7 
REMARK    5  A    between atoms: C17_25  and  N3_8 
REMARK       I    between atoms: C9_17  and  N3_8 
REMARK    6  A    between atoms: C5_13  and  C7_15 
REMARK    7  A    between atoms: C6_14  and  C9_17 
ROOT
HETATM    1  N1  UNK     1      28.714  -8.292  38.252  1.00  0.00     0.096 N 
HETATM    2  N2  UNK     1      25.838  -8.316  38.542  1.00  0.00     0.100 N 
HETATM    3  C1  UNK     1      27.989  -9.531  38.561  1.00  0.00     0.303 C 
HETATM    4  C2  UNK     1      27.863  -7.377  37.481  1.00  0.00     0.303 C 
HETATM    5  C3  UNK     1      26.690  -9.229  39.314  1.00  0.00     0.303 C 
HETATM    6  C4  UNK     1      26.563  -7.077  38.235  1.00  0.00     0.303 C 
ENDROOT
BRANCH   1   7
HETATM    7  C5  UNK     1      29.952  -8.582  37.530  1.00  0.00     0.312 C 
BRANCH   7   8
HETATM    8  C7  UNK     1      30.751  -7.352  37.271  1.00  0.00    -0.011 A 
HETATM    9  C10 UNK     1      31.340  -6.684  38.274  1.00  0.00     0.092 A 
HETATM   10  C13 UNK     1      32.138  -5.465  38.068  1.00  0.00     0.288 A 
HETATM   11  O1  UNK     1      32.267  -5.017  36.763  1.00  0.00    -0.275 OA
HETATM   12  O4  UNK     1      32.662  -4.881  39.010  1.00  0.00    -0.260 OA
HETATM   13  C11 UNK     1      31.660  -5.698  35.687  1.00  0.00     0.090 A 
HETATM   14  C8  UNK     1      30.904  -6.851  35.898  1.00  0.00     0.009 A 
HETATM   15  C14 UNK     1      31.855  -5.155  34.415  1.00  0.00     0.041 A 
HETATM   16  C12 UNK     1      30.333  -7.468  34.776  1.00  0.00     0.051 A 
HETATM   17  C15 UNK     1      30.519  -6.937  33.495  1.00  0.00     0.069 A 
HETATM   18  C16 UNK     1      31.279  -5.782  33.315  1.00  0.00     0.039 A 
BRANCH  17  19
HETATM   19  O3  UNK     1      29.956  -7.552  32.420  1.00  0.00    -0.351 OA
BRANCH  19  20
HETATM   20  C23 UNK     1      28.614  -8.012  32.565  1.00  0.00     0.171 C 
HETATM   21  C25 UNK     1      27.694  -7.112  31.767  1.00  0.00     0.034 C 
ENDBRANCH  19  20
ENDBRANCH  17  19
ENDBRANCH   7   8
ENDBRANCH   1   7
BRANCH   2  22
HETATM   22  C6  UNK     1      24.599  -8.028  39.261  1.00  0.00     0.375 C 
BRANCH  22  23
HETATM   23  C9  UNK     1      23.436  -8.025  38.285  1.00  0.00     0.250 C 
HETATM   24  O2  UNK     1      23.499  -8.557  37.181  1.00  0.00    -0.271 OA
HETATM   25  N3  UNK     1      22.346  -7.355  38.836  1.00  0.00    -0.324 N 
HETATM   26  H15 UNK     1      22.446  -6.972  39.774  1.00  0.00     0.169 HD
BRANCH  25  27
HETATM   27  C17 UNK     1      21.078  -7.136  38.246  1.00  0.00     0.056 A 
HETATM   28  C18 UNK     1      20.014  -8.013  38.458  1.00  0.00     0.061 A 
HETATM   29 Cl1  UNK     1      20.186  -9.417  39.451  1.00  0.00    -0.082 Cl
HETATM   30  C20 UNK     1      18.778  -7.767  37.863  1.00  0.00     0.033 A 
HETATM   31  C22 UNK     1      18.603  -6.643  37.055  1.00  0.00    -0.060 A 
HETATM   32  C21 UNK     1      19.667  -5.766  36.842  1.00  0.00     0.009 A 
HETATM   33  C24 UNK     1      17.281  -6.379  36.418  1.00  0.00     0.048 C 
HETATM   34  C19 UNK     1      20.905  -6.012  37.437  1.00  0.00     0.032 A 
ENDBRANCH  25  27
ENDBRANCH  22  23
ENDBRANCH   2  22
TORSDOF 7
ENDMDL
