MODEL 1
REMARK VINA RESULT:      -8.4      0.000      0.000
REMARK  7 active torsions:
REMARK  status: ('A' for Active; 'I' for Inactive)
REMARK    1  A    between atoms: C12_20  and  O2_2 
REMARK    2  A    between atoms: C13_21  and  O3_3 
REMARK    3  A    between atoms: C19_27  and  O3_3 
REMARK    4  A    between atoms: C12_20  and  C2_10 
REMARK    5  A    between atoms: C11_19  and  C6_14 
REMARK    6  A    between atoms: C13_21  and  C8_16 
REMARK    7  A    between atoms: C19_27  and  C22_30 
ROOT
HETATM    1  O1  UNK     1      28.994  -9.479  36.541  1.00  0.00    -0.292 OA
HETATM    2  N1  UNK     1      30.376  -5.086  37.647  1.00  0.00    -0.362 N 
HETATM    3  C1  UNK     1      27.664  -7.281  39.101  1.00  0.00     0.008 C 
HETATM    4  C2  UNK     1      28.247  -8.631  38.663  1.00  0.00     0.164 C 
HETATM    5  C3  UNK     1      28.792  -6.238  39.129  1.00  0.00     0.063 C 
HETATM    6  C4  UNK     1      29.669  -7.251  36.997  1.00  0.00     0.025 C 
HETATM    7  C5  UNK     1      29.625  -6.225  37.872  1.00  0.00     0.020 C 
HETATM    8  C6  UNK     1      30.479  -7.157  35.706  1.00  0.00     0.104 C 
HETATM    9  C7  UNK     1      28.951  -8.527  37.319  1.00  0.00     0.172 C 
HETATM   10  C8  UNK     1      31.401  -5.934  35.689  1.00  0.00     0.052 C 
HETATM   11  C9  UNK     1      26.496  -6.807  38.223  1.00  0.00     0.011 C 
HETATM   12  C10 UNK     1      31.295  -4.955  36.617  1.00  0.00     0.018 C 
HETATM   13  C14 UNK     1      32.110  -3.691  36.650  1.00  0.00     0.069 C 
HETATM   14  H9  UNK     1      30.322  -4.339  38.330  1.00  0.00     0.165 HD
ENDROOT
BRANCH   8  15
HETATM   15  C11 UNK     1      29.564  -7.135  34.507  1.00  0.00     0.029 A 
HETATM   16  C15 UNK     1      29.754  -8.164  33.454  1.00  0.00     0.194 A 
HETATM   17  O7  UNK     1      30.622  -9.023  33.530  1.00  0.00    -0.287 OA
HETATM   18  C17 UNK     1      28.835  -8.097  32.302  1.00  0.00     0.048 A 
HETATM   19  C18 UNK     1      27.863  -7.096  32.268  1.00  0.00     0.089 A 
HETATM   20  C20 UNK     1      28.931  -9.020  31.258  1.00  0.00     0.018 A 
HETATM   21  O4  UNK     1      27.723  -6.164  33.264  1.00  0.00    -0.321 OA
HETATM   22  C23 UNK     1      26.983  -7.013  31.188  1.00  0.00     0.038 A 
HETATM   23  C16 UNK     1      28.586  -6.239  34.330  1.00  0.00     0.154 A 
HETATM   24  C26 UNK     1      27.077  -7.934  30.145  1.00  0.00     0.003 A 
HETATM   25  C25 UNK     1      28.049  -8.935  30.180  1.00  0.00     0.001 A 
ENDBRANCH   8  15
BRANCH  10  26
HETATM   26  C13 UNK     1      32.444  -5.906  34.650  1.00  0.00     0.292 C 
HETATM   27  O6  UNK     1      32.307  -5.344  33.579  1.00  0.00    -0.259 OA
BRANCH  26  28
HETATM   28  O3  UNK     1      33.520  -6.590  35.106  1.00  0.00    -0.313 OA
BRANCH  28  29
HETATM   29  C19 UNK     1      34.744  -5.849  35.134  1.00  0.00     0.127 C 
HETATM   30  C24 UNK     1      35.766  -6.553  34.251  1.00  0.00     0.040 C 
BRANCH  29  31
HETATM   31  C22 UNK     1      35.237  -5.749  36.579  1.00  0.00     0.027 C 
HETATM   32  C27 UNK     1      34.476  -6.682  37.513  1.00  0.00     0.007 C 
ENDBRANCH  29  31
ENDBRANCH  28  29
ENDBRANCH  26  28
ENDBRANCH  10  26
BRANCH   4  33
HETATM   33  C12 UNK     1      27.201  -9.703  38.715  1.00  0.00     0.270 C 
HETATM   34  O5  UNK     1      26.551 -10.074  37.748  1.00  0.00    -0.264 OA
BRANCH  33  35
HETATM   35  O2  UNK     1      27.101 -10.180  39.989  1.00  0.00    -0.326 OA
HETATM   36  C21 UNK     1      28.343 -10.498  40.626  1.00  0.00     0.213 C 
ENDBRANCH  33  35
ENDBRANCH   4  33
TORSDOF 7
ENDMDL
MODEL 2
REMARK VINA RESULT:      -8.3      2.297      3.383
REMARK  7 active torsions:
REMARK  status: ('A' for Active; 'I' for Inactive)
REMARK    1  A    between atoms: C12_20  and  O2_2 
REMARK    2  A    between atoms: C13_21  and  O3_3 
REMARK    3  A    between atoms: C19_27  and  O3_3 
REMARK    4  A    between atoms: C12_20  and  C2_10 
REMARK    5  A    between atoms: C11_19  and  C6_14 
REMARK    6  A    between atoms: C13_21  and  C8_16 
REMARK    7  A    between atoms: C19_27  and  C22_30 
ROOT
HETATM    1  O1  UNK     1      29.274  -7.945  36.637  1.00  0.00    -0.292 OA
HETATM    2  N1  UNK     1      33.636  -6.099  36.621  1.00  0.00    -0.362 N 
HETATM    3  C1  UNK     1      30.562  -5.202  38.630  1.00  0.00     0.008 C 
HETATM    4  C2  UNK     1      29.848  -6.555  38.513  1.00  0.00     0.164 C 
HETATM    5  C3  UNK     1      32.064  -5.408  38.377  1.00  0.00     0.063 C 
HETATM    6  C4  UNK     1      31.449  -7.003  36.528  1.00  0.00     0.025 C 
HETATM    7  C5  UNK     1      32.356  -6.207  37.132  1.00  0.00     0.020 C 
HETATM    8  C6  UNK     1      31.780  -7.738  35.231  1.00  0.00     0.104 C 
HETATM    9  C7  UNK     1      30.108  -7.210  37.165  1.00  0.00     0.172 C 
HETATM   10  C8  UNK     1      33.273  -7.680  34.897  1.00  0.00     0.052 C 
HETATM   11  C9  UNK     1      29.988  -4.126  37.695  1.00  0.00     0.011 C 
HETATM   12  C10 UNK     1      34.117  -6.859  35.567  1.00  0.00     0.018 C 
HETATM   13  C14 UNK     1      35.582  -6.687  35.274  1.00  0.00     0.069 C 
HETATM   14  H9  UNK     1      34.291  -5.497  37.107  1.00  0.00     0.165 HD
ENDROOT
BRANCH   8  15
HETATM   15  C11 UNK     1      30.969  -7.184  34.086  1.00  0.00     0.029 A 
HETATM   16  C15 UNK     1      30.064  -8.102  33.351  1.00  0.00     0.194 A 
HETATM   17  O7  UNK     1      29.955  -9.285  33.645  1.00  0.00    -0.287 OA
HETATM   18  C17 UNK     1      29.295  -7.511  32.239  1.00  0.00     0.048 A 
HETATM   19  C18 UNK     1      29.458  -6.156  31.948  1.00  0.00     0.089 A 
HETATM   20  C20 UNK     1      28.416  -8.291  31.485  1.00  0.00     0.018 A 
HETATM   21  O4  UNK     1      30.308  -5.342  32.655  1.00  0.00    -0.321 OA
HETATM   22  C23 UNK     1      28.742  -5.575  30.901  1.00  0.00     0.038 A 
HETATM   23  C16 UNK     1      31.016  -5.907  33.687  1.00  0.00     0.154 A 
HETATM   24  C26 UNK     1      27.863  -6.352  30.147  1.00  0.00     0.003 A 
HETATM   25  C25 UNK     1      27.701  -7.707  30.439  1.00  0.00     0.001 A 
ENDBRANCH   8  15
BRANCH  10  26
HETATM   26  C13 UNK     1      33.756  -8.601  33.855  1.00  0.00     0.292 C 
HETATM   27  O6  UNK     1      33.892  -9.798  34.031  1.00  0.00    -0.259 OA
BRANCH  26  28
HETATM   28  O3  UNK     1      33.998  -7.886  32.731  1.00  0.00    -0.313 OA
BRANCH  28  29
HETATM   29  C19 UNK     1      33.527  -8.483  31.519  1.00  0.00     0.127 C 
HETATM   30  C24 UNK     1      34.725  -8.974  30.715  1.00  0.00     0.040 C 
BRANCH  29  31
HETATM   31  C22 UNK     1      32.720  -7.448  30.732  1.00  0.00     0.027 C 
HETATM   32  C27 UNK     1      31.811  -8.093  29.694  1.00  0.00     0.007 C 
ENDBRANCH  29  31
ENDBRANCH  28  29
ENDBRANCH  26  28
ENDBRANCH  10  26
BRANCH   4  33
HETATM   33  C12 UNK     1      28.394  -6.420  38.848  1.00  0.00     0.270 C 
HETATM   34  O5  UNK     1      27.614  -5.702  38.237  1.00  0.00    -0.264 OA
BRANCH  33  35
HETATM   35  O2  UNK     1      28.098  -7.209  39.920  1.00  0.00    -0.326 OA
HETATM   36  C21 UNK     1      27.546  -8.492  39.604  1.00  0.00     0.213 C 
ENDBRANCH  33  35
ENDBRANCH   4  33
TORSDOF 7
ENDMDL
MODEL 3
REMARK VINA RESULT:      -8.2      2.633      3.990
REMARK  7 active torsions:
REMARK  status: ('A' for Active; 'I' for Inactive)
REMARK    1  A    between atoms: C12_20  and  O2_2 
REMARK    2  A    between atoms: C13_21  and  O3_3 
REMARK    3  A    between atoms: C19_27  and  O3_3 
REMARK    4  A    between atoms: C12_20  and  C2_10 
REMARK    5  A    between atoms: C11_19  and  C6_14 
REMARK    6  A    between atoms: C13_21  and  C8_16 
REMARK    7  A    between atoms: C19_27  and  C22_30 
ROOT
HETATM    1  O1  UNK     1      30.730 -10.177  35.743  1.00  0.00    -0.292 OA
HETATM    2  N1  UNK     1      34.377  -7.158  35.595  1.00  0.00    -0.362 N 
HETATM    3  C1  UNK     1      31.982  -8.033  38.386  1.00  0.00     0.008 C 
HETATM    4  C2  UNK     1      31.567  -9.415  37.863  1.00  0.00     0.164 C 
HETATM    5  C3  UNK     1      33.335  -7.652  37.763  1.00  0.00     0.063 C 
HETATM    6  C4  UNK     1      32.511  -8.618  35.589  1.00  0.00     0.025 C 
HETATM    7  C5  UNK     1      33.377  -7.836  36.267  1.00  0.00     0.020 C 
HETATM    8  C6  UNK     1      32.560  -8.715  34.065  1.00  0.00     0.104 C 
HETATM    9  C7  UNK     1      31.517  -9.446  36.344  1.00  0.00     0.172 C 
HETATM   10  C8  UNK     1      33.824  -8.075  33.484  1.00  0.00     0.052 C 
HETATM   11  C9  UNK     1      30.931  -6.942  38.131  1.00  0.00     0.011 C 
HETATM   12  C10 UNK     1      34.645  -7.313  34.244  1.00  0.00     0.018 C 
HETATM   13  C14 UNK     1      35.872  -6.596  33.753  1.00  0.00     0.069 C 
HETATM   14  H9  UNK     1      35.011  -6.586  36.140  1.00  0.00     0.165 HD
ENDROOT
BRANCH   8  15
HETATM   15  C11 UNK     1      31.331  -8.087  33.455  1.00  0.00     0.029 A 
HETATM   16  C15 UNK     1      30.519  -8.896  32.511  1.00  0.00     0.194 A 
HETATM   17  O7  UNK     1      30.813 -10.046  32.216  1.00  0.00    -0.287 OA
HETATM   18  C17 UNK     1      29.330  -8.234  31.941  1.00  0.00     0.048 A 
HETATM   19  C18 UNK     1      29.042  -6.920  32.313  1.00  0.00     0.089 A 
HETATM   20  C20 UNK     1      28.500  -8.910  31.043  1.00  0.00     0.018 A 
HETATM   21  O4  UNK     1      29.821  -6.210  33.191  1.00  0.00    -0.321 OA
HETATM   22  C23 UNK     1      27.922  -6.275  31.786  1.00  0.00     0.038 A 
HETATM   23  C16 UNK     1      30.924  -6.839  33.712  1.00  0.00     0.154 A 
HETATM   24  C26 UNK     1      27.092  -6.947  30.890  1.00  0.00     0.003 A 
HETATM   25  C25 UNK     1      27.381  -8.262  30.519  1.00  0.00     0.001 A 
ENDBRANCH   8  15
BRANCH  10  26
HETATM   26  C13 UNK     1      34.131  -8.377  32.076  1.00  0.00     0.292 C 
HETATM   27  O6  UNK     1      34.640  -9.421  31.711  1.00  0.00    -0.259 OA
BRANCH  26  28
HETATM   28  O3  UNK     1      33.753  -7.319  31.320  1.00  0.00    -0.313 OA
BRANCH  28  29
HETATM   29  C19 UNK     1      33.286  -7.647  30.007  1.00  0.00     0.127 C 
HETATM   30  C24 UNK     1      34.374  -7.304  28.998  1.00  0.00     0.040 C 
BRANCH  29  31
HETATM   31  C22 UNK     1      32.001  -6.867  29.723  1.00  0.00     0.027 C 
HETATM   32  C27 UNK     1      31.097  -7.585  28.730  1.00  0.00     0.007 C 
ENDBRANCH  29  31
ENDBRANCH  28  29
ENDBRANCH  26  28
ENDBRANCH  10  26
BRANCH   4  33
HETATM   33  C12 UNK     1      30.299  -9.872  38.519  1.00  0.00     0.270 C 
HETATM   34  O5  UNK     1      30.255 -10.678  39.438  1.00  0.00    -0.264 OA
BRANCH  33  35
HETATM   35  O2  UNK     1      29.235  -9.253  37.933  1.00  0.00    -0.326 OA
HETATM   36  C21 UNK     1      27.966  -9.499  38.547  1.00  0.00     0.213 C 
ENDBRANCH  33  35
ENDBRANCH   4  33
TORSDOF 7
ENDMDL
MODEL 4
REMARK VINA RESULT:      -8.0      1.451      2.002
REMARK  7 active torsions:
REMARK  status: ('A' for Active; 'I' for Inactive)
REMARK    1  A    between atoms: C12_20  and  O2_2 
REMARK    2  A    between atoms: C13_21  and  O3_3 
REMARK    3  A    between atoms: C19_27  and  O3_3 
REMARK    4  A    between atoms: C12_20  and  C2_10 
REMARK    5  A    between atoms: C11_19  and  C6_14 
REMARK    6  A    between atoms: C13_21  and  C8_16 
REMARK    7  A    between atoms: C19_27  and  C22_30 
ROOT
HETATM    1  O1  UNK     1      29.391  -9.031  36.423  1.00  0.00    -0.292 OA
HETATM    2  N1  UNK     1      32.501  -5.462  36.554  1.00  0.00    -0.362 N 
HETATM    3  C1  UNK     1      29.557  -6.280  38.780  1.00  0.00     0.008 C 
HETATM    4  C2  UNK     1      29.491  -7.783  38.475  1.00  0.00     0.164 C 
HETATM    5  C3  UNK     1      30.967  -5.767  38.448  1.00  0.00     0.063 C 
HETATM    6  C4  UNK     1      30.922  -7.220  36.392  1.00  0.00     0.025 C 
HETATM    7  C5  UNK     1      31.451  -6.189  37.084  1.00  0.00     0.020 C 
HETATM    8  C6  UNK     1      31.407  -7.561  34.985  1.00  0.00     0.104 C 
HETATM    9  C7  UNK     1      29.873  -8.078  37.033  1.00  0.00     0.172 C 
HETATM   10  C8  UNK     1      32.688  -6.807  34.615  1.00  0.00     0.052 C 
HETATM   11  C9  UNK     1      28.485  -5.460  38.046  1.00  0.00     0.011 C 
HETATM   12  C10 UNK     1      33.155  -5.790  35.377  1.00  0.00     0.018 C 
HETATM   13  C14 UNK     1      34.365  -4.952  35.067  1.00  0.00     0.069 C 
HETATM   14  H9  UNK     1      32.875  -4.699  37.107  1.00  0.00     0.165 HD
ENDROOT
BRANCH   8  15
HETATM   15  C11 UNK     1      30.328  -7.282  33.969  1.00  0.00     0.029 A 
HETATM   16  C15 UNK     1      29.949  -8.363  33.025  1.00  0.00     0.194 A 
HETATM   17  O7  UNK     1      30.481  -9.465  33.047  1.00  0.00    -0.287 OA
HETATM   18  C17 UNK     1      28.889  -8.038  32.051  1.00  0.00     0.048 A 
HETATM   19  C18 UNK     1      28.317  -6.765  32.072  1.00  0.00     0.089 A 
HETATM   20  C20 UNK     1      28.461  -8.987  31.119  1.00  0.00     0.018 A 
HETATM   21  O4  UNK     1      28.699  -5.795  32.964  1.00  0.00    -0.321 OA
HETATM   22  C23 UNK     1      27.314  -6.435  31.160  1.00  0.00     0.038 A 
HETATM   23  C16 UNK     1      29.686  -6.112  33.863  1.00  0.00     0.154 A 
HETATM   24  C26 UNK     1      26.884  -7.381  30.229  1.00  0.00     0.003 A 
HETATM   25  C25 UNK     1      27.457  -8.654  30.210  1.00  0.00     0.001 A 
ENDBRANCH   8  15
BRANCH  10  26
HETATM   26  C13 UNK     1      33.415  -7.279  33.425  1.00  0.00     0.292 C 
HETATM   27  O6  UNK     1      33.183  -6.882  32.298  1.00  0.00    -0.259 OA
BRANCH  26  28
HETATM   28  O3  UNK     1      34.338  -8.188  33.820  1.00  0.00    -0.313 OA
BRANCH  28  29
HETATM   29  C19 UNK     1      35.417  -8.395  32.903  1.00  0.00     0.127 C 
HETATM   30  C24 UNK     1      35.948  -9.812  33.082  1.00  0.00     0.040 C 
BRANCH  29  31
HETATM   31  C22 UNK     1      36.508  -7.357  33.170  1.00  0.00     0.027 C 
HETATM   32  C27 UNK     1      37.060  -7.451  34.586  1.00  0.00     0.007 C 
ENDBRANCH  29  31
ENDBRANCH  28  29
ENDBRANCH  26  28
ENDBRANCH  10  26
BRANCH   4  33
HETATM   33  C12 UNK     1      28.162  -8.348  38.875  1.00  0.00     0.270 C 
HETATM   34  O5  UNK     1      27.090  -7.801  38.655  1.00  0.00    -0.264 OA
BRANCH  33  35
HETATM   35  O2  UNK     1      28.347  -9.541  39.509  1.00  0.00    -0.326 OA
HETATM   36  C21 UNK     1      27.152 -10.197  39.945  1.00  0.00     0.213 C 
ENDBRANCH  33  35
ENDBRANCH   4  33
TORSDOF 7
ENDMDL
MODEL 5
REMARK VINA RESULT:      -7.8      2.210      6.205
REMARK  7 active torsions:
REMARK  status: ('A' for Active; 'I' for Inactive)
REMARK    1  A    between atoms: C12_20  and  O2_2 
REMARK    2  A    between atoms: C13_21  and  O3_3 
REMARK    3  A    between atoms: C19_27  and  O3_3 
REMARK    4  A    between atoms: C12_20  and  C2_10 
REMARK    5  A    between atoms: C11_19  and  C6_14 
REMARK    6  A    between atoms: C13_21  and  C8_16 
REMARK    7  A    between atoms: C19_27  and  C22_30 
ROOT
HETATM    1  O1  UNK     1      30.196  -9.202  31.901  1.00  0.00    -0.292 OA
HETATM    2  N1  UNK     1      28.272  -6.332  35.141  1.00  0.00    -0.362 N 
HETATM    3  C1  UNK     1      27.857  -6.479  31.386  1.00  0.00     0.008 C 
HETATM    4  C2  UNK     1      28.271  -7.945  31.199  1.00  0.00     0.164 C 
HETATM    5  C3  UNK     1      27.410  -6.270  32.842  1.00  0.00     0.063 C 
HETATM    6  C4  UNK     1      29.328  -7.738  33.554  1.00  0.00     0.025 C 
HETATM    7  C5  UNK     1      28.387  -6.818  33.851  1.00  0.00     0.020 C 
HETATM    8  C6  UNK     1      30.334  -8.208  34.601  1.00  0.00     0.104 C 
HETATM    9  C7  UNK     1      29.356  -8.349  32.186  1.00  0.00     0.172 C 
HETATM   10  C8  UNK     1      29.965  -7.738  36.011  1.00  0.00     0.052 C 
HETATM   11  C9  UNK     1      28.957  -5.479  30.998  1.00  0.00     0.011 C 
HETATM   12  C10 UNK     1      28.995  -6.817  36.219  1.00  0.00     0.018 C 
HETATM   13  C14 UNK     1      28.603  -6.249  37.555  1.00  0.00     0.069 C 
HETATM   14  H9  UNK     1      27.549  -5.646  35.326  1.00  0.00     0.165 HD
ENDROOT
BRANCH   8  15
HETATM   15  C11 UNK     1      31.725  -7.744  34.246  1.00  0.00     0.029 A 
HETATM   16  C15 UNK     1      32.803  -8.759  34.136  1.00  0.00     0.194 A 
HETATM   17  O7  UNK     1      32.599  -9.951  34.323  1.00  0.00    -0.287 OA
HETATM   18  C17 UNK     1      34.144  -8.252  33.788  1.00  0.00     0.048 A 
HETATM   19  C18 UNK     1      34.320  -6.882  33.586  1.00  0.00     0.089 A 
HETATM   20  C20 UNK     1      35.226  -9.126  33.661  1.00  0.00     0.018 A 
HETATM   21  O4  UNK     1      33.293  -5.978  33.698  1.00  0.00    -0.321 OA
HETATM   22  C23 UNK     1      35.579  -6.380  33.257  1.00  0.00     0.038 A 
HETATM   23  C16 UNK     1      32.051  -6.465  34.023  1.00  0.00     0.154 A 
HETATM   24  C26 UNK     1      36.661  -7.251  33.128  1.00  0.00     0.003 A 
HETATM   25  C25 UNK     1      36.484  -8.622  33.330  1.00  0.00     0.001 A 
ENDBRANCH   8  15
BRANCH  10  26
HETATM   26  C13 UNK     1      30.676  -8.379  37.130  1.00  0.00     0.292 C 
HETATM   27  O6  UNK     1      30.763  -9.586  37.264  1.00  0.00    -0.259 OA
BRANCH  26  28
HETATM   28  O3  UNK     1      31.181  -7.408  37.928  1.00  0.00    -0.313 OA
BRANCH  28  29
HETATM   29  C19 UNK     1      32.312  -6.712  37.395  1.00  0.00     0.127 C 
HETATM   30  C24 UNK     1      33.573  -7.504  37.718  1.00  0.00     0.040 C 
BRANCH  29  31
HETATM   31  C22 UNK     1      32.369  -5.309  38.004  1.00  0.00     0.027 C 
HETATM   32  C27 UNK     1      31.749  -4.260  37.091  1.00  0.00     0.007 C 
ENDBRANCH  29  31
ENDBRANCH  28  29
ENDBRANCH  26  28
ENDBRANCH  10  26
BRANCH   4  33
HETATM   33  C12 UNK     1      28.623  -8.219  29.769  1.00  0.00     0.270 C 
HETATM   34  O5  UNK     1      29.537  -7.669  29.170  1.00  0.00    -0.264 OA
BRANCH  33  35
HETATM   35  O2  UNK     1      27.773  -9.158  29.263  1.00  0.00    -0.326 OA
HETATM   36  C21 UNK     1      28.359 -10.083  28.340  1.00  0.00     0.213 C 
ENDBRANCH  33  35
ENDBRANCH   4  33
TORSDOF 7
ENDMDL
MODEL 6
REMARK VINA RESULT:      -7.8      1.564      2.515
REMARK  7 active torsions:
REMARK  status: ('A' for Active; 'I' for Inactive)
REMARK    1  A    between atoms: C12_20  and  O2_2 
REMARK    2  A    between atoms: C13_21  and  O3_3 
REMARK    3  A    between atoms: C19_27  and  O3_3 
REMARK    4  A    between atoms: C12_20  and  C2_10 
REMARK    5  A    between atoms: C11_19  and  C6_14 
REMARK    6  A    between atoms: C13_21  and  C8_16 
REMARK    7  A    between atoms: C19_27  and  C22_30 
ROOT
HETATM    1  O1  UNK     1      28.288  -9.277  36.683  1.00  0.00    -0.292 OA
HETATM    2  N1  UNK     1      31.596  -5.961  37.386  1.00  0.00    -0.362 N 
HETATM    3  C1  UNK     1      28.271  -6.558  39.083  1.00  0.00     0.008 C 
HETATM    4  C2  UNK     1      28.143  -8.050  38.745  1.00  0.00     0.164 C 
HETATM    5  C3  UNK     1      29.752  -6.155  38.997  1.00  0.00     0.063 C 
HETATM    6  C4  UNK     1      29.936  -7.590  36.936  1.00  0.00     0.025 C 
HETATM    7  C5  UNK     1      30.421  -6.607  37.723  1.00  0.00     0.020 C 
HETATM    8  C6  UNK     1      30.620  -7.961  35.622  1.00  0.00     0.104 C 
HETATM    9  C7  UNK     1      28.734  -8.367  37.380  1.00  0.00     0.172 C 
HETATM   10  C8  UNK     1      31.998  -7.307  35.481  1.00  0.00     0.052 C 
HETATM   11  C9  UNK     1      27.400  -5.654  38.198  1.00  0.00     0.011 C 
HETATM   12  C10 UNK     1      32.409  -6.333  36.327  1.00  0.00     0.018 C 
HETATM   13  C14 UNK     1      33.713  -5.590  36.234  1.00  0.00     0.069 C 
HETATM   14  H9  UNK     1      31.931  -5.232  38.006  1.00  0.00     0.165 HD
ENDROOT
BRANCH   8  15
HETATM   15  C11 UNK     1      29.747  -7.594  34.448  1.00  0.00     0.029 A 
HETATM   16  C15 UNK     1      29.510  -8.615  33.397  1.00  0.00     0.194 A 
HETATM   17  O7  UNK     1      29.995  -9.737  33.455  1.00  0.00    -0.287 OA
HETATM   18  C17 UNK     1      28.651  -8.205  32.269  1.00  0.00     0.048 A 
HETATM   19  C18 UNK     1      28.123  -6.913  32.255  1.00  0.00     0.089 A 
HETATM   20  C20 UNK     1      28.366  -9.093  31.229  1.00  0.00     0.018 A 
HETATM   21  O4  UNK     1      28.369  -6.000  33.249  1.00  0.00    -0.321 OA
HETATM   22  C23 UNK     1      27.309  -6.503  31.199  1.00  0.00     0.038 A 
HETATM   23  C16 UNK     1      29.170  -6.397  34.291  1.00  0.00     0.154 A 
HETATM   24  C26 UNK     1      27.023  -7.388  30.160  1.00  0.00     0.003 A 
HETATM   25  C25 UNK     1      27.551  -8.680  30.175  1.00  0.00     0.001 A 
ENDBRANCH   8  15
BRANCH  10  26
HETATM   26  C13 UNK     1      32.873  -7.828  34.418  1.00  0.00     0.292 C 
HETATM   27  O6  UNK     1      33.552  -8.831  34.542  1.00  0.00    -0.259 OA
BRANCH  26  28
HETATM   28  O3  UNK     1      32.772  -7.013  33.342  1.00  0.00    -0.313 OA
BRANCH  28  29
HETATM   29  C19 UNK     1      33.089  -7.622  32.086  1.00  0.00     0.127 C 
HETATM   30  C24 UNK     1      34.492  -7.197  31.674  1.00  0.00     0.040 C 
BRANCH  29  31
HETATM   31  C22 UNK     1      32.052  -7.194  31.046  1.00  0.00     0.027 C 
HETATM   32  C27 UNK     1      31.681  -8.329  30.100  1.00  0.00     0.007 C 
ENDBRANCH  29  31
ENDBRANCH  28  29
ENDBRANCH  26  28
ENDBRANCH  10  26
BRANCH   4  33
HETATM   33  C12 UNK     1      26.727  -8.512  38.912  1.00  0.00     0.270 C 
HETATM   34  O5  UNK     1      26.352  -9.265  39.799  1.00  0.00    -0.264 OA
BRANCH  33  35
HETATM   35  O2  UNK     1      25.952  -7.965  37.932  1.00  0.00    -0.326 OA
HETATM   36  C21 UNK     1      24.751  -8.682  37.627  1.00  0.00     0.213 C 
ENDBRANCH  33  35
ENDBRANCH   4  33
TORSDOF 7
ENDMDL
MODEL 7
REMARK VINA RESULT:      -7.7      3.233      5.877
REMARK  7 active torsions:
REMARK  status: ('A' for Active; 'I' for Inactive)
REMARK    1  A    between atoms: C12_20  and  O2_2 
REMARK    2  A    between atoms: C13_21  and  O3_3 
REMARK    3  A    between atoms: C19_27  and  O3_3 
REMARK    4  A    between atoms: C12_20  and  C2_10 
REMARK    5  A    between atoms: C11_19  and  C6_14 
REMARK    6  A    between atoms: C13_21  and  C8_16 
REMARK    7  A    between atoms: C19_27  and  C22_30 
ROOT
HETATM    1  O1  UNK     1      31.302  -6.914  36.011  1.00  0.00    -0.292 OA
HETATM    2  N1  UNK     1      35.388  -8.454  34.177  1.00  0.00    -0.362 N 
HETATM    3  C1  UNK     1      34.536  -5.273  36.032  1.00  0.00     0.008 C 
HETATM    4  C2  UNK     1      33.294  -5.798  36.765  1.00  0.00     0.164 C 
HETATM    5  C3  UNK     1      35.412  -6.467  35.619  1.00  0.00     0.063 C 
HETATM    6  C4  UNK     1      33.302  -7.694  35.001  1.00  0.00     0.025 C 
HETATM    7  C5  UNK     1      34.642  -7.559  34.920  1.00  0.00     0.020 C 
HETATM    8  C6  UNK     1      32.568  -8.780  34.218  1.00  0.00     0.104 C 
HETATM    9  C7  UNK     1      32.523  -6.795  35.913  1.00  0.00     0.172 C 
HETATM   10  C8  UNK     1      33.528  -9.802  33.605  1.00  0.00     0.052 C 
HETATM   11  C9  UNK     1      34.202  -4.388  34.822  1.00  0.00     0.011 C 
HETATM   12  C10 UNK     1      34.865  -9.590  33.579  1.00  0.00     0.018 C 
HETATM   13  C14 UNK     1      35.882 -10.502  32.949  1.00  0.00     0.069 C 
HETATM   14  H9  UNK     1      36.393  -8.323  34.146  1.00  0.00     0.165 HD
ENDROOT
BRANCH   8  15
HETATM   15  C11 UNK     1      31.705  -8.167  33.143  1.00  0.00     0.029 A 
HETATM   16  C15 UNK     1      30.264  -8.522  33.104  1.00  0.00     0.194 A 
HETATM   17  O7  UNK     1      29.759  -9.290  33.912  1.00  0.00    -0.287 OA
HETATM   18  C17 UNK     1      29.466  -7.897  32.032  1.00  0.00     0.048 A 
HETATM   19  C18 UNK     1      30.094  -7.029  31.138  1.00  0.00     0.089 A 
HETATM   20  C20 UNK     1      28.101  -8.167  31.909  1.00  0.00     0.018 A 
HETATM   21  O4  UNK     1      31.431  -6.728  31.211  1.00  0.00    -0.321 OA
HETATM   22  C23 UNK     1      29.359  -6.427  30.116  1.00  0.00     0.038 A 
HETATM   23  C16 UNK     1      32.160  -7.318  32.214  1.00  0.00     0.154 A 
HETATM   24  C26 UNK     1      27.997  -6.694  29.992  1.00  0.00     0.003 A 
HETATM   25  C25 UNK     1      27.369  -7.562  30.887  1.00  0.00     0.001 A 
ENDBRANCH   8  15
BRANCH  10  26
HETATM   26  C13 UNK     1      32.934 -11.050  33.099  1.00  0.00     0.292 C 
HETATM   27  O6  UNK     1      32.498 -11.926  33.824  1.00  0.00    -0.259 OA
BRANCH  26  28
HETATM   28  O3  UNK     1      32.969 -11.023  31.746  1.00  0.00    -0.313 OA
BRANCH  28  29
HETATM   29  C19 UNK     1      31.723 -11.308  31.100  1.00  0.00     0.127 C 
HETATM   30  C24 UNK     1      31.774 -12.722  30.538  1.00  0.00     0.040 C 
BRANCH  29  31
HETATM   31  C22 UNK     1      31.486 -10.280  29.992  1.00  0.00     0.027 C 
HETATM   32  C27 UNK     1      30.103 -10.411  29.370  1.00  0.00     0.007 C 
ENDBRANCH  29  31
ENDBRANCH  28  29
ENDBRANCH  26  28
ENDBRANCH  10  26
BRANCH   4  33
HETATM   33  C12 UNK     1      32.457  -4.664  37.273  1.00  0.00     0.270 C 
HETATM   34  O5  UNK     1      32.241  -3.637  36.644  1.00  0.00    -0.264 OA
BRANCH  33  35
HETATM   35  O2  UNK     1      31.993  -4.963  38.519  1.00  0.00    -0.326 OA
HETATM   36  C21 UNK     1      30.587  -4.774  38.713  1.00  0.00     0.213 C 
ENDBRANCH  33  35
ENDBRANCH   4  33
TORSDOF 7
ENDMDL
MODEL 8
REMARK VINA RESULT:      -7.6      2.692      3.724
REMARK  7 active torsions:
REMARK  status: ('A' for Active; 'I' for Inactive)
REMARK    1  A    between atoms: C12_20  and  O2_2 
REMARK    2  A    between atoms: C13_21  and  O3_3 
REMARK    3  A    between atoms: C19_27  and  O3_3 
REMARK    4  A    between atoms: C12_20  and  C2_10 
REMARK    5  A    between atoms: C11_19  and  C6_14 
REMARK    6  A    between atoms: C13_21  and  C8_16 
REMARK    7  A    between atoms: C19_27  and  C22_30 
ROOT
HETATM    1  O1  UNK     1      30.809 -10.128  35.629  1.00  0.00    -0.292 OA
HETATM    2  N1  UNK     1      34.361  -7.000  35.437  1.00  0.00    -0.362 N 
HETATM    3  C1  UNK     1      32.081  -8.006  38.280  1.00  0.00     0.008 C 
HETATM    4  C2  UNK     1      31.690  -9.388  37.740  1.00  0.00     0.164 C 
HETATM    5  C3  UNK     1      33.402  -7.572  37.625  1.00  0.00     0.063 C 
HETATM    6  C4  UNK     1      32.539  -8.514  35.455  1.00  0.00     0.025 C 
HETATM    7  C5  UNK     1      33.402  -7.722  36.125  1.00  0.00     0.020 C 
HETATM    8  C6  UNK     1      32.542  -8.576  33.930  1.00  0.00     0.104 C 
HETATM    9  C7  UNK     1      31.593  -9.388  36.222  1.00  0.00     0.172 C 
HETATM   10  C8  UNK     1      33.768  -7.887  33.324  1.00  0.00     0.052 C 
HETATM   11  C9  UNK     1      30.991  -6.942  38.083  1.00  0.00     0.011 C 
HETATM   12  C10 UNK     1      34.591  -7.118  34.076  1.00  0.00     0.018 C 
HETATM   13  C14 UNK     1      35.780  -6.354  33.563  1.00  0.00     0.069 C 
HETATM   14  H9  UNK     1      34.995  -6.422  35.976  1.00  0.00     0.165 HD
ENDROOT
BRANCH   8  15
HETATM   15  C11 UNK     1      31.277  -7.972  33.372  1.00  0.00     0.029 A 
HETATM   16  C15 UNK     1      30.480  -8.768  32.405  1.00  0.00     0.194 A 
HETATM   17  O7  UNK     1      30.815  -9.890  32.050  1.00  0.00    -0.287 OA
HETATM   18  C17 UNK     1      29.254  -8.130  31.888  1.00  0.00     0.048 A 
HETATM   19  C18 UNK     1      28.920  -6.848  32.328  1.00  0.00     0.089 A 
HETATM   20  C20 UNK     1      28.435  -8.796  30.974  1.00  0.00     0.018 A 
HETATM   21  O4  UNK     1      29.687  -6.148  33.224  1.00  0.00    -0.321 OA
HETATM   22  C23 UNK     1      27.765  -6.226  31.853  1.00  0.00     0.038 A 
HETATM   23  C16 UNK     1      30.825  -6.754  33.695  1.00  0.00     0.154 A 
HETATM   24  C26 UNK     1      26.946  -6.889  30.940  1.00  0.00     0.003 A 
HETATM   25  C25 UNK     1      27.280  -8.171  30.501  1.00  0.00     0.001 A 
ENDBRANCH   8  15
BRANCH  10  26
HETATM   26  C13 UNK     1      34.040  -8.148  31.901  1.00  0.00     0.292 C 
HETATM   27  O6  UNK     1      34.009  -7.284  31.044  1.00  0.00    -0.259 OA
BRANCH  26  28
HETATM   28  O3  UNK     1      34.314  -9.466  31.753  1.00  0.00    -0.313 OA
BRANCH  28  29
HETATM   29  C19 UNK     1      35.590  -9.880  32.253  1.00  0.00     0.127 C 
HETATM   30  C24 UNK     1      36.609  -9.802  31.123  1.00  0.00     0.040 C 
BRANCH  29  31
HETATM   31  C22 UNK     1      35.476 -11.305  32.798  1.00  0.00     0.027 C 
HETATM   32  C27 UNK     1      34.047 -11.830  32.746  1.00  0.00     0.007 C 
ENDBRANCH  29  31
ENDBRANCH  28  29
ENDBRANCH  26  28
ENDBRANCH  10  26
BRANCH   4  33
HETATM   33  C12 UNK     1      30.457  -9.896  38.424  1.00  0.00     0.270 C 
HETATM   34  O5  UNK     1      30.465 -10.719  39.328  1.00  0.00    -0.264 OA
BRANCH  33  35
HETATM   35  O2  UNK     1      29.357  -9.302  37.879  1.00  0.00    -0.326 OA
HETATM   36  C21 UNK     1      28.161  -9.390  38.661  1.00  0.00     0.213 C 
ENDBRANCH  33  35
ENDBRANCH   4  33
TORSDOF 7
ENDMDL
MODEL 9
REMARK VINA RESULT:      -7.6      2.153      6.724
REMARK  7 active torsions:
REMARK  status: ('A' for Active; 'I' for Inactive)
REMARK    1  A    between atoms: C12_20  and  O2_2 
REMARK    2  A    between atoms: C13_21  and  O3_3 
REMARK    3  A    between atoms: C19_27  and  O3_3 
REMARK    4  A    between atoms: C12_20  and  C2_10 
REMARK    5  A    between atoms: C11_19  and  C6_14 
REMARK    6  A    between atoms: C13_21  and  C8_16 
REMARK    7  A    between atoms: C19_27  and  C22_30 
ROOT
HETATM    1  O1  UNK     1      30.244  -9.236  31.824  1.00  0.00    -0.292 OA
HETATM    2  N1  UNK     1      28.368  -6.270  35.005  1.00  0.00    -0.362 N 
HETATM    3  C1  UNK     1      28.002  -6.445  31.246  1.00  0.00     0.008 C 
HETATM    4  C2  UNK     1      28.371  -7.925  31.081  1.00  0.00     0.164 C 
HETATM    5  C3  UNK     1      27.541  -6.206  32.693  1.00  0.00     0.063 C 
HETATM    6  C4  UNK     1      29.400  -7.727  33.448  1.00  0.00     0.025 C 
HETATM    7  C5  UNK     1      28.485  -6.773  33.722  1.00  0.00     0.020 C 
HETATM    8  C6  UNK     1      30.376  -8.218  34.515  1.00  0.00     0.104 C 
HETATM    9  C7  UNK     1      29.428  -8.354  32.087  1.00  0.00     0.172 C 
HETATM   10  C8  UNK     1      30.002  -7.721  35.915  1.00  0.00     0.052 C 
HETATM   11  C9  UNK     1      29.140  -5.485  30.864  1.00  0.00     0.011 C 
HETATM   12  C10 UNK     1      29.060  -6.767  36.099  1.00  0.00     0.018 C 
HETATM   13  C14 UNK     1      28.666  -6.172  37.423  1.00  0.00     0.069 C 
HETATM   14  H9  UNK     1      27.665  -5.560  35.172  1.00  0.00     0.165 HD
ENDROOT
BRANCH   8  15
HETATM   15  C11 UNK     1      31.786  -7.803  34.176  1.00  0.00     0.029 A 
HETATM   16  C15 UNK     1      32.818  -8.859  34.030  1.00  0.00     0.194 A 
HETATM   17  O7  UNK     1      32.562 -10.047  34.175  1.00  0.00    -0.287 OA
HETATM   18  C17 UNK     1      34.181  -8.400  33.699  1.00  0.00     0.048 A 
HETATM   19  C18 UNK     1      34.416  -7.033  33.545  1.00  0.00     0.089 A 
HETATM   20  C20 UNK     1      35.224  -9.316  33.541  1.00  0.00     0.018 A 
HETATM   21  O4  UNK     1      33.430  -6.089  33.689  1.00  0.00    -0.321 OA
HETATM   22  C23 UNK     1      35.697  -6.575  33.233  1.00  0.00     0.038 A 
HETATM   23  C16 UNK     1      32.168  -6.533  33.997  1.00  0.00     0.154 A 
HETATM   24  C26 UNK     1      36.739  -7.488  33.073  1.00  0.00     0.003 A 
HETATM   25  C25 UNK     1      36.503  -8.855  33.227  1.00  0.00     0.001 A 
ENDBRANCH   8  15
BRANCH  10  26
HETATM   26  C13 UNK     1      30.675  -8.372  37.051  1.00  0.00     0.292 C 
HETATM   27  O6  UNK     1      31.689  -7.939  37.565  1.00  0.00    -0.259 OA
BRANCH  26  28
HETATM   28  O3  UNK     1      29.974  -9.482  37.384  1.00  0.00    -0.313 OA
BRANCH  28  29
HETATM   29  C19 UNK     1      29.492  -9.514  38.731  1.00  0.00     0.127 C 
HETATM   30  C24 UNK     1      30.236 -10.604  39.493  1.00  0.00     0.040 C 
BRANCH  29  31
HETATM   31  C22 UNK     1      27.985  -9.778  38.718  1.00  0.00     0.027 C 
HETATM   32  C27 UNK     1      27.221  -8.804  39.605  1.00  0.00     0.007 C 
ENDBRANCH  29  31
ENDBRANCH  28  29
ENDBRANCH  26  28
ENDBRANCH  10  26
BRANCH   4  33
HETATM   33  C12 UNK     1      28.735  -8.226  29.658  1.00  0.00     0.270 C 
HETATM   34  O5  UNK     1      29.651  -7.684  29.056  1.00  0.00    -0.264 OA
BRANCH  33  35
HETATM   35  O2  UNK     1      27.892  -9.178  29.165  1.00  0.00    -0.326 OA
HETATM   36  C21 UNK     1      28.501 -10.158  28.317  1.00  0.00     0.213 C 
ENDBRANCH  33  35
ENDBRANCH   4  33
TORSDOF 7
ENDMDL
MODEL 10
REMARK VINA RESULT:      -7.5      2.984      7.052
REMARK  7 active torsions:
REMARK  status: ('A' for Active; 'I' for Inactive)
REMARK    1  A    between atoms: C12_20  and  O2_2 
REMARK    2  A    between atoms: C13_21  and  O3_3 
REMARK    3  A    between atoms: C19_27  and  O3_3 
REMARK    4  A    between atoms: C12_20  and  C2_10 
REMARK    5  A    between atoms: C11_19  and  C6_14 
REMARK    6  A    between atoms: C13_21  and  C8_16 
REMARK    7  A    between atoms: C19_27  and  C22_30 
ROOT
HETATM    1  O1  UNK     1      30.018 -10.275  34.464  1.00  0.00    -0.292 OA
HETATM    2  N1  UNK     1      31.785  -8.098  30.647  1.00  0.00    -0.362 N 
HETATM    3  C1  UNK     1      32.951 -11.165  32.525  1.00  0.00     0.008 C 
HETATM    4  C2  UNK     1      31.603 -11.529  33.163  1.00  0.00     0.164 C 
HETATM    5  C3  UNK     1      32.695 -10.287  31.289  1.00  0.00     0.063 C 
HETATM    6  C4  UNK     1      30.909  -9.098  32.608  1.00  0.00     0.025 C 
HETATM    7  C5  UNK     1      31.755  -9.139  31.557  1.00  0.00     0.020 C 
HETATM    8  C6  UNK     1      30.027  -7.879  32.866  1.00  0.00     0.104 C 
HETATM    9  C7  UNK     1      30.796 -10.289  33.511  1.00  0.00     0.172 C 
HETATM   10  C8  UNK     1      30.024  -6.904  31.685  1.00  0.00     0.052 C 
HETATM   11  C9  UNK     1      33.921 -10.478  33.498  1.00  0.00     0.011 C 
HETATM   12  C10 UNK     1      30.903  -7.029  30.663  1.00  0.00     0.018 C 
HETATM   13  C14 UNK     1      31.020  -6.092  29.493  1.00  0.00     0.069 C 
HETATM   14  H9  UNK     1      32.429  -8.168  29.868  1.00  0.00     0.165 HD
ENDROOT
BRANCH   8  15
HETATM   15  C11 UNK     1      30.459  -7.169  34.125  1.00  0.00     0.029 A 
HETATM   16  C15 UNK     1      29.441  -6.905  35.173  1.00  0.00     0.194 A 
HETATM   17  O7  UNK     1      28.272  -7.244  35.048  1.00  0.00    -0.287 OA
HETATM   18  C17 UNK     1      29.915  -6.206  36.383  1.00  0.00     0.048 A 
HETATM   19  C18 UNK     1      31.259  -5.843  36.472  1.00  0.00     0.089 A 
HETATM   20  C20 UNK     1      29.035  -5.911  37.427  1.00  0.00     0.018 A 
HETATM   21  O4  UNK     1      32.167  -6.107  35.478  1.00  0.00    -0.321 OA
HETATM   22  C23 UNK     1      31.730  -5.181  37.607  1.00  0.00     0.038 A 
HETATM   23  C16 UNK     1      31.711  -6.757  34.358  1.00  0.00     0.154 A 
HETATM   24  C26 UNK     1      30.854  -4.885  38.651  1.00  0.00     0.003 A 
HETATM   25  C25 UNK     1      29.509  -5.250  38.561  1.00  0.00     0.001 A 
ENDBRANCH   8  15
BRANCH  10  26
HETATM   26  C13 UNK     1      28.983  -5.863  31.687  1.00  0.00     0.292 C 
HETATM   27  O6  UNK     1      29.229  -4.671  31.715  1.00  0.00    -0.259 OA
BRANCH  26  28
HETATM   28  O3  UNK     1      27.772  -6.469  31.653  1.00  0.00    -0.313 OA
BRANCH  28  29
HETATM   29  C19 UNK     1      27.381  -6.971  30.371  1.00  0.00     0.127 C 
HETATM   30  C24 UNK     1      26.020  -6.391  30.010  1.00  0.00     0.040 C 
BRANCH  29  31
HETATM   31  C22 UNK     1      27.334  -8.500  30.425  1.00  0.00     0.027 C 
HETATM   32  C27 UNK     1      28.177  -9.142  29.331  1.00  0.00     0.007 C 
ENDBRANCH  29  31
ENDBRANCH  28  29
ENDBRANCH  26  28
ENDBRANCH  10  26
BRANCH   4  33
HETATM   33  C12 UNK     1      31.798 -12.466  34.316  1.00  0.00     0.270 C 
HETATM   34  O5  UNK     1      31.712 -12.135  35.491  1.00  0.00    -0.264 OA
BRANCH  33  35
HETATM   35  O2  UNK     1      32.081 -13.715  33.846  1.00  0.00    -0.326 OA
HETATM   36  C21 UNK     1      31.085 -14.289  32.992  1.00  0.00     0.213 C 
ENDBRANCH  33  35
ENDBRANCH   4  33
TORSDOF 7
ENDMDL
