MODEL 1
REMARK VINA RESULT:      -8.9      0.000      0.000
REMARK  3 active torsions:
REMARK  status: ('A' for Active; 'I' for Inactive)
REMARK    1  A    between atoms: C5_10  and  S1_1 
REMARK    2  A    between atoms: C5_10  and  N1_5 
REMARK    3  A    between atoms: C9_14  and  N1_5 
ROOT
HETATM    1  O1  UNK     1      19.309   1.645  29.527  1.00  0.00    -0.274 OA
HETATM    2  O2  UNK     1      18.841   0.385  33.405  1.00  0.00    -0.286 OA
HETATM    3  O3  UNK     1      18.512   3.727  30.016  1.00  0.00    -0.259 OA
HETATM    4  C1  UNK     1      19.509  -0.125  31.213  1.00  0.00     0.049 A 
HETATM    5  C2  UNK     1      18.633   2.136  31.793  1.00  0.00     0.124 A 
HETATM    6  C3  UNK     1      19.654   0.335  29.911  1.00  0.00     0.093 A 
HETATM    7  C4  UNK     1      18.979   0.769  32.251  1.00  0.00     0.203 A 
HETATM    8  C5  UNK     1      18.143   3.000  32.694  1.00  0.00     0.088 C 
HETATM    9  C6  UNK     1      19.870  -1.439  31.524  1.00  0.00     0.018 A 
HETATM   10  C7  UNK     1      18.798   2.598  30.399  1.00  0.00     0.305 A 
HETATM   11  C8  UNK     1      20.155  -0.495  28.907  1.00  0.00     0.038 A 
HETATM   12  C10 UNK     1      20.373  -2.276  30.525  1.00  0.00     0.001 A 
HETATM   13  C11 UNK     1      20.514  -1.805  29.219  1.00  0.00     0.003 A 
ENDROOT
BRANCH   8  14
HETATM   14  S1  UNK     1      18.087   2.395  34.361  1.00  0.00    -0.124 SA
HETATM   15  H11 UNK     1      16.945   1.699  34.276  1.00  0.00     0.108 HD
ENDBRANCH   8  14
BRANCH   8  16
HETATM   16  N1  UNK     1      17.767   4.313  32.444  1.00  0.00    -0.350 N 
HETATM   17  H3  UNK     1      16.984   4.421  31.806  1.00  0.00     0.166 HD
BRANCH  16  18
HETATM   18  C9  UNK     1      18.235   5.533  32.968  1.00  0.00     0.032 A 
HETATM   19  C12 UNK     1      17.359   6.391  33.636  1.00  0.00     0.029 A 
HETATM   20  C14 UNK     1      17.823   7.599  34.155  1.00  0.00     0.002 A 
HETATM   21  C16 UNK     1      19.166   7.951  34.008  1.00  0.00     0.000 A 
HETATM   22  C15 UNK     1      20.042   7.095  33.343  1.00  0.00     0.002 A 
HETATM   23  C13 UNK     1      19.578   5.887  32.824  1.00  0.00     0.029 A 
ENDBRANCH  16  18
ENDBRANCH   8  16
TORSDOF 3
ENDMDL
MODEL 2
REMARK VINA RESULT:      -8.4      1.342      2.346
REMARK  3 active torsions:
REMARK  status: ('A' for Active; 'I' for Inactive)
REMARK    1  A    between atoms: C5_10  and  S1_1 
REMARK    2  A    between atoms: C5_10  and  N1_5 
REMARK    3  A    between atoms: C9_14  and  N1_5 
ROOT
HETATM    1  O1  UNK     1      18.806   0.312  32.826  1.00  0.00    -0.274 OA
HETATM    2  O2  UNK     1      19.404   2.159  29.210  1.00  0.00    -0.286 OA
HETATM    3  O3  UNK     1      17.904   2.198  33.740  1.00  0.00    -0.259 OA
HETATM    4  C1  UNK     1      19.599   0.212  30.507  1.00  0.00     0.049 A 
HETATM    5  C2  UNK     1      18.619   2.296  31.462  1.00  0.00     0.124 A 
HETATM    6  C3  UNK     1      19.382  -0.381  31.744  1.00  0.00     0.093 A 
HETATM    7  C4  UNK     1      19.221   1.615  30.291  1.00  0.00     0.203 A 
HETATM    8  C5  UNK     1      18.254   3.579  31.330  1.00  0.00     0.088 C 
HETATM    9  C6  UNK     1      20.176  -0.534  29.476  1.00  0.00     0.018 A 
HETATM   10  C7  UNK     1      18.401   1.639  32.768  1.00  0.00     0.305 A 
HETATM   11  C8  UNK     1      19.733  -1.712  31.973  1.00  0.00     0.038 A 
HETATM   12  C10 UNK     1      20.529  -1.868  29.698  1.00  0.00     0.001 A 
HETATM   13  C11 UNK     1      20.308  -2.455  30.944  1.00  0.00     0.003 A 
ENDROOT
BRANCH   8  14
HETATM   14  S1  UNK     1      18.448   4.250  29.698  1.00  0.00    -0.124 SA
HETATM   15  H11 UNK     1      17.339   5.003  29.666  1.00  0.00     0.108 HD
ENDBRANCH   8  14
BRANCH   8  16
HETATM   16  N1  UNK     1      17.678   4.370  32.315  1.00  0.00    -0.350 N 
HETATM   17  H3  UNK     1      16.867   3.964  32.772  1.00  0.00     0.166 HD
BRANCH  16  18
HETATM   18  C9  UNK     1      18.055   5.618  32.847  1.00  0.00     0.032 A 
HETATM   19  C12 UNK     1      17.078   6.546  33.217  1.00  0.00     0.029 A 
HETATM   20  C14 UNK     1      17.451   7.782  33.743  1.00  0.00     0.002 A 
HETATM   21  C16 UNK     1      18.802   8.093  33.901  1.00  0.00     0.000 A 
HETATM   22  C15 UNK     1      19.779   7.168  33.533  1.00  0.00     0.002 A 
HETATM   23  C13 UNK     1      19.406   5.932  33.007  1.00  0.00     0.029 A 
ENDBRANCH  16  18
ENDBRANCH   8  16
TORSDOF 3
ENDMDL
MODEL 3
REMARK VINA RESULT:      -7.7      7.444      9.445
REMARK  3 active torsions:
REMARK  status: ('A' for Active; 'I' for Inactive)
REMARK    1  A    between atoms: C5_10  and  S1_1 
REMARK    2  A    between atoms: C5_10  and  N1_5 
REMARK    3  A    between atoms: C9_14  and  N1_5 
ROOT
HETATM    1  O1  UNK     1      18.336  -7.646  36.679  1.00  0.00    -0.274 OA
HETATM    2  O2  UNK     1      21.690  -5.313  37.062  1.00  0.00    -0.286 OA
HETATM    3  O3  UNK     1      16.973  -5.820  36.548  1.00  0.00    -0.259 OA
HETATM    4  C1  UNK     1      20.767  -7.468  36.944  1.00  0.00     0.049 A 
HETATM    5  C2  UNK     1      19.319  -5.444  36.803  1.00  0.00     0.124 A 
HETATM    6  C3  UNK     1      19.611  -8.227  36.813  1.00  0.00     0.093 A 
HETATM    7  C4  UNK     1      20.685  -6.002  36.946  1.00  0.00     0.203 A 
HETATM    8  C5  UNK     1      19.176  -4.111  36.799  1.00  0.00     0.088 C 
HETATM    9  C6  UNK     1      22.002  -8.110  37.073  1.00  0.00     0.018 A 
HETATM   10  C7  UNK     1      18.105  -6.276  36.665  1.00  0.00     0.305 A 
HETATM   11  C8  UNK     1      19.664  -9.621  36.808  1.00  0.00     0.038 A 
HETATM   12  C10 UNK     1      22.063  -9.506  37.068  1.00  0.00     0.001 A 
HETATM   13  C11 UNK     1      20.896 -10.260  36.937  1.00  0.00     0.003 A 
ENDROOT
BRANCH   8  14
HETATM   14  S1  UNK     1      20.695  -3.194  36.854  1.00  0.00    -0.124 SA
HETATM   15  H11 UNK     1      21.389  -4.018  37.651  1.00  0.00     0.108 HD
ENDBRANCH   8  14
BRANCH   8  16
HETATM   16  N1  UNK     1      17.979  -3.418  36.675  1.00  0.00    -0.350 N 
HETATM   17  H3  UNK     1      17.152  -4.002  36.588  1.00  0.00     0.166 HD
BRANCH  16  18
HETATM   18  C9  UNK     1      17.691  -2.041  36.713  1.00  0.00     0.032 A 
HETATM   19  C12 UNK     1      17.096  -1.419  35.613  1.00  0.00     0.029 A 
HETATM   20  C14 UNK     1      16.811  -0.055  35.650  1.00  0.00     0.002 A 
HETATM   21  C16 UNK     1      17.120   0.691  36.788  1.00  0.00     0.000 A 
HETATM   22  C15 UNK     1      17.713   0.072  37.888  1.00  0.00     0.002 A 
HETATM   23  C13 UNK     1      17.998  -1.292  37.851  1.00  0.00     0.029 A 
ENDBRANCH  16  18
ENDBRANCH   8  16
TORSDOF 3
ENDMDL
MODEL 4
REMARK VINA RESULT:      -7.7     13.508     15.188
REMARK  3 active torsions:
REMARK  status: ('A' for Active; 'I' for Inactive)
REMARK    1  A    between atoms: C5_10  and  S1_1 
REMARK    2  A    between atoms: C5_10  and  N1_5 
REMARK    3  A    between atoms: C9_14  and  N1_5 
ROOT
HETATM    1  O1  UNK     1      28.148  -4.812  38.704  1.00  0.00    -0.274 OA
HETATM    2  O2  UNK     1      28.624  -8.879  38.435  1.00  0.00    -0.286 OA
HETATM    3  O3  UNK     1      25.880  -5.000  38.875  1.00  0.00    -0.259 OA
HETATM    4  C1  UNK     1      29.625  -6.756  38.476  1.00  0.00     0.049 A 
HETATM    5  C2  UNK     1      27.152  -7.011  38.660  1.00  0.00     0.124 A 
HETATM    6  C3  UNK     1      29.427  -5.385  38.569  1.00  0.00     0.093 A 
HETATM    7  C4  UNK     1      28.473  -7.667  38.517  1.00  0.00     0.203 A 
HETATM    8  C5  UNK     1      26.060  -7.788  38.704  1.00  0.00     0.088 C 
HETATM    9  C6  UNK     1      30.922  -7.258  38.342  1.00  0.00     0.018 A 
HETATM   10  C7  UNK     1      26.971  -5.547  38.758  1.00  0.00     0.305 A 
HETATM   11  C8  UNK     1      30.505  -4.500  38.532  1.00  0.00     0.038 A 
HETATM   12  C10 UNK     1      32.007  -6.378  38.305  1.00  0.00     0.001 A 
HETATM   13  C11 UNK     1      31.799  -5.001  38.399  1.00  0.00     0.003 A 
ENDROOT
BRANCH   8  14
HETATM   14  S1  UNK     1      26.381  -9.534  38.695  1.00  0.00    -0.124 SA
HETATM   15  H11 UNK     1      27.143  -9.585  37.594  1.00  0.00     0.108 HD
ENDBRANCH   8  14
BRANCH   8  16
HETATM   16  N1  UNK     1      24.749  -7.348  38.833  1.00  0.00    -0.350 N 
HETATM   17  H3  UNK     1      24.647  -6.361  39.051  1.00  0.00     0.166 HD
BRANCH  16  18
HETATM   18  C9  UNK     1      23.521  -8.013  38.654  1.00  0.00     0.032 A 
HETATM   19  C12 UNK     1      23.171  -8.512  37.398  1.00  0.00     0.029 A 
HETATM   20  C14 UNK     1      21.954  -9.170  37.221  1.00  0.00     0.002 A 
HETATM   21  C16 UNK     1      21.086  -9.331  38.301  1.00  0.00     0.000 A 
HETATM   22  C15 UNK     1      21.434  -8.834  39.556  1.00  0.00     0.002 A 
HETATM   23  C13 UNK     1      22.650  -8.176  39.734  1.00  0.00     0.029 A 
ENDBRANCH  16  18
ENDBRANCH   8  16
TORSDOF 3
ENDMDL
MODEL 5
REMARK VINA RESULT:      -7.5     23.784     25.379
REMARK  3 active torsions:
REMARK  status: ('A' for Active; 'I' for Inactive)
REMARK    1  A    between atoms: C5_10  and  S1_1 
REMARK    2  A    between atoms: C5_10  and  N1_5 
REMARK    3  A    between atoms: C9_14  and  N1_5 
ROOT
HETATM    1  O1  UNK     1       6.180   2.965  10.526  1.00  0.00    -0.274 OA
HETATM    2  O2  UNK     1       6.556   6.800  11.937  1.00  0.00    -0.286 OA
HETATM    3  O3  UNK     1       7.126   3.516   8.523  1.00  0.00    -0.259 OA
HETATM    4  C1  UNK     1       5.854   4.595  12.329  1.00  0.00     0.049 A 
HETATM    5  C2  UNK     1       6.892   5.243  10.157  1.00  0.00     0.124 A 
HETATM    6  C3  UNK     1       5.742   3.308  11.819  1.00  0.00     0.093 A 
HETATM    7  C4  UNK     1       6.448   5.659  11.509  1.00  0.00     0.203 A 
HETATM    8  C5  UNK     1       7.443   6.169   9.360  1.00  0.00     0.088 C 
HETATM    9  C6  UNK     1       5.397   4.867  13.622  1.00  0.00     0.018 A 
HETATM   10  C7  UNK     1       6.761   3.865   9.641  1.00  0.00     0.305 A 
HETATM   11  C8  UNK     1       5.181   2.281  12.579  1.00  0.00     0.038 A 
HETATM   12  C10 UNK     1       4.835   3.843  14.389  1.00  0.00     0.001 A 
HETATM   13  C11 UNK     1       4.726   2.553  13.868  1.00  0.00     0.003 A 
ENDROOT
BRANCH   8  14
HETATM   14  S1  UNK     1       7.665   7.765  10.103  1.00  0.00    -0.124 SA
HETATM   15  H11 UNK     1       6.389   7.998  10.443  1.00  0.00     0.108 HD
ENDBRANCH   8  14
BRANCH   8  16
HETATM   16  N1  UNK     1       7.913   5.960   8.069  1.00  0.00    -0.350 N 
HETATM   17  H3  UNK     1       7.197   5.743   7.382  1.00  0.00     0.166 HD
BRANCH  16  18
HETATM   18  C9  UNK     1       9.206   6.056   7.521  1.00  0.00     0.032 A 
HETATM   19  C12 UNK     1      10.325   5.796   8.314  1.00  0.00     0.029 A 
HETATM   20  C14 UNK     1      11.605   5.892   7.771  1.00  0.00     0.002 A 
HETATM   21  C16 UNK     1      11.769   6.247   6.432  1.00  0.00     0.000 A 
HETATM   22  C15 UNK     1      10.653   6.506   5.637  1.00  0.00     0.002 A 
HETATM   23  C13 UNK     1       9.373   6.411   6.180  1.00  0.00     0.029 A 
ENDBRANCH  16  18
ENDBRANCH   8  16
TORSDOF 3
ENDMDL
MODEL 6
REMARK VINA RESULT:      -7.4      3.860      8.705
REMARK  3 active torsions:
REMARK  status: ('A' for Active; 'I' for Inactive)
REMARK    1  A    between atoms: C5_10  and  S1_1 
REMARK    2  A    between atoms: C5_10  and  N1_5 
REMARK    3  A    between atoms: C9_14  and  N1_5 
ROOT
HETATM    1  O1  UNK     1      15.243   9.280  31.816  1.00  0.00    -0.274 OA
HETATM    2  O2  UNK     1      17.372   8.699  35.277  1.00  0.00    -0.286 OA
HETATM    3  O3  UNK     1      16.648   7.934  30.623  1.00  0.00    -0.259 OA
HETATM    4  C1  UNK     1      15.548   9.722  34.209  1.00  0.00     0.049 A 
HETATM    5  C2  UNK     1      17.108   8.243  32.947  1.00  0.00     0.124 A 
HETATM    6  C3  UNK     1      14.852   9.896  33.020  1.00  0.00     0.093 A 
HETATM    7  C4  UNK     1      16.742   8.866  34.241  1.00  0.00     0.203 A 
HETATM    8  C5  UNK     1      18.189   7.450  32.910  1.00  0.00     0.088 C 
HETATM    9  C6  UNK     1      15.105  10.365  35.368  1.00  0.00     0.018 A 
HETATM   10  C7  UNK     1      16.348   8.446  31.696  1.00  0.00     0.305 A 
HETATM   11  C8  UNK     1      13.716  10.704  32.965  1.00  0.00     0.038 A 
HETATM   12  C10 UNK     1      13.968  11.175  35.321  1.00  0.00     0.001 A 
HETATM   13  C11 UNK     1      13.275  11.345  34.121  1.00  0.00     0.003 A 
ENDROOT
BRANCH   8  14
HETATM   14  S1  UNK     1      18.971   7.173  34.479  1.00  0.00    -0.124 SA
HETATM   15  H11 UNK     1      18.208   7.988  35.221  1.00  0.00     0.108 HD
ENDBRANCH   8  14
BRANCH   8  16
HETATM   16  N1  UNK     1      18.678   6.788  31.791  1.00  0.00    -0.350 N 
HETATM   17  H3  UNK     1      19.220   7.364  31.154  1.00  0.00     0.166 HD
BRANCH  16  18
HETATM   18  C9  UNK     1      18.611   5.435  31.406  1.00  0.00     0.032 A 
HETATM   19  C12 UNK     1      18.147   4.473  32.305  1.00  0.00     0.029 A 
HETATM   20  C14 UNK     1      18.082   3.133  31.923  1.00  0.00     0.002 A 
HETATM   21  C16 UNK     1      18.480   2.753  30.641  1.00  0.00     0.000 A 
HETATM   22  C15 UNK     1      18.943   3.713  29.741  1.00  0.00     0.002 A 
HETATM   23  C13 UNK     1      19.008   5.053  30.123  1.00  0.00     0.029 A 
ENDBRANCH  16  18
ENDBRANCH   8  16
TORSDOF 3
ENDMDL
MODEL 7
REMARK VINA RESULT:      -7.3      1.543      6.919
REMARK  3 active torsions:
REMARK  status: ('A' for Active; 'I' for Inactive)
REMARK    1  A    between atoms: C5_10  and  S1_1 
REMARK    2  A    between atoms: C5_10  and  N1_5 
REMARK    3  A    between atoms: C9_14  and  N1_5 
ROOT
HETATM    1  O1  UNK     1      18.412   5.672  30.928  1.00  0.00    -0.274 OA
HETATM    2  O2  UNK     1      18.177   3.574  34.448  1.00  0.00    -0.286 OA
HETATM    3  O3  UNK     1      18.592   3.758  29.698  1.00  0.00    -0.259 OA
HETATM    4  C1  UNK     1      18.196   5.660  33.370  1.00  0.00     0.049 A 
HETATM    5  C2  UNK     1      18.388   3.543  32.068  1.00  0.00     0.124 A 
HETATM    6  C3  UNK     1      18.279   6.337  32.161  1.00  0.00     0.093 A 
HETATM    7  C4  UNK     1      18.247   4.192  33.393  1.00  0.00     0.203 A 
HETATM    8  C5  UNK     1      18.441   2.204  32.022  1.00  0.00     0.088 C 
HETATM    9  C6  UNK     1      18.065   6.384  34.559  1.00  0.00     0.018 A 
HETATM   10  C7  UNK     1      18.474   4.290  30.796  1.00  0.00     0.305 A 
HETATM   11  C8  UNK     1      18.233   7.731  32.114  1.00  0.00     0.038 A 
HETATM   12  C10 UNK     1      18.018   7.780  34.520  1.00  0.00     0.001 A 
HETATM   13  C11 UNK     1      18.103   8.452  33.300  1.00  0.00     0.003 A 
ENDROOT
BRANCH   8  14
HETATM   14  S1  UNK     1      18.215   1.389  33.582  1.00  0.00    -0.124 SA
HETATM   15  H11 UNK     1      19.500   1.346  33.964  1.00  0.00     0.108 HD
ENDBRANCH   8  14
BRANCH   8  16
HETATM   16  N1  UNK     1      18.571   1.432  30.875  1.00  0.00    -0.350 N 
HETATM   17  H3  UNK     1      18.057   1.772  30.068  1.00  0.00     0.166 HD
BRANCH  16  18
HETATM   18  C9  UNK     1      19.343   0.286  30.606  1.00  0.00     0.032 A 
HETATM   19  C12 UNK     1      20.037   0.177  29.399  1.00  0.00     0.029 A 
HETATM   20  C14 UNK     1      20.802  -0.959  29.132  1.00  0.00     0.002 A 
HETATM   21  C16 UNK     1      20.875  -1.987  30.073  1.00  0.00     0.000 A 
HETATM   22  C15 UNK     1      20.183  -1.879  31.279  1.00  0.00     0.002 A 
HETATM   23  C13 UNK     1      19.419  -0.744  31.546  1.00  0.00     0.029 A 
ENDBRANCH  16  18
ENDBRANCH   8  16
TORSDOF 3
ENDMDL
MODEL 8
REMARK VINA RESULT:      -7.1      7.965     10.327
REMARK  3 active torsions:
REMARK  status: ('A' for Active; 'I' for Inactive)
REMARK    1  A    between atoms: C5_10  and  S1_1 
REMARK    2  A    between atoms: C5_10  and  N1_5 
REMARK    3  A    between atoms: C9_14  and  N1_5 
ROOT
HETATM    1  O1  UNK     1      22.468  -7.210  37.166  1.00  0.00    -0.274 OA
HETATM    2  O2  UNK     1      18.702  -8.358  36.009  1.00  0.00    -0.286 OA
HETATM    3  O3  UNK     1      21.769  -5.092  37.649  1.00  0.00    -0.259 OA
HETATM    4  C1  UNK     1      20.954  -8.943  36.320  1.00  0.00     0.049 A 
HETATM    5  C2  UNK     1      20.144  -6.642  36.836  1.00  0.00     0.124 A 
HETATM    6  C3  UNK     1      22.215  -8.520  36.718  1.00  0.00     0.093 A 
HETATM    7  C4  UNK     1      19.822  -8.008  36.357  1.00  0.00     0.203 A 
HETATM    8  C5  UNK     1      19.154  -5.741  36.892  1.00  0.00     0.088 C 
HETATM    9  C6  UNK     1      20.773 -10.259  35.886  1.00  0.00     0.018 A 
HETATM   10  C7  UNK     1      21.498  -6.220  37.254  1.00  0.00     0.305 A 
HETATM   11  C8  UNK     1      23.306  -9.391  36.692  1.00  0.00     0.038 A 
HETATM   12  C10 UNK     1      21.860 -11.137  35.857  1.00  0.00     0.001 A 
HETATM   13  C11 UNK     1      23.124 -10.703  36.259  1.00  0.00     0.003 A 
ENDROOT
BRANCH   8  14
HETATM   14  S1  UNK     1      17.545  -6.367  36.482  1.00  0.00    -0.124 SA
HETATM   15  H11 UNK     1      17.631  -7.548  37.110  1.00  0.00     0.108 HD
ENDBRANCH   8  14
BRANCH   8  16
HETATM   16  N1  UNK     1      19.272  -4.423  37.312  1.00  0.00    -0.350 N 
HETATM   17  H3  UNK     1      19.593  -4.304  38.269  1.00  0.00     0.166 HD
BRANCH  16  18
HETATM   18  C9  UNK     1      19.088  -3.206  36.628  1.00  0.00     0.032 A 
HETATM   19  C12 UNK     1      19.959  -2.843  35.599  1.00  0.00     0.029 A 
HETATM   20  C14 UNK     1      19.777  -1.637  34.921  1.00  0.00     0.002 A 
HETATM   21  C16 UNK     1      18.722  -0.793  35.272  1.00  0.00     0.000 A 
HETATM   22  C15 UNK     1      17.851  -1.155  36.299  1.00  0.00     0.002 A 
HETATM   23  C13 UNK     1      18.034  -2.360  36.977  1.00  0.00     0.029 A 
ENDBRANCH  16  18
ENDBRANCH   8  16
TORSDOF 3
ENDMDL
MODEL 9
REMARK VINA RESULT:      -7.1     23.217     24.769
REMARK  3 active torsions:
REMARK  status: ('A' for Active; 'I' for Inactive)
REMARK    1  A    between atoms: C5_10  and  S1_1 
REMARK    2  A    between atoms: C5_10  and  N1_5 
REMARK    3  A    between atoms: C9_14  and  N1_5 
ROOT
HETATM    1  O1  UNK     1      13.439   9.961  10.153  1.00  0.00    -0.274 OA
HETATM    2  O2  UNK     1      15.981   6.807   9.500  1.00  0.00    -0.286 OA
HETATM    3  O3  UNK     1      11.595   8.639   9.908  1.00  0.00    -0.259 OA
HETATM    4  C1  UNK     1      15.724   9.094   9.958  1.00  0.00     0.049 A 
HETATM    5  C2  UNK     1      13.739   7.611   9.684  1.00  0.00     0.124 A 
HETATM    6  C3  UNK     1      14.835  10.139  10.174  1.00  0.00     0.093 A 
HETATM    7  C4  UNK     1      15.216   7.742   9.695  1.00  0.00     0.203 A 
HETATM    8  C5  UNK     1      13.213   6.401   9.448  1.00  0.00     0.088 C 
HETATM    9  C6  UNK     1      17.100   9.341   9.992  1.00  0.00     0.018 A 
HETATM   10  C7  UNK     1      12.816   8.741   9.917  1.00  0.00     0.305 A 
HETATM   11  C8  UNK     1      15.294  11.432  10.426  1.00  0.00     0.038 A 
HETATM   12  C10 UNK     1      17.567  10.634  10.244  1.00  0.00     0.001 A 
HETATM   13  C11 UNK     1      16.665  11.678  10.459  1.00  0.00     0.003 A 
ENDROOT
BRANCH   8  14
HETATM   14  S1  UNK     1      14.394   5.086   9.293  1.00  0.00    -0.124 SA
HETATM   15  H11 UNK     1      14.193   4.798   8.000  1.00  0.00     0.108 HD
ENDBRANCH   8  14
BRANCH   8  16
HETATM   16  N1  UNK     1      11.859   6.095   9.401  1.00  0.00    -0.350 N 
HETATM   17  H3  UNK     1      11.435   5.881  10.299  1.00  0.00     0.166 HD
BRANCH  16  18
HETATM   18  C9  UNK     1      10.941   6.089   8.333  1.00  0.00     0.032 A 
HETATM   19  C12 UNK     1      11.396   6.208   7.018  1.00  0.00     0.029 A 
HETATM   20  C14 UNK     1      10.487   6.202   5.961  1.00  0.00     0.002 A 
HETATM   21  C16 UNK     1       9.121   6.076   6.216  1.00  0.00     0.000 A 
HETATM   22  C15 UNK     1       8.665   5.956   7.529  1.00  0.00     0.002 A 
HETATM   23  C13 UNK     1       9.574   5.962   8.586  1.00  0.00     0.029 A 
ENDBRANCH  16  18
ENDBRANCH   8  16
TORSDOF 3
ENDMDL
MODEL 10
REMARK VINA RESULT:      -7.0      4.360      9.483
REMARK  3 active torsions:
REMARK  status: ('A' for Active; 'I' for Inactive)
REMARK    1  A    between atoms: C5_10  and  S1_1 
REMARK    2  A    between atoms: C5_10  and  N1_5 
REMARK    3  A    between atoms: C9_14  and  N1_5 
ROOT
HETATM    1  O1  UNK     1      18.912  10.661  34.227  1.00  0.00    -0.274 OA
HETATM    2  O2  UNK     1      14.999   9.601  33.589  1.00  0.00    -0.286 OA
HETATM    3  O3  UNK     1      19.634   8.518  33.922  1.00  0.00    -0.259 OA
HETATM    4  C1  UNK     1      16.548  11.297  34.073  1.00  0.00     0.049 A 
HETATM    5  C2  UNK     1      17.291   8.942  33.730  1.00  0.00     0.124 A 
HETATM    6  C3  UNK     1      17.882  11.620  34.284  1.00  0.00     0.093 A 
HETATM    7  C4  UNK     1      16.168   9.909  33.777  1.00  0.00     0.203 A 
HETATM    8  C5  UNK     1      17.009   7.658  33.465  1.00  0.00     0.088 C 
HETATM    9  C6  UNK     1      15.576  12.299  34.144  1.00  0.00     0.018 A 
HETATM   10  C7  UNK     1      18.703   9.314  33.959  1.00  0.00     0.305 A 
HETATM   11  C8  UNK     1      18.267  12.931  34.566  1.00  0.00     0.038 A 
HETATM   12  C10 UNK     1      15.955  13.614  34.426  1.00  0.00     0.001 A 
HETATM   13  C11 UNK     1      17.298  13.929  34.638  1.00  0.00     0.003 A 
ENDROOT
BRANCH   8  14
HETATM   14  S1  UNK     1      15.307   7.324  33.091  1.00  0.00    -0.124 SA
HETATM   15  H11 UNK     1      15.259   7.897  31.880  1.00  0.00     0.108 HD
ENDBRANCH   8  14
BRANCH   8  16
HETATM   16  N1  UNK     1      17.929   6.621  33.382  1.00  0.00    -0.350 N 
HETATM   17  H3  UNK     1      18.408   6.402  34.251  1.00  0.00     0.166 HD
BRANCH  16  18
HETATM   18  C9  UNK     1      18.277   5.766  32.319  1.00  0.00     0.032 A 
HETATM   19  C12 UNK     1      17.978   4.404  32.389  1.00  0.00     0.029 A 
HETATM   20  C14 UNK     1      18.323   3.557  31.336  1.00  0.00     0.002 A 
HETATM   21  C16 UNK     1      18.967   4.071  30.211  1.00  0.00     0.000 A 
HETATM   22  C15 UNK     1      19.266   5.431  30.139  1.00  0.00     0.002 A 
HETATM   23  C13 UNK     1      18.921   6.278  31.191  1.00  0.00     0.029 A 
ENDBRANCH  16  18
ENDBRANCH   8  16
TORSDOF 3
ENDMDL
