MODEL 1
REMARK VINA RESULT:      -8.0      0.000      0.000
REMARK  8 active torsions:
REMARK  status: ('A' for Active; 'I' for Inactive)
REMARK    1  A    between atoms: C1_5  and  S1_1 
REMARK    2  A    between atoms: C7_11  and  S1_1 
REMARK    3  A    between atoms: C23_27  and  O2_3 
REMARK    4  A    between atoms: C8_12  and  N1_4 
REMARK       I    between atoms: C9_13  and  N1_4 
REMARK    5  A    between atoms: C7_11  and  C8_12 
REMARK    6  A    between atoms: C10_14  and  C9_13 
REMARK    7  A    between atoms: C10_14  and  C11_15 
REMARK    8  A    between atoms: C12_16  and  C13_17 
ROOT
HETATM    1  C10 UNK     1      18.464   7.884  33.373  1.00  0.00     0.043 C 
HETATM    2  C12 UNK     1      19.339   6.936  32.980  1.00  0.00     0.029 C 
ENDROOT
BRANCH   1   3
HETATM    3  C9  UNK     1      19.059   9.108  34.021  1.00  0.00     0.252 C 
HETATM    4  O1  UNK     1      20.095   9.051  34.681  1.00  0.00    -0.268 OA
HETATM    5  N1  UNK     1      18.339  10.279  33.813  1.00  0.00    -0.356 N 
HETATM    6  H16 UNK     1      17.482  10.272  33.271  1.00  0.00     0.162 HD
BRANCH   5   7
HETATM    7  C8  UNK     1      18.747  11.544  34.359  1.00  0.00     0.133 C 
BRANCH   7   8
HETATM    8  C7  UNK     1      17.799  12.681  34.002  1.00  0.00     0.094 C 
BRANCH   8   9
HETATM    9  S1  UNK     1      16.820  13.225  35.417  1.00  0.00    -0.163 SA
BRANCH   9  10
HETATM   10  C1  UNK     1      15.173  12.753  34.788  1.00  0.00     0.047 C 
HETATM   11  C2  UNK     1      15.018  11.229  34.817  1.00  0.00     0.015 C 
HETATM   12  C4  UNK     1      13.669  10.803  34.239  1.00  0.00     0.001 C 
HETATM   13  C6  UNK     1      13.454  11.363  32.836  1.00  0.00     0.000 C 
HETATM   14  C5  UNK     1      13.621  12.880  32.802  1.00  0.00     0.001 C 
HETATM   15  C3  UNK     1      14.971  13.311  33.377  1.00  0.00     0.015 C 
ENDBRANCH   9  10
ENDBRANCH   8   9
ENDBRANCH   7   8
ENDBRANCH   5   7
ENDBRANCH   1   3
BRANCH   1  16
HETATM   16  C11 UNK     1      17.009   7.744  33.163  1.00  0.00    -0.021 A 
HETATM   17  C14 UNK     1      16.172   7.466  34.244  1.00  0.00     0.012 A 
HETATM   18  C18 UNK     1      14.798   7.334  34.046  1.00  0.00     0.001 A 
HETATM   19  C20 UNK     1      14.260   7.479  32.767  1.00  0.00     0.000 A 
HETATM   20  C19 UNK     1      15.097   7.755  31.686  1.00  0.00     0.001 A 
HETATM   21  C15 UNK     1      16.472   7.887  31.884  1.00  0.00     0.012 A 
ENDBRANCH   1  16
BRANCH   2  22
HETATM   22  C13 UNK     1      18.995   5.678  32.300  1.00  0.00    -0.035 A 
HETATM   23  C16 UNK     1      18.374   4.650  33.009  1.00  0.00     0.014 A 
HETATM   24  C21 UNK     1      18.048   3.456  32.364  1.00  0.00     0.037 A 
HETATM   25  C23 UNK     1      18.345   3.291  31.011  1.00  0.00     0.068 A 
HETATM   26  C22 UNK     1      18.967   4.319  30.303  1.00  0.00     0.037 A 
HETATM   27  C17 UNK     1      19.292   5.513  30.947  1.00  0.00     0.014 A 
BRANCH  25  28
HETATM   28  O2  UNK     1      18.027   2.126  30.382  1.00  0.00    -0.356 OA
HETATM   29  C24 UNK     1      18.027   2.140  28.955  1.00  0.00     0.210 C 
ENDBRANCH  25  28
ENDBRANCH   2  22
TORSDOF 8
ENDMDL
MODEL 2
REMARK VINA RESULT:      -7.6     11.933     16.508
REMARK  8 active torsions:
REMARK  status: ('A' for Active; 'I' for Inactive)
REMARK    1  A    between atoms: C1_5  and  S1_1 
REMARK    2  A    between atoms: C7_11  and  S1_1 
REMARK    3  A    between atoms: C23_27  and  O2_3 
REMARK    4  A    between atoms: C8_12  and  N1_4 
REMARK       I    between atoms: C9_13  and  N1_4 
REMARK    5  A    between atoms: C7_11  and  C8_12 
REMARK    6  A    between atoms: C10_14  and  C9_13 
REMARK    7  A    between atoms: C10_14  and  C11_15 
REMARK    8  A    between atoms: C12_16  and  C13_17 
ROOT
HETATM    1  C10 UNK     1      20.800  -4.891  37.368  1.00  0.00     0.043 C 
HETATM    2  C12 UNK     1      20.801  -3.545  37.276  1.00  0.00     0.029 C 
ENDROOT
BRANCH   1   3
HETATM    3  C9  UNK     1      21.849  -5.495  38.266  1.00  0.00     0.252 C 
HETATM    4  O1  UNK     1      23.031  -5.168  38.188  1.00  0.00    -0.268 OA
HETATM    5  N1  UNK     1      21.365  -6.440  39.163  1.00  0.00    -0.356 N 
HETATM    6  H16 UNK     1      20.381  -6.684  39.180  1.00  0.00     0.162 HD
BRANCH   5   7
HETATM    7  C8  UNK     1      22.217  -7.129  40.093  1.00  0.00     0.133 C 
BRANCH   7   8
HETATM    8  C7  UNK     1      22.072  -8.644  40.025  1.00  0.00     0.094 C 
BRANCH   8   9
HETATM    9  S1  UNK     1      20.525  -9.147  39.241  1.00  0.00    -0.163 SA
BRANCH   9  10
HETATM   10  C1  UNK     1      21.237 -10.036  37.815  1.00  0.00     0.047 C 
HETATM   11  C2  UNK     1      22.314  -9.176  37.146  1.00  0.00     0.015 C 
HETATM   12  C4  UNK     1      22.886  -9.873  35.912  1.00  0.00     0.001 C 
HETATM   13  C6  UNK     1      21.789 -10.265  34.926  1.00  0.00     0.000 C 
HETATM   14  C5  UNK     1      20.707 -11.110  35.593  1.00  0.00     0.001 C 
HETATM   15  C3  UNK     1      20.130 -10.415  36.827  1.00  0.00     0.015 C 
ENDBRANCH   9  10
ENDBRANCH   8   9
ENDBRANCH   7   8
ENDBRANCH   5   7
ENDBRANCH   1   3
BRANCH   1  16
HETATM   16  C11 UNK     1      19.816  -5.724  36.649  1.00  0.00    -0.021 A 
HETATM   17  C14 UNK     1      18.502  -5.808  37.111  1.00  0.00     0.012 A 
HETATM   18  C18 UNK     1      17.572  -6.595  36.431  1.00  0.00     0.001 A 
HETATM   19  C20 UNK     1      17.956  -7.299  35.290  1.00  0.00     0.000 A 
HETATM   20  C19 UNK     1      19.270  -7.216  34.828  1.00  0.00     0.001 A 
HETATM   21  C15 UNK     1      20.199  -6.429  35.508  1.00  0.00     0.012 A 
ENDBRANCH   1  16
BRANCH   2  22
HETATM   22  C13 UNK     1      19.857  -2.736  36.491  1.00  0.00    -0.035 A 
HETATM   23  C16 UNK     1      20.125  -2.457  35.151  1.00  0.00     0.014 A 
HETATM   24  C21 UNK     1      19.229  -1.689  34.405  1.00  0.00     0.037 A 
HETATM   25  C23 UNK     1      18.067  -1.200  35.001  1.00  0.00     0.068 A 
HETATM   26  C22 UNK     1      17.799  -1.478  36.341  1.00  0.00     0.037 A 
HETATM   27  C17 UNK     1      18.695  -2.247  37.086  1.00  0.00     0.014 A 
BRANCH  25  28
HETATM   28  O2  UNK     1      17.193  -0.450  34.274  1.00  0.00    -0.356 OA
HETATM   29  C24 UNK     1      16.134   0.185  34.989  1.00  0.00     0.210 C 
ENDBRANCH  25  28
ENDBRANCH   2  22
TORSDOF 8
ENDMDL
MODEL 3
REMARK VINA RESULT:      -7.5      4.262      9.307
REMARK  8 active torsions:
REMARK  status: ('A' for Active; 'I' for Inactive)
REMARK    1  A    between atoms: C1_5  and  S1_1 
REMARK    2  A    between atoms: C7_11  and  S1_1 
REMARK    3  A    between atoms: C23_27  and  O2_3 
REMARK    4  A    between atoms: C8_12  and  N1_4 
REMARK       I    between atoms: C9_13  and  N1_4 
REMARK    5  A    between atoms: C7_11  and  C8_12 
REMARK    6  A    between atoms: C10_14  and  C9_13 
REMARK    7  A    between atoms: C10_14  and  C11_15 
REMARK    8  A    between atoms: C12_16  and  C13_17 
ROOT
HETATM    1  C10 UNK     1      18.493   4.941  33.558  1.00  0.00     0.043 C 
HETATM    2  C12 UNK     1      18.027   5.855  34.434  1.00  0.00     0.029 C 
ENDROOT
BRANCH   1   3
HETATM    3  C9  UNK     1      18.374   3.498  33.980  1.00  0.00     0.252 C 
HETATM    4  O1  UNK     1      17.877   2.649  33.244  1.00  0.00    -0.268 OA
HETATM    5  N1  UNK     1      18.863   3.228  35.253  1.00  0.00    -0.356 N 
HETATM    6  H16 UNK     1      19.254   3.967  35.827  1.00  0.00     0.162 HD
BRANCH   5   7
HETATM    7  C8  UNK     1      18.828   1.912  35.830  1.00  0.00     0.133 C 
BRANCH   7   8
HETATM    8  C7  UNK     1      17.436   1.500  36.290  1.00  0.00     0.094 C 
BRANCH   8   9
HETATM    9  S1  UNK     1      16.890  -0.040  35.523  1.00  0.00    -0.163 SA
BRANCH   9  10
HETATM   10  C1  UNK     1      18.501  -0.583  34.862  1.00  0.00     0.047 C 
HETATM   11  C2  UNK     1      18.347  -1.027  33.404  1.00  0.00     0.015 C 
HETATM   12  C4  UNK     1      19.672  -1.544  32.843  1.00  0.00     0.001 C 
HETATM   13  C6  UNK     1      20.256  -2.656  33.709  1.00  0.00     0.000 C 
HETATM   14  C5  UNK     1      20.398  -2.222  35.165  1.00  0.00     0.001 C 
HETATM   15  C3  UNK     1      19.074  -1.706  35.731  1.00  0.00     0.015 C 
ENDBRANCH   9  10
ENDBRANCH   8   9
ENDBRANCH   7   8
ENDBRANCH   5   7
ENDBRANCH   1   3
BRANCH   1  16
HETATM   16  C11 UNK     1      19.066   5.326  32.254  1.00  0.00    -0.021 A 
HETATM   17  C14 UNK     1      20.439   5.545  32.131  1.00  0.00     0.012 A 
HETATM   18  C18 UNK     1      20.980   5.908  30.899  1.00  0.00     0.001 A 
HETATM   19  C20 UNK     1      20.150   6.055  29.788  1.00  0.00     0.000 A 
HETATM   20  C19 UNK     1      18.777   5.837  29.910  1.00  0.00     0.001 A 
HETATM   21  C15 UNK     1      18.236   5.474  31.143  1.00  0.00     0.012 A 
ENDBRANCH   1  16
BRANCH   2  22
HETATM   22  C13 UNK     1      18.008   7.311  34.228  1.00  0.00    -0.035 A 
HETATM   23  C16 UNK     1      16.846   7.936  33.777  1.00  0.00     0.014 A 
HETATM   24  C21 UNK     1      16.828   9.318  33.581  1.00  0.00     0.037 A 
HETATM   25  C23 UNK     1      17.972  10.073  33.836  1.00  0.00     0.068 A 
HETATM   26  C22 UNK     1      19.135   9.448  34.286  1.00  0.00     0.037 A 
HETATM   27  C17 UNK     1      19.153   8.066  34.483  1.00  0.00     0.014 A 
BRANCH  25  28
HETATM   28  O2  UNK     1      17.955  11.421  33.645  1.00  0.00    -0.356 OA
HETATM   29  C24 UNK     1      16.972  12.164  34.364  1.00  0.00     0.210 C 
ENDBRANCH  25  28
ENDBRANCH   2  22
TORSDOF 8
ENDMDL
MODEL 4
REMARK VINA RESULT:      -7.2     19.050     21.103
REMARK  8 active torsions:
REMARK  status: ('A' for Active; 'I' for Inactive)
REMARK    1  A    between atoms: C1_5  and  S1_1 
REMARK    2  A    between atoms: C7_11  and  S1_1 
REMARK    3  A    between atoms: C23_27  and  O2_3 
REMARK    4  A    between atoms: C8_12  and  N1_4 
REMARK       I    between atoms: C9_13  and  N1_4 
REMARK    5  A    between atoms: C7_11  and  C8_12 
REMARK    6  A    between atoms: C10_14  and  C9_13 
REMARK    7  A    between atoms: C10_14  and  C11_15 
REMARK    8  A    between atoms: C12_16  and  C13_17 
ROOT
HETATM    1  C10 UNK     1      30.717  -5.771  35.618  1.00  0.00     0.043 C 
HETATM    2  C12 UNK     1      29.819  -6.075  34.658  1.00  0.00     0.029 C 
ENDROOT
BRANCH   1   3
HETATM    3  C9  UNK     1      30.183  -5.698  37.026  1.00  0.00     0.252 C 
HETATM    4  O1  UNK     1      30.931  -5.588  37.995  1.00  0.00    -0.268 OA
HETATM    5  N1  UNK     1      28.798  -5.772  37.121  1.00  0.00    -0.356 N 
HETATM    6  H16 UNK     1      28.225  -5.875  36.292  1.00  0.00     0.162 HD
BRANCH   5   7
HETATM    7  C8  UNK     1      28.108  -5.727  38.382  1.00  0.00     0.133 C 
BRANCH   7   8
HETATM    8  C7  UNK     1      28.138  -7.057  39.125  1.00  0.00     0.094 C 
BRANCH   8   9
HETATM    9  S1  UNK     1      27.037  -8.280  38.382  1.00  0.00    -0.163 SA
BRANCH   9  10
HETATM   10  C1  UNK     1      28.303  -9.289  37.541  1.00  0.00     0.047 C 
HETATM   11  C2  UNK     1      29.686  -8.995  38.132  1.00  0.00     0.015 C 
HETATM   12  C4  UNK     1      30.774  -9.784  37.404  1.00  0.00     0.001 C 
HETATM   13  C6  UNK     1      30.742  -9.533  35.900  1.00  0.00     0.000 C 
HETATM   14  C5  UNK     1      29.363  -9.812  35.310  1.00  0.00     0.001 C 
HETATM   15  C3  UNK     1      28.270  -9.023  36.033  1.00  0.00     0.015 C 
ENDBRANCH   9  10
ENDBRANCH   8   9
ENDBRANCH   7   8
ENDBRANCH   5   7
ENDBRANCH   1   3
BRANCH   1  16
HETATM   16  C11 UNK     1      32.143  -5.543  35.312  1.00  0.00    -0.021 A 
HETATM   17  C14 UNK     1      32.600  -4.254  35.036  1.00  0.00     0.012 A 
HETATM   18  C18 UNK     1      33.947  -4.038  34.748  1.00  0.00     0.001 A 
HETATM   19  C20 UNK     1      34.838  -5.112  34.735  1.00  0.00     0.000 A 
HETATM   20  C19 UNK     1      34.381  -6.400  35.010  1.00  0.00     0.001 A 
HETATM   21  C15 UNK     1      33.034  -6.616  35.298  1.00  0.00     0.012 A 
ENDBRANCH   1  16
BRANCH   2  22
HETATM   22  C13 UNK     1      30.111  -6.233  33.226  1.00  0.00    -0.035 A 
HETATM   23  C16 UNK     1      29.848  -5.186  32.342  1.00  0.00     0.014 A 
HETATM   24  C21 UNK     1      30.125  -5.335  30.982  1.00  0.00     0.037 A 
HETATM   25  C23 UNK     1      30.664  -6.531  30.507  1.00  0.00     0.068 A 
HETATM   26  C22 UNK     1      30.927  -7.578  31.391  1.00  0.00     0.037 A 
HETATM   27  C17 UNK     1      30.650  -7.428  32.751  1.00  0.00     0.014 A 
BRANCH  25  28
HETATM   28  O2  UNK     1      30.935  -6.677  29.181  1.00  0.00    -0.356 OA
HETATM   29  C24 UNK     1      30.898  -8.002  28.654  1.00  0.00     0.210 C 
ENDBRANCH  25  28
ENDBRANCH   2  22
TORSDOF 8
ENDMDL
MODEL 5
REMARK VINA RESULT:      -7.2      4.229      7.624
REMARK  8 active torsions:
REMARK  status: ('A' for Active; 'I' for Inactive)
REMARK    1  A    between atoms: C1_5  and  S1_1 
REMARK    2  A    between atoms: C7_11  and  S1_1 
REMARK    3  A    between atoms: C23_27  and  O2_3 
REMARK    4  A    between atoms: C8_12  and  N1_4 
REMARK       I    between atoms: C9_13  and  N1_4 
REMARK    5  A    between atoms: C7_11  and  C8_12 
REMARK    6  A    between atoms: C10_14  and  C9_13 
REMARK    7  A    between atoms: C10_14  and  C11_15 
REMARK    8  A    between atoms: C12_16  and  C13_17 
ROOT
HETATM    1  C10 UNK     1      18.419   1.692  31.814  1.00  0.00     0.043 C 
HETATM    2  C12 UNK     1      17.844   2.164  32.939  1.00  0.00     0.029 C 
ENDROOT
BRANCH   1   3
HETATM    3  C9  UNK     1      18.295   2.564  30.591  1.00  0.00     0.252 C 
HETATM    4  O1  UNK     1      17.573   2.252  29.645  1.00  0.00    -0.268 OA
HETATM    5  N1  UNK     1      19.061   3.724  30.629  1.00  0.00    -0.356 N 
HETATM    6  H16 UNK     1      19.650   3.931  31.428  1.00  0.00     0.162 HD
BRANCH   5   7
HETATM    7  C8  UNK     1      19.078   4.674  29.551  1.00  0.00     0.133 C 
BRANCH   7   8
HETATM    8  C7  UNK     1      19.505   6.068  29.992  1.00  0.00     0.094 C 
BRANCH   8   9
HETATM    9  S1  UNK     1      20.180   6.078  31.666  1.00  0.00    -0.163 SA
BRANCH   9  10
HETATM   10  C1  UNK     1      18.829   6.993  32.483  1.00  0.00     0.047 C 
HETATM   11  C2  UNK     1      19.362   7.719  33.722  1.00  0.00     0.015 C 
HETATM   12  C4  UNK     1      18.238   8.446  34.459  1.00  0.00     0.001 C 
HETATM   13  C6  UNK     1      17.091   7.503  34.811  1.00  0.00     0.000 C 
HETATM   14  C5  UNK     1      16.567   6.769  33.580  1.00  0.00     0.001 C 
HETATM   15  C3  UNK     1      17.688   6.037  32.841  1.00  0.00     0.015 C 
ENDBRANCH   9  10
ENDBRANCH   8   9
ENDBRANCH   7   8
ENDBRANCH   5   7
ENDBRANCH   1   3
BRANCH   1  16
HETATM   16  C11 UNK     1      19.146   0.408  31.785  1.00  0.00    -0.021 A 
HETATM   17  C14 UNK     1      18.782  -0.620  32.654  1.00  0.00     0.012 A 
HETATM   18  C18 UNK     1      19.469  -1.834  32.626  1.00  0.00     0.001 A 
HETATM   19  C20 UNK     1      20.521  -2.019  31.729  1.00  0.00     0.000 A 
HETATM   20  C19 UNK     1      20.886  -0.991  30.861  1.00  0.00     0.001 A 
HETATM   21  C15 UNK     1      20.199   0.222  30.889  1.00  0.00     0.012 A 
ENDBRANCH   1  16
BRANCH   2  22
HETATM   22  C13 UNK     1      17.863   1.507  34.255  1.00  0.00    -0.035 A 
HETATM   23  C16 UNK     1      18.858   1.826  35.179  1.00  0.00     0.014 A 
HETATM   24  C21 UNK     1      18.876   1.202  36.427  1.00  0.00     0.037 A 
HETATM   25  C23 UNK     1      17.900   0.260  36.750  1.00  0.00     0.068 A 
HETATM   26  C22 UNK     1      16.905  -0.059  35.826  1.00  0.00     0.037 A 
HETATM   27  C17 UNK     1      16.887   0.565  34.578  1.00  0.00     0.014 A 
BRANCH  25  28
HETATM   28  O2  UNK     1      17.918  -0.348  37.968  1.00  0.00    -0.356 OA
HETATM   29  C24 UNK     1      18.357  -1.705  38.008  1.00  0.00     0.210 C 
ENDBRANCH  25  28
ENDBRANCH   2  22
TORSDOF 8
ENDMDL
MODEL 6
REMARK VINA RESULT:      -7.2     19.000     20.538
REMARK  8 active torsions:
REMARK  status: ('A' for Active; 'I' for Inactive)
REMARK    1  A    between atoms: C1_5  and  S1_1 
REMARK    2  A    between atoms: C7_11  and  S1_1 
REMARK    3  A    between atoms: C23_27  and  O2_3 
REMARK    4  A    between atoms: C8_12  and  N1_4 
REMARK       I    between atoms: C9_13  and  N1_4 
REMARK    5  A    between atoms: C7_11  and  C8_12 
REMARK    6  A    between atoms: C10_14  and  C9_13 
REMARK    7  A    between atoms: C10_14  and  C11_15 
REMARK    8  A    between atoms: C12_16  and  C13_17 
ROOT
HETATM    1  C10 UNK     1      30.823  -6.143  34.866  1.00  0.00     0.043 C 
HETATM    2  C12 UNK     1      31.164  -5.546  33.705  1.00  0.00     0.029 C 
ENDROOT
BRANCH   1   3
HETATM    3  C9  UNK     1      31.141  -5.375  36.124  1.00  0.00     0.252 C 
HETATM    4  O1  UNK     1      32.282  -5.324  36.579  1.00  0.00    -0.268 OA
HETATM    5  N1  UNK     1      30.045  -4.752  36.710  1.00  0.00    -0.356 N 
HETATM    6  H16 UNK     1      29.121  -4.834  36.302  1.00  0.00     0.162 HD
BRANCH   5   7
HETATM    7  C8  UNK     1      30.151  -3.981  37.919  1.00  0.00     0.133 C 
BRANCH   7   8
HETATM    8  C7  UNK     1      29.445  -4.630  39.103  1.00  0.00     0.094 C 
BRANCH   8   9
HETATM    9  S1  UNK     1      27.802  -5.239  38.667  1.00  0.00    -0.163 SA
BRANCH   9  10
HETATM   10  C1  UNK     1      28.025  -6.975  39.182  1.00  0.00     0.047 C 
HETATM   11  C2  UNK     1      29.134  -7.629  38.352  1.00  0.00     0.015 C 
HETATM   12  C4  UNK     1      29.302  -9.102  38.723  1.00  0.00     0.001 C 
HETATM   13  C6  UNK     1      27.987  -9.867  38.605  1.00  0.00     0.000 C 
HETATM   14  C5  UNK     1      26.877  -9.210  39.421  1.00  0.00     0.001 C 
HETATM   15  C3  UNK     1      26.704  -7.736  39.051  1.00  0.00     0.015 C 
ENDBRANCH   9  10
ENDBRANCH   8   9
ENDBRANCH   7   8
ENDBRANCH   5   7
ENDBRANCH   1   3
BRANCH   1  16
HETATM   16  C11 UNK     1      30.159  -7.460  34.903  1.00  0.00    -0.021 A 
HETATM   17  C14 UNK     1      30.915  -8.618  35.088  1.00  0.00     0.012 A 
HETATM   18  C18 UNK     1      30.287  -9.863  35.124  1.00  0.00     0.001 A 
HETATM   19  C20 UNK     1      28.903  -9.951  34.975  1.00  0.00     0.000 A 
HETATM   20  C19 UNK     1      28.147  -8.793  34.790  1.00  0.00     0.001 A 
HETATM   21  C15 UNK     1      28.775  -7.548  34.754  1.00  0.00     0.012 A 
ENDBRANCH   1  16
BRANCH   2  22
HETATM   22  C13 UNK     1      30.926  -6.086  32.358  1.00  0.00    -0.035 A 
HETATM   23  C16 UNK     1      31.819  -7.005  31.808  1.00  0.00     0.014 A 
HETATM   24  C21 UNK     1      31.593  -7.517  30.529  1.00  0.00     0.037 A 
HETATM   25  C23 UNK     1      30.475  -7.109  29.802  1.00  0.00     0.068 A 
HETATM   26  C22 UNK     1      29.583  -6.189  30.352  1.00  0.00     0.037 A 
HETATM   27  C17 UNK     1      29.808  -5.678  31.631  1.00  0.00     0.014 A 
BRANCH  25  28
HETATM   28  O2  UNK     1      30.254  -7.609  28.555  1.00  0.00    -0.356 OA
HETATM   29  C24 UNK     1      30.188  -9.028  28.428  1.00  0.00     0.210 C 
ENDBRANCH  25  28
ENDBRANCH   2  22
TORSDOF 8
ENDMDL
MODEL 7
REMARK VINA RESULT:      -7.2      2.240      3.596
REMARK  8 active torsions:
REMARK  status: ('A' for Active; 'I' for Inactive)
REMARK    1  A    between atoms: C1_5  and  S1_1 
REMARK    2  A    between atoms: C7_11  and  S1_1 
REMARK    3  A    between atoms: C23_27  and  O2_3 
REMARK    4  A    between atoms: C8_12  and  N1_4 
REMARK       I    between atoms: C9_13  and  N1_4 
REMARK    5  A    between atoms: C7_11  and  C8_12 
REMARK    6  A    between atoms: C10_14  and  C9_13 
REMARK    7  A    between atoms: C10_14  and  C11_15 
REMARK    8  A    between atoms: C12_16  and  C13_17 
ROOT
HETATM    1  C10 UNK     1      18.402   7.978  33.394  1.00  0.00     0.043 C 
HETATM    2  C12 UNK     1      19.295   7.044  33.008  1.00  0.00     0.029 C 
ENDROOT
BRANCH   1   3
HETATM    3  C9  UNK     1      18.975   9.226  34.016  1.00  0.00     0.252 C 
HETATM    4  O1  UNK     1      20.039   9.211  34.631  1.00  0.00    -0.268 OA
HETATM    5  N1  UNK     1      18.201  10.367  33.837  1.00  0.00    -0.356 N 
HETATM    6  H16 UNK     1      17.322  10.325  33.332  1.00  0.00     0.162 HD
BRANCH   5   7
HETATM    7  C8  UNK     1      18.581  11.649  34.366  1.00  0.00     0.133 C 
BRANCH   7   8
HETATM    8  C7  UNK     1      18.140  12.811  33.485  1.00  0.00     0.094 C 
BRANCH   8   9
HETATM    9  S1  UNK     1      18.270  14.399  34.333  1.00  0.00    -0.163 SA
BRANCH   9  10
HETATM   10  C1  UNK     1      19.430  15.211  33.183  1.00  0.00     0.047 C 
HETATM   11  C2  UNK     1      19.955  16.512  33.799  1.00  0.00     0.015 C 
HETATM   12  C4  UNK     1      20.884  17.243  32.830  1.00  0.00     0.001 C 
HETATM   13  C6  UNK     1      20.212  17.492  31.483  1.00  0.00     0.000 C 
HETATM   14  C5  UNK     1      19.675  16.200  30.873  1.00  0.00     0.001 C 
HETATM   15  C3  UNK     1      18.744  15.466  31.838  1.00  0.00     0.015 C 
ENDBRANCH   9  10
ENDBRANCH   8   9
ENDBRANCH   7   8
ENDBRANCH   5   7
ENDBRANCH   1   3
BRANCH   1  16
HETATM   16  C11 UNK     1      16.949   7.801  33.200  1.00  0.00    -0.021 A 
HETATM   17  C14 UNK     1      16.123   7.562  34.298  1.00  0.00     0.012 A 
HETATM   18  C18 UNK     1      14.750   7.395  34.115  1.00  0.00     0.001 A 
HETATM   19  C20 UNK     1      14.203   7.467  32.834  1.00  0.00     0.000 A 
HETATM   20  C19 UNK     1      15.029   7.706  31.736  1.00  0.00     0.001 A 
HETATM   21  C15 UNK     1      16.402   7.873  31.919  1.00  0.00     0.012 A 
ENDBRANCH   1  16
BRANCH   2  22
HETATM   22  C13 UNK     1      18.974   5.767  32.352  1.00  0.00    -0.035 A 
HETATM   23  C16 UNK     1      19.271   5.583  31.002  1.00  0.00     0.014 A 
HETATM   24  C21 UNK     1      18.967   4.371  30.380  1.00  0.00     0.037 A 
HETATM   25  C23 UNK     1      18.364   3.346  31.108  1.00  0.00     0.068 A 
HETATM   26  C22 UNK     1      18.066   3.530  32.458  1.00  0.00     0.037 A 
HETATM   27  C17 UNK     1      18.371   4.742  33.080  1.00  0.00     0.014 A 
BRANCH  25  28
HETATM   28  O2  UNK     1      18.067   2.164  30.502  1.00  0.00    -0.356 OA
HETATM   29  C24 UNK     1      18.050   2.153  29.076  1.00  0.00     0.210 C 
ENDBRANCH  25  28
ENDBRANCH   2  22
TORSDOF 8
ENDMDL
MODEL 8
REMARK VINA RESULT:      -7.1     19.043     21.779
REMARK  8 active torsions:
REMARK  status: ('A' for Active; 'I' for Inactive)
REMARK    1  A    between atoms: C1_5  and  S1_1 
REMARK    2  A    between atoms: C7_11  and  S1_1 
REMARK    3  A    between atoms: C23_27  and  O2_3 
REMARK    4  A    between atoms: C8_12  and  N1_4 
REMARK       I    between atoms: C9_13  and  N1_4 
REMARK    5  A    between atoms: C7_11  and  C8_12 
REMARK    6  A    between atoms: C10_14  and  C9_13 
REMARK    7  A    between atoms: C10_14  and  C11_15 
REMARK    8  A    between atoms: C12_16  and  C13_17 
ROOT
HETATM    1  C10 UNK     1      32.174  -7.055  33.257  1.00  0.00     0.043 C 
HETATM    2  C12 UNK     1      32.854  -6.781  34.389  1.00  0.00     0.029 C 
ENDROOT
BRANCH   1   3
HETATM    3  C9  UNK     1      32.956  -7.735  32.162  1.00  0.00     0.252 C 
HETATM    4  O1  UNK     1      33.820  -7.141  31.521  1.00  0.00    -0.268 OA
HETATM    5  N1  UNK     1      32.610  -9.064  31.947  1.00  0.00    -0.356 N 
HETATM    6  H16 UNK     1      31.880  -9.507  32.495  1.00  0.00     0.162 HD
BRANCH   5   7
HETATM    7  C8  UNK     1      33.241  -9.874  30.940  1.00  0.00     0.133 C 
BRANCH   7   8
HETATM    8  C7  UNK     1      32.331 -10.164  29.754  1.00  0.00     0.094 C 
BRANCH   8   9
HETATM    9  S1  UNK     1      32.255  -8.781  28.596  1.00  0.00    -0.163 SA
BRANCH   9  10
HETATM   10  C1  UNK     1      30.440  -8.629  28.495  1.00  0.00     0.047 C 
HETATM   11  C2  UNK     1      29.919  -7.779  29.658  1.00  0.00     0.015 C 
HETATM   12  C4  UNK     1      28.393  -7.685  29.630  1.00  0.00     0.001 C 
HETATM   13  C6  UNK     1      27.744  -9.065  29.609  1.00  0.00     0.000 C 
HETATM   14  C5  UNK     1      28.271  -9.919  28.460  1.00  0.00     0.001 C 
HETATM   15  C3  UNK     1      29.796 -10.018  28.484  1.00  0.00     0.015 C 
ENDBRANCH   9  10
ENDBRANCH   8   9
ENDBRANCH   7   8
ENDBRANCH   5   7
ENDBRANCH   1   3
BRANCH   1  16
HETATM   16  C11 UNK     1      30.742  -6.729  33.104  1.00  0.00    -0.021 A 
HETATM   17  C14 UNK     1      29.771  -7.603  33.595  1.00  0.00     0.012 A 
HETATM   18  C18 UNK     1      28.419  -7.294  33.451  1.00  0.00     0.001 A 
HETATM   19  C20 UNK     1      28.036  -6.113  32.816  1.00  0.00     0.000 A 
HETATM   20  C19 UNK     1      29.006  -5.240  32.325  1.00  0.00     0.001 A 
HETATM   21  C15 UNK     1      30.359  -5.548  32.468  1.00  0.00     0.012 A 
ENDBRANCH   1  16
BRANCH   2  22
HETATM   22  C13 UNK     1      32.296  -6.154  35.596  1.00  0.00    -0.035 A 
HETATM   23  C16 UNK     1      31.827  -6.949  36.641  1.00  0.00     0.014 A 
HETATM   24  C21 UNK     1      31.298  -6.354  37.787  1.00  0.00     0.037 A 
HETATM   25  C23 UNK     1      31.236  -4.964  37.887  1.00  0.00     0.068 A 
HETATM   26  C22 UNK     1      31.704  -4.169  36.841  1.00  0.00     0.037 A 
HETATM   27  C17 UNK     1      32.235  -4.764  35.695  1.00  0.00     0.014 A 
BRANCH  25  28
HETATM   28  O2  UNK     1      30.720  -4.384  39.004  1.00  0.00    -0.356 OA
HETATM   29  C24 UNK     1      29.300  -4.270  39.079  1.00  0.00     0.210 C 
ENDBRANCH  25  28
ENDBRANCH   2  22
TORSDOF 8
ENDMDL
MODEL 9
REMARK VINA RESULT:      -7.1     18.017     20.300
REMARK  8 active torsions:
REMARK  status: ('A' for Active; 'I' for Inactive)
REMARK    1  A    between atoms: C1_5  and  S1_1 
REMARK    2  A    between atoms: C7_11  and  S1_1 
REMARK    3  A    between atoms: C23_27  and  O2_3 
REMARK    4  A    between atoms: C8_12  and  N1_4 
REMARK       I    between atoms: C9_13  and  N1_4 
REMARK    5  A    between atoms: C7_11  and  C8_12 
REMARK    6  A    between atoms: C10_14  and  C9_13 
REMARK    7  A    between atoms: C10_14  and  C11_15 
REMARK    8  A    between atoms: C12_16  and  C13_17 
ROOT
HETATM    1  C10 UNK     1      27.710  -7.918  38.253  1.00  0.00     0.043 C 
HETATM    2  C12 UNK     1      28.603  -7.319  39.068  1.00  0.00     0.029 C 
ENDROOT
BRANCH   1   3
HETATM    3  C9  UNK     1      26.420  -8.362  38.894  1.00  0.00     0.252 C 
HETATM    4  O1  UNK     1      26.386  -9.287  39.703  1.00  0.00    -0.268 OA
HETATM    5  N1  UNK     1      25.299  -7.647  38.488  1.00  0.00    -0.356 N 
HETATM    6  H16 UNK     1      25.378  -6.899  37.808  1.00  0.00     0.162 HD
BRANCH   5   7
HETATM    7  C8  UNK     1      23.981  -7.932  38.985  1.00  0.00     0.133 C 
BRANCH   7   8
HETATM    8  C7  UNK     1      23.133  -6.681  39.175  1.00  0.00     0.094 C 
BRANCH   8   9
HETATM    9  S1  UNK     1      21.628  -6.717  38.178  1.00  0.00    -0.163 SA
BRANCH   9  10
HETATM   10  C1  UNK     1      21.283  -8.505  38.298  1.00  0.00     0.047 C 
HETATM   11  C2  UNK     1      21.330  -9.142  36.906  1.00  0.00     0.015 C 
HETATM   12  C4  UNK     1      20.986 -10.630  36.971  1.00  0.00     0.001 C 
HETATM   13  C6  UNK     1      19.642 -10.869  37.652  1.00  0.00     0.000 C 
HETATM   14  C5  UNK     1      19.588 -10.224  39.034  1.00  0.00     0.001 C 
HETATM   15  C3  UNK     1      19.929  -8.734  38.974  1.00  0.00     0.015 C 
ENDBRANCH   9  10
ENDBRANCH   8   9
ENDBRANCH   7   8
ENDBRANCH   5   7
ENDBRANCH   1   3
BRANCH   1  16
HETATM   16  C11 UNK     1      27.971  -8.110  36.812  1.00  0.00    -0.021 A 
HETATM   17  C14 UNK     1      28.236  -9.386  36.315  1.00  0.00     0.012 A 
HETATM   18  C18 UNK     1      28.481  -9.567  34.954  1.00  0.00     0.001 A 
HETATM   19  C20 UNK     1      28.462  -8.472  34.090  1.00  0.00     0.000 A 
HETATM   20  C19 UNK     1      28.198  -7.196  34.587  1.00  0.00     0.001 A 
HETATM   21  C15 UNK     1      27.953  -7.015  35.949  1.00  0.00     0.012 A 
ENDBRANCH   1  16
BRANCH   2  22
HETATM   22  C13 UNK     1      29.908  -6.778  38.664  1.00  0.00    -0.035 A 
HETATM   23  C16 UNK     1      30.081  -5.400  38.533  1.00  0.00     0.014 A 
HETATM   24  C21 UNK     1      31.321  -4.886  38.149  1.00  0.00     0.037 A 
HETATM   25  C23 UNK     1      32.385  -5.750  37.895  1.00  0.00     0.068 A 
HETATM   26  C22 UNK     1      32.212  -7.128  38.024  1.00  0.00     0.037 A 
HETATM   27  C17 UNK     1      30.973  -7.642  38.409  1.00  0.00     0.014 A 
BRANCH  25  28
HETATM   28  O2  UNK     1      33.594  -5.249  37.520  1.00  0.00    -0.356 OA
HETATM   29  C24 UNK     1      34.609  -6.191  37.177  1.00  0.00     0.210 C 
ENDBRANCH  25  28
ENDBRANCH   2  22
TORSDOF 8
ENDMDL
MODEL 10
REMARK VINA RESULT:      -7.0     19.375     21.313
REMARK  8 active torsions:
REMARK  status: ('A' for Active; 'I' for Inactive)
REMARK    1  A    between atoms: C1_5  and  S1_1 
REMARK    2  A    between atoms: C7_11  and  S1_1 
REMARK    3  A    between atoms: C23_27  and  O2_3 
REMARK    4  A    between atoms: C8_12  and  N1_4 
REMARK       I    between atoms: C9_13  and  N1_4 
REMARK    5  A    between atoms: C7_11  and  C8_12 
REMARK    6  A    between atoms: C10_14  and  C9_13 
REMARK    7  A    between atoms: C10_14  and  C11_15 
REMARK    8  A    between atoms: C12_16  and  C13_17 
ROOT
HETATM    1  C10 UNK     1      29.370  -8.971  35.336  1.00  0.00     0.043 C 
HETATM    2  C12 UNK     1      28.755  -9.785  34.454  1.00  0.00     0.029 C 
ENDROOT
BRANCH   1   3
HETATM    3  C9  UNK     1      28.775  -8.923  36.720  1.00  0.00     0.252 C 
HETATM    4  O1  UNK     1      29.230  -9.595  37.644  1.00  0.00    -0.268 OA
HETATM    5  N1  UNK     1      27.684  -8.071  36.848  1.00  0.00    -0.356 N 
HETATM    6  H16 UNK     1      27.338  -7.546  36.052  1.00  0.00     0.162 HD
BRANCH   5   7
HETATM    7  C8  UNK     1      26.980  -7.899  38.090  1.00  0.00     0.133 C 
BRANCH   7   8
HETATM    8  C7  UNK     1      27.736  -7.032  39.088  1.00  0.00     0.094 C 
BRANCH   8   9
HETATM    9  S1  UNK     1      27.898  -5.324  38.526  1.00  0.00    -0.163 SA
BRANCH   9  10
HETATM   10  C1  UNK     1      29.568  -5.449  37.802  1.00  0.00     0.047 C 
HETATM   11  C2  UNK     1      30.426  -6.414  38.627  1.00  0.00     0.015 C 
HETATM   12  C4  UNK     1      31.850  -6.491  38.076  1.00  0.00     0.001 C 
HETATM   13  C6  UNK     1      32.493  -5.111  37.978  1.00  0.00     0.000 C 
HETATM   14  C5  UNK     1      31.634  -4.144  37.169  1.00  0.00     0.001 C 
HETATM   15  C3  UNK     1      30.209  -4.061  37.718  1.00  0.00     0.015 C 
ENDBRANCH   9  10
ENDBRANCH   8   9
ENDBRANCH   7   8
ENDBRANCH   5   7
ENDBRANCH   1   3
BRANCH   1  16
HETATM   16  C11 UNK     1      30.570  -8.190  34.976  1.00  0.00    -0.021 A 
HETATM   17  C14 UNK     1      31.839  -8.746  35.136  1.00  0.00     0.012 A 
HETATM   18  C18 UNK     1      32.972  -8.008  34.795  1.00  0.00     0.001 A 
HETATM   19  C20 UNK     1      32.837  -6.713  34.296  1.00  0.00     0.000 A 
HETATM   20  C19 UNK     1      31.568  -6.156  34.138  1.00  0.00     0.001 A 
HETATM   21  C15 UNK     1      30.435  -6.894  34.478  1.00  0.00     0.012 A 
ENDBRANCH   1  16
BRANCH   2  22
HETATM   22  C13 UNK     1      29.172 -10.018  33.064  1.00  0.00    -0.035 A 
HETATM   23  C16 UNK     1      28.748  -9.154  32.054  1.00  0.00     0.014 A 
HETATM   24  C21 UNK     1      29.144  -9.376  30.734  1.00  0.00     0.037 A 
HETATM   25  C23 UNK     1      29.963 -10.461  30.425  1.00  0.00     0.068 A 
HETATM   26  C22 UNK     1      30.387 -11.326  31.434  1.00  0.00     0.037 A 
HETATM   27  C17 UNK     1      29.991 -11.104  32.754  1.00  0.00     0.014 A 
BRANCH  25  28
HETATM   28  O2  UNK     1      30.349 -10.678  29.138  1.00  0.00    -0.356 OA
HETATM   29  C24 UNK     1      29.725  -9.882  28.131  1.00  0.00     0.210 C 
ENDBRANCH  25  28
ENDBRANCH   2  22
TORSDOF 8
ENDMDL
