MODEL 1
REMARK VINA RESULT:      -8.6      0.000      0.000
REMARK  4 active torsions:
REMARK  status: ('A' for Active; 'I' for Inactive)
REMARK    1  A    between atoms: C16_21  and  O2_2 
REMARK    2  A    between atoms: C9_14  and  O2_2 
REMARK    3  A    between atoms: C15_20  and  O4_4 
REMARK    4  A    between atoms: C7_12  and  C8_13 
ROOT
HETATM    1  O1  UNK     1      19.384   2.232  31.135  1.00  0.00    -0.306 OA
HETATM    2  O3  UNK     1      17.945   2.402  27.904  1.00  0.00    -0.284 OA
HETATM    3  C1  UNK     1      19.080   0.834  29.322  1.00  0.00     0.051 A 
HETATM    4  C2  UNK     1      19.586   0.975  30.612  1.00  0.00     0.093 A 
HETATM    5  C3  UNK     1      18.719   2.949  30.148  1.00  0.00     0.127 A 
HETATM    6  C4  UNK     1      18.487   2.111  28.945  1.00  0.00     0.218 A 
HETATM    7  C5  UNK     1      19.176  -0.345  28.613  1.00  0.00     0.021 A 
HETATM    8  C6  UNK     1      20.214  -0.072  31.251  1.00  0.00     0.075 A 
HETATM    9  C7  UNK     1      18.337   4.221  30.262  1.00  0.00     0.053 C 
HETATM   10  C9  UNK     1      20.324  -1.280  30.555  1.00  0.00     0.081 A 
HETATM   11  C10 UNK     1      19.811  -1.415  29.249  1.00  0.00     0.038 A 
ENDROOT
BRANCH   9  12
HETATM   12  C8  UNK     1      18.548   5.084  31.440  1.00  0.00    -0.033 A 
HETATM   13  C11 UNK     1      17.551   5.185  32.393  1.00  0.00     0.014 A 
HETATM   14  C13 UNK     1      17.752   6.003  33.507  1.00  0.00     0.037 A 
HETATM   15  C15 UNK     1      18.949   6.705  33.649  1.00  0.00     0.068 A 
HETATM   16  C14 UNK     1      19.944   6.592  32.677  1.00  0.00     0.037 A 
HETATM   17  C12 UNK     1      19.742   5.775  31.565  1.00  0.00     0.014 A 
BRANCH  15  18
HETATM   18  O4  UNK     1      19.144   7.501  34.735  1.00  0.00    -0.356 OA
HETATM   19  C18 UNK     1      19.804   8.747  34.516  1.00  0.00     0.210 C 
ENDBRANCH  15  18
ENDBRANCH   9  12
BRANCH  10  20
HETATM   20  O2  UNK     1      20.937  -2.344  31.147  1.00  0.00    -0.279 OA
BRANCH  20  21
HETATM   21  C16 UNK     1      21.026  -2.247  32.544  1.00  0.00     0.260 C 
HETATM   22  O5  UNK     1      22.059  -2.266  33.199  1.00  0.00    -0.265 OA
HETATM   23  C17 UNK     1      19.654  -2.120  33.137  1.00  0.00     0.126 C 
ENDBRANCH  20  21
ENDBRANCH  10  20
TORSDOF 4
ENDMDL
MODEL 2
REMARK VINA RESULT:      -8.4      2.605      3.156
REMARK  4 active torsions:
REMARK  status: ('A' for Active; 'I' for Inactive)
REMARK    1  A    between atoms: C16_21  and  O2_2 
REMARK    2  A    between atoms: C9_14  and  O2_2 
REMARK    3  A    between atoms: C15_20  and  O4_4 
REMARK    4  A    between atoms: C7_12  and  C8_13 
ROOT
HETATM    1  O1  UNK     1      17.899   3.239  33.291  1.00  0.00    -0.306 OA
HETATM    2  O3  UNK     1      19.068   2.953  29.960  1.00  0.00    -0.284 OA
HETATM    3  C1  UNK     1      18.668   1.576  31.885  1.00  0.00     0.051 A 
HETATM    4  C2  UNK     1      18.187   1.902  33.151  1.00  0.00     0.093 A 
HETATM    5  C3  UNK     1      18.205   3.821  32.066  1.00  0.00     0.127 A 
HETATM    6  C4  UNK     1      18.708   2.808  31.106  1.00  0.00     0.218 A 
HETATM    7  C5  UNK     1      19.018   0.290  31.532  1.00  0.00     0.021 A 
HETATM    8  C6  UNK     1      18.033   0.939  34.125  1.00  0.00     0.075 A 
HETATM    9  C7  UNK     1      18.066   5.117  31.786  1.00  0.00     0.053 C 
HETATM   10  C9  UNK     1      18.380  -0.375  33.794  1.00  0.00     0.081 A 
HETATM   11  C10 UNK     1      18.867  -0.696  32.511  1.00  0.00     0.038 A 
ENDROOT
BRANCH   9  12
HETATM   12  C8  UNK     1      17.568   6.152  32.712  1.00  0.00    -0.033 A 
HETATM   13  C11 UNK     1      16.270   6.612  32.581  1.00  0.00     0.014 A 
HETATM   14  C13 UNK     1      15.801   7.592  33.457  1.00  0.00     0.037 A 
HETATM   15  C15 UNK     1      16.638   8.095  34.453  1.00  0.00     0.068 A 
HETATM   16  C14 UNK     1      17.946   7.621  34.570  1.00  0.00     0.037 A 
HETATM   17  C12 UNK     1      18.413   6.642  33.694  1.00  0.00     0.014 A 
BRANCH  15  18
HETATM   18  O4  UNK     1      16.181   9.050  35.307  1.00  0.00    -0.356 OA
HETATM   19  C18 UNK     1      15.069   9.832  34.871  1.00  0.00     0.210 C 
ENDBRANCH  15  18
ENDBRANCH   9  12
BRANCH  10  20
HETATM   20  O2  UNK     1      18.244  -1.362  34.725  1.00  0.00    -0.279 OA
BRANCH  20  21
HETATM   21  C16 UNK     1      19.185  -1.299  35.764  1.00  0.00     0.260 C 
HETATM   22  O5  UNK     1      20.398  -1.211  35.629  1.00  0.00    -0.265 OA
HETATM   23  C17 UNK     1      18.487  -1.361  37.091  1.00  0.00     0.126 C 
ENDBRANCH  20  21
ENDBRANCH  10  20
TORSDOF 4
ENDMDL
MODEL 3
REMARK VINA RESULT:      -8.3      4.992      9.049
REMARK  4 active torsions:
REMARK  status: ('A' for Active; 'I' for Inactive)
REMARK    1  A    between atoms: C16_21  and  O2_2 
REMARK    2  A    between atoms: C9_14  and  O2_2 
REMARK    3  A    between atoms: C15_20  and  O4_4 
REMARK    4  A    between atoms: C7_12  and  C8_13 
ROOT
HETATM    1  O1  UNK     1      20.201  -4.820  34.819  1.00  0.00    -0.306 OA
HETATM    2  O3  UNK     1      20.175  -3.220  37.978  1.00  0.00    -0.284 OA
HETATM    3  C1  UNK     1      20.276  -5.429  37.045  1.00  0.00     0.051 A 
HETATM    4  C2  UNK     1      20.273  -5.857  35.719  1.00  0.00     0.093 A 
HETATM    5  C3  UNK     1      20.154  -3.659  35.582  1.00  0.00     0.127 A 
HETATM    6  C4  UNK     1      20.198  -3.974  37.032  1.00  0.00     0.218 A 
HETATM    7  C5  UNK     1      20.343  -6.306  38.108  1.00  0.00     0.021 A 
HETATM    8  C6  UNK     1      20.338  -7.196  35.402  1.00  0.00     0.075 A 
HETATM    9  C7  UNK     1      20.079  -2.425  35.083  1.00  0.00     0.053 C 
HETATM   10  C9  UNK     1      20.407  -8.108  36.460  1.00  0.00     0.081 A 
HETATM   11  C10 UNK     1      20.409  -7.667  37.799  1.00  0.00     0.038 A 
ENDROOT
BRANCH   9  12
HETATM   12  C8  UNK     1      20.034  -2.074  33.650  1.00  0.00    -0.033 A 
HETATM   13  C11 UNK     1      19.081  -1.177  33.202  1.00  0.00     0.014 A 
HETATM   14  C13 UNK     1      19.040  -0.847  31.847  1.00  0.00     0.037 A 
HETATM   15  C15 UNK     1      19.953  -1.418  30.961  1.00  0.00     0.068 A 
HETATM   16  C14 UNK     1      20.907  -2.322  31.430  1.00  0.00     0.037 A 
HETATM   17  C12 UNK     1      20.948  -2.652  32.785  1.00  0.00     0.014 A 
BRANCH  15  18
HETATM   18  O4  UNK     1      19.912  -1.095  29.640  1.00  0.00    -0.356 OA
HETATM   19  C18 UNK     1      19.862   0.292  29.312  1.00  0.00     0.210 C 
ENDBRANCH  15  18
ENDBRANCH   9  12
BRANCH  10  20
HETATM   20  O2  UNK     1      20.473  -9.443  36.195  1.00  0.00    -0.279 OA
BRANCH  20  21
HETATM   21  C16 UNK     1      21.627  -9.830  35.496  1.00  0.00     0.260 C 
HETATM   22  O5  UNK     1      21.667 -10.210  34.334  1.00  0.00    -0.265 OA
HETATM   23  C17 UNK     1      22.828  -9.715  36.387  1.00  0.00     0.126 C 
ENDBRANCH  20  21
ENDBRANCH  10  20
TORSDOF 4
ENDMDL
MODEL 4
REMARK VINA RESULT:      -8.2     21.912     24.413
REMARK  4 active torsions:
REMARK  status: ('A' for Active; 'I' for Inactive)
REMARK    1  A    between atoms: C16_21  and  O2_2 
REMARK    2  A    between atoms: C9_14  and  O2_2 
REMARK    3  A    between atoms: C15_20  and  O4_4 
REMARK    4  A    between atoms: C7_12  and  C8_13 
ROOT
HETATM    1  O1  UNK     1      10.401   5.428   9.467  1.00  0.00    -0.306 OA
HETATM    2  O3  UNK     1      10.044   6.788   6.217  1.00  0.00    -0.284 OA
HETATM    3  C1  UNK     1      11.771   6.217   7.783  1.00  0.00     0.051 A 
HETATM    4  C2  UNK     1      11.693   5.671   9.062  1.00  0.00     0.093 A 
HETATM    5  C3  UNK     1       9.593   5.832   8.411  1.00  0.00     0.127 A 
HETATM    6  C4  UNK     1      10.407   6.353   7.286  1.00  0.00     0.218 A 
HETATM    7  C5  UNK     1      12.971   6.536   7.184  1.00  0.00     0.021 A 
HETATM    8  C6  UNK     1      12.829   5.419   9.801  1.00  0.00     0.075 A 
HETATM    9  C7  UNK     1       8.261   5.762   8.406  1.00  0.00     0.053 C 
HETATM   10  C9  UNK     1      14.061   5.734   9.217  1.00  0.00     0.081 A 
HETATM   11  C10 UNK     1      14.131   6.286   7.922  1.00  0.00     0.038 A 
ENDROOT
BRANCH   9  12
HETATM   12  C8  UNK     1       7.419   5.249   9.503  1.00  0.00    -0.033 A 
HETATM   13  C11 UNK     1       7.029   3.922   9.495  1.00  0.00     0.014 A 
HETATM   14  C13 UNK     1       6.231   3.439  10.534  1.00  0.00     0.037 A 
HETATM   15  C15 UNK     1       5.837   4.291  11.565  1.00  0.00     0.068 A 
HETATM   16  C14 UNK     1       6.239   5.628  11.557  1.00  0.00     0.037 A 
HETATM   17  C12 UNK     1       7.036   6.110  10.519  1.00  0.00     0.014 A 
BRANCH  15  18
HETATM   18  O4  UNK     1       5.060   3.820  12.577  1.00  0.00    -0.356 OA
HETATM   19  C18 UNK     1       5.125   2.420  12.847  1.00  0.00     0.210 C 
ENDBRANCH  15  18
ENDBRANCH   9  12
BRANCH  10  20
HETATM   20  O2  UNK     1      15.212   5.502   9.909  1.00  0.00    -0.279 OA
BRANCH  20  21
HETATM   21  C16 UNK     1      15.761   6.648  10.504  1.00  0.00     0.260 C 
HETATM   22  O5  UNK     1      15.225   7.337  11.361  1.00  0.00    -0.265 OA
HETATM   23  C17 UNK     1      17.121   6.921   9.932  1.00  0.00     0.126 C 
ENDBRANCH  20  21
ENDBRANCH  10  20
TORSDOF 4
ENDMDL
MODEL 5
REMARK VINA RESULT:      -8.2      3.566      4.369
REMARK  4 active torsions:
REMARK  status: ('A' for Active; 'I' for Inactive)
REMARK    1  A    between atoms: C16_21  and  O2_2 
REMARK    2  A    between atoms: C9_14  and  O2_2 
REMARK    3  A    between atoms: C15_20  and  O4_4 
REMARK    4  A    between atoms: C7_12  and  C8_13 
ROOT
HETATM    1  O1  UNK     1      18.231   4.146  33.972  1.00  0.00    -0.306 OA
HETATM    2  O3  UNK     1      18.114   2.637  30.770  1.00  0.00    -0.284 OA
HETATM    3  C1  UNK     1      18.269   2.014  33.082  1.00  0.00     0.051 A 
HETATM    4  C2  UNK     1      18.302   2.797  34.234  1.00  0.00     0.093 A 
HETATM    5  C3  UNK     1      18.148   4.257  32.589  1.00  0.00     0.127 A 
HETATM    6  C4  UNK     1      18.167   2.920  31.945  1.00  0.00     0.218 A 
HETATM    7  C5  UNK     1      18.328   0.637  33.119  1.00  0.00     0.021 A 
HETATM    8  C6  UNK     1      18.397   2.224  35.484  1.00  0.00     0.075 A 
HETATM    9  C7  UNK     1      18.063   5.410  31.925  1.00  0.00     0.053 C 
HETATM   10  C9  UNK     1      18.458   0.828  35.551  1.00  0.00     0.081 A 
HETATM   11  C10 UNK     1      18.424   0.043  34.381  1.00  0.00     0.038 A 
ENDROOT
BRANCH   9  12
HETATM   12  C8  UNK     1      18.040   6.755  32.529  1.00  0.00    -0.033 A 
HETATM   13  C11 UNK     1      16.884   7.512  32.456  1.00  0.00     0.014 A 
HETATM   14  C13 UNK     1      16.864   8.785  33.028  1.00  0.00     0.037 A 
HETATM   15  C15 UNK     1      18.001   9.281  33.665  1.00  0.00     0.068 A 
HETATM   16  C14 UNK     1      19.160   8.505  33.729  1.00  0.00     0.037 A 
HETATM   17  C12 UNK     1      19.179   7.233  33.158  1.00  0.00     0.014 A 
BRANCH  15  18
HETATM   18  O4  UNK     1      17.981  10.522  34.222  1.00  0.00    -0.356 OA
HETATM   19  C18 UNK     1      16.754  11.246  34.151  1.00  0.00     0.210 C 
ENDBRANCH  15  18
ENDBRANCH   9  12
BRANCH  10  20
HETATM   20  O2  UNK     1      18.551   0.216  36.765  1.00  0.00    -0.279 OA
BRANCH  20  21
HETATM   21  C16 UNK     1      17.643   0.699  37.720  1.00  0.00     0.260 C 
HETATM   22  O5  UNK     1      17.933   1.190  38.802  1.00  0.00    -0.265 OA
HETATM   23  C17 UNK     1      16.238   0.524  37.224  1.00  0.00     0.126 C 
ENDBRANCH  20  21
ENDBRANCH  10  20
TORSDOF 4
ENDMDL
MODEL 6
REMARK VINA RESULT:      -8.2      4.080     10.120
REMARK  4 active torsions:
REMARK  status: ('A' for Active; 'I' for Inactive)
REMARK    1  A    between atoms: C16_21  and  O2_2 
REMARK    2  A    between atoms: C9_14  and  O2_2 
REMARK    3  A    between atoms: C15_20  and  O4_4 
REMARK    4  A    between atoms: C7_12  and  C8_13 
ROOT
HETATM    1  O1  UNK     1      16.798   7.657  32.840  1.00  0.00    -0.306 OA
HETATM    2  O3  UNK     1      19.483   9.507  34.222  1.00  0.00    -0.284 OA
HETATM    3  C1  UNK     1      17.111   9.684  33.902  1.00  0.00     0.051 A 
HETATM    4  C2  UNK     1      16.206   8.807  33.309  1.00  0.00     0.093 A 
HETATM    5  C3  UNK     1      18.150   7.781  33.136  1.00  0.00     0.127 A 
HETATM    6  C4  UNK     1      18.429   9.066  33.823  1.00  0.00     0.218 A 
HETATM    7  C5  UNK     1      16.728  10.895  34.438  1.00  0.00     0.021 A 
HETATM    8  C6  UNK     1      14.864   9.112  33.229  1.00  0.00     0.075 A 
HETATM    9  C7  UNK     1      19.078   6.869  32.843  1.00  0.00     0.053 C 
HETATM   10  C9  UNK     1      14.448  10.335  33.765  1.00  0.00     0.081 A 
HETATM   11  C10 UNK     1      15.370  11.217  34.364  1.00  0.00     0.038 A 
ENDROOT
BRANCH   9  12
HETATM   12  C8  UNK     1      18.839   5.582  32.162  1.00  0.00    -0.033 A 
HETATM   13  C11 UNK     1      18.249   4.545  32.863  1.00  0.00     0.014 A 
HETATM   14  C13 UNK     1      18.024   3.328  32.218  1.00  0.00     0.037 A 
HETATM   15  C15 UNK     1      18.391   3.167  30.882  1.00  0.00     0.068 A 
HETATM   16  C14 UNK     1      18.986   4.224  30.191  1.00  0.00     0.037 A 
HETATM   17  C12 UNK     1      19.210   5.440  30.835  1.00  0.00     0.014 A 
BRANCH  15  18
HETATM   18  O4  UNK     1      18.172   1.981  30.255  1.00  0.00    -0.356 OA
HETATM   19  C18 UNK     1      17.926   2.024  28.849  1.00  0.00     0.210 C 
ENDBRANCH  15  18
ENDBRANCH   9  12
BRANCH  10  20
HETATM   20  O2  UNK     1      13.130  10.680  33.710  1.00  0.00    -0.279 OA
BRANCH  20  21
HETATM   21  C16 UNK     1      12.892  11.937  33.133  1.00  0.00     0.260 C 
HETATM   22  O5  UNK     1      13.303  12.314  32.044  1.00  0.00    -0.265 OA
HETATM   23  C17 UNK     1      12.053  12.773  34.053  1.00  0.00     0.126 C 
ENDBRANCH  20  21
ENDBRANCH  10  20
TORSDOF 4
ENDMDL
MODEL 7
REMARK VINA RESULT:      -8.2     12.523     14.408
REMARK  4 active torsions:
REMARK  status: ('A' for Active; 'I' for Inactive)
REMARK    1  A    between atoms: C16_21  and  O2_2 
REMARK    2  A    between atoms: C9_14  and  O2_2 
REMARK    3  A    between atoms: C15_20  and  O4_4 
REMARK    4  A    between atoms: C7_12  and  C8_13 
ROOT
HETATM    1  O1  UNK     1      24.406  -8.742  37.090  1.00  0.00    -0.306 OA
HETATM    2  O3  UNK     1      25.348 -11.911  35.822  1.00  0.00    -0.284 OA
HETATM    3  C1  UNK     1      23.383 -10.564  36.106  1.00  0.00     0.051 A 
HETATM    4  C2  UNK     1      23.224  -9.292  36.652  1.00  0.00     0.093 A 
HETATM    5  C3  UNK     1      25.386  -9.691  36.823  1.00  0.00     0.127 A 
HETATM    6  C4  UNK     1      24.800 -10.897  36.187  1.00  0.00     0.218 A 
HETATM    7  C5  UNK     1      22.325 -11.295  35.607  1.00  0.00     0.021 A 
HETATM    8  C6  UNK     1      21.984  -8.695  36.720  1.00  0.00     0.075 A 
HETATM    9  C7  UNK     1      26.682  -9.542  37.100  1.00  0.00     0.053 C 
HETATM   10  C9  UNK     1      20.893  -9.414  36.220  1.00  0.00     0.081 A 
HETATM   11  C10 UNK     1      21.062 -10.700  35.670  1.00  0.00     0.038 A 
ENDROOT
BRANCH   9  12
HETATM   12  C8  UNK     1      27.300  -8.360  37.729  1.00  0.00    -0.033 A 
HETATM   13  C11 UNK     1      27.341  -8.271  39.110  1.00  0.00     0.014 A 
HETATM   14  C13 UNK     1      27.926  -7.151  39.703  1.00  0.00     0.037 A 
HETATM   15  C15 UNK     1      28.462  -6.139  38.908  1.00  0.00     0.068 A 
HETATM   16  C14 UNK     1      28.411  -6.244  37.517  1.00  0.00     0.037 A 
HETATM   17  C12 UNK     1      27.827  -7.363  36.924  1.00  0.00     0.014 A 
BRANCH  15  18
HETATM   18  O4  UNK     1      29.031  -5.048  39.488  1.00  0.00    -0.356 OA
HETATM   19  C18 UNK     1      29.816  -4.202  38.649  1.00  0.00     0.210 C 
ENDBRANCH  15  18
ENDBRANCH   9  12
BRANCH  10  20
HETATM   20  O2  UNK     1      19.647  -8.863  36.265  1.00  0.00    -0.279 OA
BRANCH  20  21
HETATM   21  C16 UNK     1      19.096  -8.799  37.554  1.00  0.00     0.260 C 
HETATM   22  O5  UNK     1      18.926  -9.747  38.308  1.00  0.00    -0.265 OA
HETATM   23  C17 UNK     1      18.734  -7.382  37.886  1.00  0.00     0.126 C 
ENDBRANCH  20  21
ENDBRANCH  10  20
TORSDOF 4
ENDMDL
MODEL 8
REMARK VINA RESULT:      -8.1     21.566     24.325
REMARK  4 active torsions:
REMARK  status: ('A' for Active; 'I' for Inactive)
REMARK    1  A    between atoms: C16_21  and  O2_2 
REMARK    2  A    between atoms: C9_14  and  O2_2 
REMARK    3  A    between atoms: C15_20  and  O4_4 
REMARK    4  A    between atoms: C7_12  and  C8_13 
ROOT
HETATM    1  O1  UNK     1       8.994   5.801   9.916  1.00  0.00    -0.306 OA
HETATM    2  O3  UNK     1       7.477   7.155   7.016  1.00  0.00    -0.284 OA
HETATM    3  C1  UNK     1       9.575   6.229   7.721  1.00  0.00     0.051 A 
HETATM    4  C2  UNK     1       9.981   5.736   8.960  1.00  0.00     0.093 A 
HETATM    5  C3  UNK     1       7.892   6.362   9.282  1.00  0.00     0.127 A 
HETATM    6  C4  UNK     1       8.192   6.665   7.861  1.00  0.00     0.218 A 
HETATM    7  C5  UNK     1      10.410   6.256   6.624  1.00  0.00     0.021 A 
HETATM    8  C6  UNK     1      11.254   5.243   9.149  1.00  0.00     0.075 A 
HETATM    9  C7  UNK     1       6.718   6.598   9.869  1.00  0.00     0.053 C 
HETATM   10  C9  UNK     1      12.121   5.258   8.052  1.00  0.00     0.081 A 
HETATM   11  C10 UNK     1      11.704   5.759   6.803  1.00  0.00     0.038 A 
ENDROOT
BRANCH   9  12
HETATM   12  C8  UNK     1       6.383   6.310  11.277  1.00  0.00    -0.033 A 
HETATM   13  C11 UNK     1       6.272   4.995  11.691  1.00  0.00     0.014 A 
HETATM   14  C13 UNK     1       5.954   4.724  13.023  1.00  0.00     0.037 A 
HETATM   15  C15 UNK     1       5.754   5.773  13.920  1.00  0.00     0.068 A 
HETATM   16  C14 UNK     1       5.869   7.094  13.485  1.00  0.00     0.037 A 
HETATM   17  C12 UNK     1       6.187   7.364  12.154  1.00  0.00     0.014 A 
BRANCH  15  18
HETATM   18  O4  UNK     1       5.444   5.508  15.218  1.00  0.00    -0.356 OA
HETATM   19  C18 UNK     1       5.575   4.155  15.653  1.00  0.00     0.210 C 
ENDBRANCH  15  18
ENDBRANCH   9  12
BRANCH  10  20
HETATM   20  O2  UNK     1      13.391   4.780   8.191  1.00  0.00    -0.279 OA
BRANCH  20  21
HETATM   21  C16 UNK     1      14.247   5.633   8.906  1.00  0.00     0.260 C 
HETATM   22  O5  UNK     1      14.326   6.846   8.771  1.00  0.00    -0.265 OA
HETATM   23  C17 UNK     1      15.072   4.837   9.873  1.00  0.00     0.126 C 
ENDBRANCH  20  21
ENDBRANCH  10  20
TORSDOF 4
ENDMDL
MODEL 9
REMARK VINA RESULT:      -8.0      4.310      9.679
REMARK  4 active torsions:
REMARK  status: ('A' for Active; 'I' for Inactive)
REMARK    1  A    between atoms: C16_21  and  O2_2 
REMARK    2  A    between atoms: C9_14  and  O2_2 
REMARK    3  A    between atoms: C15_20  and  O4_4 
REMARK    4  A    between atoms: C7_12  and  C8_13 
ROOT
HETATM    1  O1  UNK     1      19.589  -2.675  34.928  1.00  0.00    -0.306 OA
HETATM    2  O3  UNK     1      18.389  -0.590  37.526  1.00  0.00    -0.284 OA
HETATM    3  C1  UNK     1      18.681  -0.563  35.145  1.00  0.00     0.051 A 
HETATM    4  C2  UNK     1      19.195  -1.527  34.281  1.00  0.00     0.093 A 
HETATM    5  C3  UNK     1      19.326  -2.458  36.275  1.00  0.00     0.127 A 
HETATM    6  C4  UNK     1      18.738  -1.114  36.493  1.00  0.00     0.218 A 
HETATM    7  C5  UNK     1      18.227   0.663  34.703  1.00  0.00     0.021 A 
HETATM    8  C6  UNK     1      19.274  -1.300  32.924  1.00  0.00     0.075 A 
HETATM    9  C7  UNK     1      19.569  -3.339  37.247  1.00  0.00     0.053 C 
HETATM   10  C9  UNK     1      18.820  -0.065  32.449  1.00  0.00     0.081 A 
HETATM   11  C10 UNK     1      18.302   0.906  33.329  1.00  0.00     0.038 A 
ENDROOT
BRANCH   9  12
HETATM   12  C8  UNK     1      20.151  -4.683  37.069  1.00  0.00    -0.033 A 
HETATM   13  C11 UNK     1      19.688  -5.491  36.046  1.00  0.00     0.014 A 
HETATM   14  C13 UNK     1      20.240  -6.763  35.880  1.00  0.00     0.037 A 
HETATM   15  C15 UNK     1      21.246  -7.205  36.739  1.00  0.00     0.068 A 
HETATM   16  C14 UNK     1      21.699  -6.377  37.766  1.00  0.00     0.037 A 
HETATM   17  C12 UNK     1      21.148  -5.106  37.932  1.00  0.00     0.014 A 
BRANCH  15  18
HETATM   18  O4  UNK     1      21.782  -8.444  36.576  1.00  0.00    -0.356 OA
HETATM   19  C18 UNK     1      21.500  -9.118  35.349  1.00  0.00     0.210 C 
ENDBRANCH  15  18
ENDBRANCH   9  12
BRANCH  10  20
HETATM   20  O2  UNK     1      18.878   0.204  31.114  1.00  0.00    -0.279 OA
BRANCH  20  21
HETATM   21  C16 UNK     1      20.136  -0.030  30.538  1.00  0.00     0.260 C 
HETATM   22  O5  UNK     1      21.204  -0.048  31.133  1.00  0.00    -0.265 OA
HETATM   23  C17 UNK     1      19.989  -0.257  29.062  1.00  0.00     0.126 C 
ENDBRANCH  20  21
ENDBRANCH  10  20
TORSDOF 4
ENDMDL
MODEL 10
REMARK VINA RESULT:      -8.0     22.194     24.444
REMARK  4 active torsions:
REMARK  status: ('A' for Active; 'I' for Inactive)
REMARK    1  A    between atoms: C16_21  and  O2_2 
REMARK    2  A    between atoms: C9_14  and  O2_2 
REMARK    3  A    between atoms: C15_20  and  O4_4 
REMARK    4  A    between atoms: C7_12  and  C8_13 
ROOT
HETATM    1  O1  UNK     1      13.987   7.225   9.190  1.00  0.00    -0.306 OA
HETATM    2  O3  UNK     1      16.014   4.337   9.490  1.00  0.00    -0.284 OA
HETATM    3  C1  UNK     1      16.167   6.716   9.760  1.00  0.00     0.051 A 
HETATM    4  C2  UNK     1      15.211   7.714   9.583  1.00  0.00     0.093 A 
HETATM    5  C3  UNK     1      14.142   5.847   9.104  1.00  0.00     0.127 A 
HETATM    6  C4  UNK     1      15.525   5.443   9.458  1.00  0.00     0.218 A 
HETATM    7  C5  UNK     1      17.461   6.988  10.153  1.00  0.00     0.021 A 
HETATM    8  C6  UNK     1      15.518   9.041   9.795  1.00  0.00     0.075 A 
HETATM    9  C7  UNK     1      13.178   4.996   8.750  1.00  0.00     0.053 C 
HETATM   10  C9  UNK     1      16.824   9.346  10.194  1.00  0.00     0.081 A 
HETATM   11  C10 UNK     1      17.785   8.330  10.371  1.00  0.00     0.038 A 
ENDROOT
BRANCH   9  12
HETATM   12  C8  UNK     1      11.794   5.360   8.392  1.00  0.00    -0.033 A 
HETATM   13  C11 UNK     1      10.805   5.296   9.359  1.00  0.00     0.014 A 
HETATM   14  C13 UNK     1       9.496   5.640   9.018  1.00  0.00     0.037 A 
HETATM   15  C15 UNK     1       9.196   6.043   7.718  1.00  0.00     0.068 A 
HETATM   16  C14 UNK     1      10.205   6.101   6.755  1.00  0.00     0.037 A 
HETATM   17  C12 UNK     1      11.513   5.758   7.095  1.00  0.00     0.014 A 
BRANCH  15  18
HETATM   18  O4  UNK     1       7.919   6.378   7.387  1.00  0.00    -0.356 OA
HETATM   19  C18 UNK     1       7.249   7.303   8.242  1.00  0.00     0.210 C 
ENDBRANCH  15  18
ENDBRANCH   9  12
BRANCH  10  20
HETATM   20  O2  UNK     1      17.173  10.645  10.417  1.00  0.00    -0.279 OA
BRANCH  20  21
HETATM   21  C16 UNK     1      18.232  11.097   9.615  1.00  0.00     0.260 C 
HETATM   22  O5  UNK     1      19.401  11.198   9.962  1.00  0.00    -0.265 OA
HETATM   23  C17 UNK     1      17.725  11.451   8.248  1.00  0.00     0.126 C 
ENDBRANCH  20  21
ENDBRANCH  10  20
TORSDOF 4
ENDMDL
