MODEL 1
REMARK VINA RESULT:      -9.6      0.000      0.000
REMARK  4 active torsions:
REMARK  status: ('A' for Active; 'I' for Inactive)
REMARK    1  A    between atoms: C12_20  and  O2_5 
REMARK    2  A    between atoms: C5_13  and  O2_5 
REMARK       I    between atoms: C10_18  and  N1_8 
REMARK    3  A    between atoms: C11_19  and  N1_8 
REMARK    4  A    between atoms: C10_18  and  C3_11 
ROOT
HETATM    1  O1  UNK     1      19.543  -1.270  34.504  1.00  0.00    -0.271 OA
HETATM    2  O3  UNK     1      20.692  -3.157  33.922  1.00  0.00    -0.259 OA
HETATM    3  C1  UNK     1      18.579  -1.089  36.729  1.00  0.00     0.002 A 
HETATM    4  C2  UNK     1      18.811  -0.549  35.467  1.00  0.00     0.123 A 
HETATM    5  C3  UNK     1      19.797  -3.092  36.115  1.00  0.00     0.108 A 
HETATM    6  C4  UNK     1      19.103  -2.411  37.036  1.00  0.00     0.037 A 
HETATM    7  C5  UNK     1      18.336   0.711  35.110  1.00  0.00     0.103 A 
HETATM    8  C6  UNK     1      17.849  -0.344  37.657  1.00  0.00     0.014 A 
HETATM    9  C7  UNK     1      17.609   1.449  36.043  1.00  0.00     0.040 A 
HETATM   10  C8  UNK     1      20.057  -2.536  34.768  1.00  0.00     0.304 A 
HETATM   11  C9  UNK     1      17.366   0.923  37.313  1.00  0.00     0.004 A 
ENDROOT
BRANCH   5  12
HETATM   12  C10 UNK     1      20.285  -4.416  36.520  1.00  0.00     0.262 C 
HETATM   13  O4  UNK     1      21.238  -4.500  37.291  1.00  0.00    -0.267 OA
HETATM   14  N1  UNK     1      19.549  -5.438  35.937  1.00  0.00    -0.320 N 
HETATM   15  H5  UNK     1      18.794  -5.202  35.298  1.00  0.00     0.169 HD
BRANCH  14  16
HETATM   16  C11 UNK     1      19.756  -6.809  36.117  1.00  0.00     0.077 A 
HETATM   17  C13 UNK     1      19.024  -7.505  37.077  1.00  0.00     0.184 A 
HETATM   18  F1  UNK     1      18.118  -6.872  37.836  1.00  0.00    -0.200 F 
HETATM   19  C15 UNK     1      19.232  -8.873  37.254  1.00  0.00     0.195 A 
HETATM   20  F2  UNK     1      18.531  -9.543  38.177  1.00  0.00    -0.199 F 
HETATM   21  C18 UNK     1      20.173  -9.542  36.470  1.00  0.00     0.158 A 
HETATM   22  C16 UNK     1      20.905  -8.843  35.511  1.00  0.00     0.048 A 
HETATM   23  F3  UNK     1      20.374 -10.855  36.640  1.00  0.00    -0.203 F 
HETATM   24  C14 UNK     1      20.696  -7.475  35.334  1.00  0.00     0.036 A 
ENDBRANCH  14  16
ENDBRANCH   5  12
BRANCH   7  25
HETATM   25  O2  UNK     1      18.571   1.227  33.874  1.00  0.00    -0.349 OA
BRANCH  25  26
HETATM   26  C12 UNK     1      18.219   2.594  33.663  1.00  0.00     0.171 C 
HETATM   27  C17 UNK     1      18.200   2.874  32.175  1.00  0.00     0.034 C 
ENDBRANCH  25  26
ENDBRANCH   7  25
TORSDOF 4
ENDMDL
MODEL 2
REMARK VINA RESULT:      -9.3      7.076     11.827
REMARK  4 active torsions:
REMARK  status: ('A' for Active; 'I' for Inactive)
REMARK    1  A    between atoms: C12_20  and  O2_5 
REMARK    2  A    between atoms: C5_13  and  O2_5 
REMARK       I    between atoms: C10_18  and  N1_8 
REMARK    3  A    between atoms: C11_19  and  N1_8 
REMARK    4  A    between atoms: C10_18  and  C3_11 
ROOT
HETATM    1  O1  UNK     1      18.712   0.782  32.612  1.00  0.00    -0.271 OA
HETATM    2  O3  UNK     1      17.909   2.678  33.605  1.00  0.00    -0.259 OA
HETATM    3  C1  UNK     1      19.478   0.867  30.307  1.00  0.00     0.002 A 
HETATM    4  C2  UNK     1      19.253   0.149  31.477  1.00  0.00     0.123 A 
HETATM    5  C3  UNK     1      18.627   2.879  31.356  1.00  0.00     0.108 A 
HETATM    6  C4  UNK     1      19.143   2.282  30.273  1.00  0.00     0.037 A 
HETATM    7  C5  UNK     1      19.552  -1.209  31.573  1.00  0.00     0.103 A 
HETATM    8  C6  UNK     1      20.017   0.204  29.202  1.00  0.00     0.014 A 
HETATM    9  C7  UNK     1      20.090  -1.863  30.467  1.00  0.00     0.040 A 
HETATM   10  C8  UNK     1      18.381   2.135  32.611  1.00  0.00     0.304 A 
HETATM   11  C9  UNK     1      20.322  -1.158  29.284  1.00  0.00     0.004 A 
ENDROOT
BRANCH   5  12
HETATM   12  C10 UNK     1      18.323   4.309  31.224  1.00  0.00     0.262 C 
HETATM   13  O4  UNK     1      18.677   4.913  30.214  1.00  0.00    -0.267 OA
HETATM   14  N1  UNK     1      17.637   4.795  32.328  1.00  0.00    -0.320 N 
HETATM   15  H5  UNK     1      17.433   4.166  33.101  1.00  0.00     0.169 HD
BRANCH  14  16
HETATM   16  C11 UNK     1      17.200   6.110  32.514  1.00  0.00     0.077 A 
HETATM   17  C13 UNK     1      18.087   7.082  32.971  1.00  0.00     0.184 A 
HETATM   18  F1  UNK     1      19.363   6.770  33.239  1.00  0.00    -0.200 F 
HETATM   19  C15 UNK     1      17.648   8.393  33.155  1.00  0.00     0.195 A 
HETATM   20  F2  UNK     1      18.499   9.329  33.597  1.00  0.00    -0.199 F 
HETATM   21  C18 UNK     1      16.322   8.729  32.880  1.00  0.00     0.158 A 
HETATM   22  C16 UNK     1      15.436   7.754  32.423  1.00  0.00     0.048 A 
HETATM   23  F3  UNK     1      15.901   9.988  33.057  1.00  0.00    -0.203 F 
HETATM   24  C14 UNK     1      15.876   6.444  32.238  1.00  0.00     0.036 A 
ENDBRANCH  14  16
ENDBRANCH   5  12
BRANCH   7  25
HETATM   25  O2  UNK     1      19.328  -1.898  32.724  1.00  0.00    -0.349 OA
BRANCH  25  26
HETATM   26  C12 UNK     1      20.467  -2.451  33.383  1.00  0.00     0.171 C 
HETATM   27  C17 UNK     1      20.226  -2.441  34.877  1.00  0.00     0.034 C 
ENDBRANCH  25  26
ENDBRANCH   7  25
TORSDOF 4
ENDMDL
MODEL 3
REMARK VINA RESULT:      -9.3      3.510      8.622
REMARK  4 active torsions:
REMARK  status: ('A' for Active; 'I' for Inactive)
REMARK    1  A    between atoms: C12_20  and  O2_5 
REMARK    2  A    between atoms: C5_13  and  O2_5 
REMARK       I    between atoms: C10_18  and  N1_8 
REMARK    3  A    between atoms: C11_19  and  N1_8 
REMARK    4  A    between atoms: C10_18  and  C3_11 
ROOT
HETATM    1  O1  UNK     1      20.315  -7.314  35.888  1.00  0.00    -0.271 OA
HETATM    2  O3  UNK     1      20.322  -5.319  34.773  1.00  0.00    -0.259 OA
HETATM    3  C1  UNK     1      20.090  -7.336  38.308  1.00  0.00     0.002 A 
HETATM    4  C2  UNK     1      20.237  -8.018  37.105  1.00  0.00     0.123 A 
HETATM    5  C3  UNK     1      20.097  -5.219  37.130  1.00  0.00     0.108 A 
HETATM    6  C4  UNK     1      20.021  -5.883  38.290  1.00  0.00     0.037 A 
HETATM    7  C5  UNK     1      20.311  -9.409  37.054  1.00  0.00     0.103 A 
HETATM    8  C6  UNK     1      20.016  -8.070  39.494  1.00  0.00     0.014 A 
HETATM    9  C7  UNK     1      20.235 -10.133  38.242  1.00  0.00     0.040 A 
HETATM   10  C8  UNK     1      20.252  -5.924  35.838  1.00  0.00     0.304 A 
HETATM   11  C9  UNK     1      20.088  -9.465  39.460  1.00  0.00     0.004 A 
ENDROOT
BRANCH   5  12
HETATM   12  C10 UNK     1      20.017  -3.755  37.214  1.00  0.00     0.262 C 
HETATM   13  O4  UNK     1      20.928  -3.129  37.751  1.00  0.00    -0.267 OA
HETATM   14  N1  UNK     1      18.853  -3.268  36.637  1.00  0.00    -0.320 N 
HETATM   15  H5  UNK     1      18.180  -3.924  36.248  1.00  0.00     0.169 HD
BRANCH  14  16
HETATM   16  C11 UNK     1      18.476  -1.924  36.552  1.00  0.00     0.077 A 
HETATM   17  C13 UNK     1      18.731  -1.200  35.389  1.00  0.00     0.184 A 
HETATM   18  F1  UNK     1      19.339  -1.778  34.344  1.00  0.00    -0.200 F 
HETATM   19  C15 UNK     1      18.352   0.140  35.307  1.00  0.00     0.195 A 
HETATM   20  F2  UNK     1      18.599   0.839  34.191  1.00  0.00    -0.199 F 
HETATM   21  C18 UNK     1      17.719   0.753  36.388  1.00  0.00     0.158 A 
HETATM   22  C16 UNK     1      17.465   0.026  37.551  1.00  0.00     0.048 A 
HETATM   23  F3  UNK     1      17.357   2.040  36.310  1.00  0.00    -0.203 F 
HETATM   24  C14 UNK     1      17.843  -1.314  37.633  1.00  0.00     0.036 A 
ENDBRANCH  14  16
ENDBRANCH   5  12
BRANCH   7  25
HETATM   25  O2  UNK     1      20.454 -10.063  35.871  1.00  0.00    -0.349 OA
BRANCH  25  26
HETATM   26  C12 UNK     1      21.463 -11.070  35.802  1.00  0.00     0.171 C 
HETATM   27  C17 UNK     1      22.824 -10.405  35.816  1.00  0.00     0.034 C 
ENDBRANCH  25  26
ENDBRANCH   7  25
TORSDOF 4
ENDMDL
MODEL 4
REMARK VINA RESULT:      -9.2      2.562      3.973
REMARK  4 active torsions:
REMARK  status: ('A' for Active; 'I' for Inactive)
REMARK    1  A    between atoms: C12_20  and  O2_5 
REMARK    2  A    between atoms: C5_13  and  O2_5 
REMARK       I    between atoms: C10_18  and  N1_8 
REMARK    3  A    between atoms: C11_19  and  N1_8 
REMARK    4  A    between atoms: C10_18  and  C3_11 
ROOT
HETATM    1  O1  UNK     1      18.672  -0.136  33.177  1.00  0.00    -0.271 OA
HETATM    2  O3  UNK     1      18.100  -0.212  35.388  1.00  0.00    -0.259 OA
HETATM    3  C1  UNK     1      20.097  -1.872  32.246  1.00  0.00     0.002 A 
HETATM    4  C2  UNK     1      19.360  -0.703  32.086  1.00  0.00     0.123 A 
HETATM    5  C3  UNK     1      19.492  -1.956  34.590  1.00  0.00     0.108 A 
HETATM    6  C4  UNK     1      20.147  -2.500  33.557  1.00  0.00     0.037 A 
HETATM    7  C5  UNK     1      19.273  -0.052  30.857  1.00  0.00     0.103 A 
HETATM    8  C6  UNK     1      20.765  -2.403  31.140  1.00  0.00     0.014 A 
HETATM    9  C7  UNK     1      19.941  -0.589  29.759  1.00  0.00     0.040 A 
HETATM   10  C8  UNK     1      18.701  -0.714  34.443  1.00  0.00     0.304 A 
HETATM   11  C9  UNK     1      20.686  -1.762  29.900  1.00  0.00     0.004 A 
ENDROOT
BRANCH   5  12
HETATM   12  C10 UNK     1      19.603  -2.663  35.872  1.00  0.00     0.262 C 
HETATM   13  O4  UNK     1      19.437  -2.044  36.921  1.00  0.00    -0.267 OA
HETATM   14  N1  UNK     1      19.894  -4.008  35.697  1.00  0.00    -0.320 N 
HETATM   15  H5  UNK     1      20.023  -4.368  34.755  1.00  0.00     0.169 HD
BRANCH  14  16
HETATM   16  C11 UNK     1      20.062  -4.954  36.713  1.00  0.00     0.077 A 
HETATM   17  C13 UNK     1      19.101  -5.943  36.911  1.00  0.00     0.184 A 
HETATM   18  F1  UNK     1      18.009  -6.000  36.137  1.00  0.00    -0.200 F 
HETATM   19  C15 UNK     1      19.274  -6.886  37.926  1.00  0.00     0.195 A 
HETATM   20  F2  UNK     1      18.350  -7.837  38.120  1.00  0.00    -0.199 F 
HETATM   21  C18 UNK     1      20.406  -6.837  38.739  1.00  0.00     0.158 A 
HETATM   22  C16 UNK     1      21.366  -5.845  38.538  1.00  0.00     0.048 A 
HETATM   23  F3  UNK     1      20.570  -7.741  39.712  1.00  0.00    -0.203 F 
HETATM   24  C14 UNK     1      21.194  -4.903  37.524  1.00  0.00     0.036 A 
ENDBRANCH  14  16
ENDBRANCH   5  12
BRANCH   7  25
HETATM   25  O2  UNK     1      18.548   1.090  30.716  1.00  0.00    -0.349 OA
BRANCH  25  26
HETATM   26  C12 UNK     1      18.922   1.969  29.656  1.00  0.00     0.171 C 
HETATM   27  C17 UNK     1      17.815   1.994  28.623  1.00  0.00     0.034 C 
ENDBRANCH  25  26
ENDBRANCH   7  25
TORSDOF 4
ENDMDL
MODEL 5
REMARK VINA RESULT:      -9.1      2.213      2.453
REMARK  4 active torsions:
REMARK  status: ('A' for Active; 'I' for Inactive)
REMARK    1  A    between atoms: C12_20  and  O2_5 
REMARK    2  A    between atoms: C5_13  and  O2_5 
REMARK       I    between atoms: C10_18  and  N1_8 
REMARK    3  A    between atoms: C11_19  and  N1_8 
REMARK    4  A    between atoms: C10_18  and  C3_11 
ROOT
HETATM    1  O1  UNK     1      19.673  -0.901  34.895  1.00  0.00    -0.271 OA
HETATM    2  O3  UNK     1      20.761  -2.764  34.141  1.00  0.00    -0.259 OA
HETATM    3  C1  UNK     1      18.479  -0.982  37.012  1.00  0.00     0.002 A 
HETATM    4  C2  UNK     1      18.884  -0.278  35.882  1.00  0.00     0.123 A 
HETATM    5  C3  UNK     1      19.632  -2.959  36.215  1.00  0.00     0.108 A 
HETATM    6  C4  UNK     1      18.883  -2.372  37.157  1.00  0.00     0.037 A 
HETATM    7  C5  UNK     1      18.530   1.055  35.682  1.00  0.00     0.103 A 
HETATM    8  C6  UNK     1      17.698  -0.330  37.968  1.00  0.00     0.014 A 
HETATM    9  C7  UNK     1      17.751   1.698  36.641  1.00  0.00     0.040 A 
HETATM   10  C8  UNK     1      20.074  -2.229  35.006  1.00  0.00     0.304 A 
HETATM   11  C9  UNK     1      17.336   1.008  37.782  1.00  0.00     0.004 A 
ENDROOT
BRANCH   5  12
HETATM   12  C10 UNK     1      19.989  -4.363  36.453  1.00  0.00     0.262 C 
HETATM   13  O4  UNK     1      20.105  -5.128  35.498  1.00  0.00    -0.267 OA
HETATM   14  N1  UNK     1      20.154  -4.633  37.803  1.00  0.00    -0.320 N 
HETATM   15  H5  UNK     1      20.001  -3.889  38.480  1.00  0.00     0.169 HD
BRANCH  14  16
HETATM   16  C11 UNK     1      20.495  -5.869  38.361  1.00  0.00     0.077 A 
HETATM   17  C13 UNK     1      21.820  -6.142  38.695  1.00  0.00     0.184 A 
HETATM   18  F1  UNK     1      22.780  -5.230  38.486  1.00  0.00    -0.200 F 
HETATM   19  C15 UNK     1      22.156  -7.376  39.252  1.00  0.00     0.195 A 
HETATM   20  F2  UNK     1      23.430  -7.642  39.572  1.00  0.00    -0.199 F 
HETATM   21  C18 UNK     1      21.167  -8.334  39.474  1.00  0.00     0.158 A 
HETATM   22  C16 UNK     1      19.842  -8.058  39.139  1.00  0.00     0.048 A 
HETATM   23  F3  UNK     1      21.490  -9.519  40.009  1.00  0.00    -0.203 F 
HETATM   24  C14 UNK     1      19.505  -6.824  38.583  1.00  0.00     0.036 A 
ENDBRANCH  14  16
ENDBRANCH   5  12
BRANCH   7  25
HETATM   25  O2  UNK     1      18.933   1.730  34.573  1.00  0.00    -0.349 OA
BRANCH  25  26
HETATM   26  C12 UNK     1      17.990   1.853  33.509  1.00  0.00     0.171 C 
HETATM   27  C17 UNK     1      18.683   1.545  32.198  1.00  0.00     0.034 C 
ENDBRANCH  25  26
ENDBRANCH   7  25
TORSDOF 4
ENDMDL
MODEL 6
REMARK VINA RESULT:      -9.1      3.338      8.460
REMARK  4 active torsions:
REMARK  status: ('A' for Active; 'I' for Inactive)
REMARK    1  A    between atoms: C12_20  and  O2_5 
REMARK    2  A    between atoms: C5_13  and  O2_5 
REMARK       I    between atoms: C10_18  and  N1_8 
REMARK    3  A    between atoms: C11_19  and  N1_8 
REMARK    4  A    between atoms: C10_18  and  C3_11 
ROOT
HETATM    1  O1  UNK     1      20.155  -7.398  35.865  1.00  0.00    -0.271 OA
HETATM    2  O3  UNK     1      20.225  -5.697  34.341  1.00  0.00    -0.259 OA
HETATM    3  C1  UNK     1      20.065  -6.881  38.239  1.00  0.00     0.002 A 
HETATM    4  C2  UNK     1      20.102  -7.816  37.209  1.00  0.00     0.123 A 
HETATM    5  C3  UNK     1      20.139  -5.074  36.626  1.00  0.00     0.108 A 
HETATM    6  C4  UNK     1      20.086  -5.465  37.905  1.00  0.00     0.037 A 
HETATM    7  C5  UNK     1      20.085  -9.186  37.461  1.00  0.00     0.103 A 
HETATM    8  C6  UNK     1      20.012  -7.334  39.558  1.00  0.00     0.014 A 
HETATM    9  C7  UNK     1      20.030  -9.630  38.781  1.00  0.00     0.040 A 
HETATM   10  C8  UNK     1      20.176  -6.051  35.515  1.00  0.00     0.304 A 
HETATM   11  C9  UNK     1      19.994  -8.706  39.828  1.00  0.00     0.004 A 
ENDROOT
BRANCH   5  12
HETATM   12  C10 UNK     1      20.155  -3.625  36.391  1.00  0.00     0.262 C 
HETATM   13  O4  UNK     1      21.222  -3.062  36.155  1.00  0.00    -0.267 OA
HETATM   14  N1  UNK     1      18.884  -3.074  36.472  1.00  0.00    -0.320 N 
HETATM   15  H5  UNK     1      18.096  -3.677  36.698  1.00  0.00     0.169 HD
BRANCH  14  16
HETATM   16  C11 UNK     1      18.558  -1.726  36.299  1.00  0.00     0.077 A 
HETATM   17  C13 UNK     1      18.284  -0.926  37.406  1.00  0.00     0.184 A 
HETATM   18  F1  UNK     1      18.329  -1.435  38.645  1.00  0.00    -0.200 F 
HETATM   19  C15 UNK     1      17.959   0.420  37.229  1.00  0.00     0.195 A 
HETATM   20  F2  UNK     1      17.694   1.190  38.292  1.00  0.00    -0.199 F 
HETATM   21  C18 UNK     1      17.909   0.961  35.944  1.00  0.00     0.158 A 
HETATM   22  C16 UNK     1      18.183   0.158  34.838  1.00  0.00     0.048 A 
HETATM   23  F3  UNK     1      17.596   2.252  35.774  1.00  0.00    -0.203 F 
HETATM   24  C14 UNK     1      18.508  -1.187  35.015  1.00  0.00     0.036 A 
ENDBRANCH  14  16
ENDBRANCH   5  12
BRANCH   7  25
HETATM   25  O2  UNK     1      20.120 -10.089  36.445  1.00  0.00    -0.349 OA
BRANCH  25  26
HETATM   26  C12 UNK     1      21.283 -10.910  36.345  1.00  0.00     0.171 C 
HETATM   27  C17 UNK     1      22.024 -10.564  35.071  1.00  0.00     0.034 C 
ENDBRANCH  25  26
ENDBRANCH   7  25
TORSDOF 4
ENDMDL
MODEL 7
REMARK VINA RESULT:      -9.1     19.075     21.888
REMARK  4 active torsions:
REMARK  status: ('A' for Active; 'I' for Inactive)
REMARK    1  A    between atoms: C12_20  and  O2_5 
REMARK    2  A    between atoms: C5_13  and  O2_5 
REMARK       I    between atoms: C10_18  and  N1_8 
REMARK    3  A    between atoms: C11_19  and  N1_8 
REMARK    4  A    between atoms: C10_18  and  C3_11 
ROOT
HETATM    1  O1  UNK     1      19.331  -2.533  13.070  1.00  0.00    -0.271 OA
HETATM    2  O3  UNK     1      19.400  -0.523  14.154  1.00  0.00    -0.259 OA
HETATM    3  C1  UNK     1      18.338  -4.458  14.174  1.00  0.00     0.002 A 
HETATM    4  C2  UNK     1      18.968  -3.894  13.069  1.00  0.00     0.123 A 
HETATM    5  C3  UNK     1      18.410  -2.329  15.326  1.00  0.00     0.108 A 
HETATM    6  C4  UNK     1      18.062  -3.621  15.331  1.00  0.00     0.037 A 
HETATM    7  C5  UNK     1      19.261  -4.642  11.930  1.00  0.00     0.103 A 
HETATM    8  C6  UNK     1      17.994  -5.811  14.135  1.00  0.00     0.014 A 
HETATM    9  C7  UNK     1      18.914  -5.990  11.899  1.00  0.00     0.040 A 
HETATM   10  C8  UNK     1      19.079  -1.707  14.162  1.00  0.00     0.304 A 
HETATM   11  C9  UNK     1      18.281  -6.574  12.999  1.00  0.00     0.004 A 
ENDROOT
BRANCH   5  12
HETATM   12  C10 UNK     1      18.089  -1.566  16.539  1.00  0.00     0.262 C 
HETATM   13  O4  UNK     1      16.982  -1.694  17.058  1.00  0.00    -0.267 OA
HETATM   14  N1  UNK     1      19.149  -0.768  16.945  1.00  0.00    -0.320 N 
HETATM   15  H5  UNK     1      20.001  -0.758  16.390  1.00  0.00     0.169 HD
BRANCH  14  16
HETATM   16  C11 UNK     1      19.166   0.076  18.059  1.00  0.00     0.077 A 
HETATM   17  C13 UNK     1      19.161   1.459  17.887  1.00  0.00     0.184 A 
HETATM   18  F1  UNK     1      19.140   1.994  16.658  1.00  0.00    -0.200 F 
HETATM   19  C15 UNK     1      19.177   2.298  19.001  1.00  0.00     0.195 A 
HETATM   20  F2  UNK     1      19.175   3.627  18.838  1.00  0.00    -0.199 F 
HETATM   21  C18 UNK     1      19.199   1.753  20.285  1.00  0.00     0.158 A 
HETATM   22  C16 UNK     1      19.205   0.368  20.454  1.00  0.00     0.048 A 
HETATM   23  F3  UNK     1      19.216   2.558  21.354  1.00  0.00    -0.203 F 
HETATM   24  C14 UNK     1      19.187  -0.471  19.340  1.00  0.00     0.036 A 
ENDBRANCH  14  16
ENDBRANCH   5  12
BRANCH   7  25
HETATM   25  O2  UNK     1      19.877  -4.076  10.857  1.00  0.00    -0.349 OA
BRANCH  25  26
HETATM   26  C12 UNK     1      19.072  -3.823   9.706  1.00  0.00     0.171 C 
HETATM   27  C17 UNK     1      19.971  -3.441   8.550  1.00  0.00     0.034 C 
ENDBRANCH  25  26
ENDBRANCH   7  25
TORSDOF 4
ENDMDL
MODEL 8
REMARK VINA RESULT:      -8.6      7.679     12.076
REMARK  4 active torsions:
REMARK  status: ('A' for Active; 'I' for Inactive)
REMARK    1  A    between atoms: C12_20  and  O2_5 
REMARK    2  A    between atoms: C5_13  and  O2_5 
REMARK       I    between atoms: C10_18  and  N1_8 
REMARK    3  A    between atoms: C11_19  and  N1_8 
REMARK    4  A    between atoms: C10_18  and  C3_11 
ROOT
HETATM    1  O1  UNK     1      18.224   1.706  32.124  1.00  0.00    -0.271 OA
HETATM    2  O3  UNK     1      18.110   3.391  30.584  1.00  0.00    -0.259 OA
HETATM    3  C1  UNK     1      18.349   2.250  34.491  1.00  0.00     0.002 A 
HETATM    4  C2  UNK     1      18.308   1.304  33.471  1.00  0.00     0.123 A 
HETATM    5  C3  UNK     1      18.228   4.038  32.861  1.00  0.00     0.108 A 
HETATM    6  C4  UNK     1      18.307   3.662  34.143  1.00  0.00     0.037 A 
HETATM    7  C5  UNK     1      18.346  -0.064  33.737  1.00  0.00     0.103 A 
HETATM    8  C6  UNK     1      18.432   1.811  35.814  1.00  0.00     0.014 A 
HETATM    9  C7  UNK     1      18.427  -0.493  35.060  1.00  0.00     0.040 A 
HETATM   10  C8  UNK     1      18.182   3.049  31.761  1.00  0.00     0.304 A 
HETATM   11  C9  UNK     1      18.470   0.442  36.097  1.00  0.00     0.004 A 
ENDROOT
BRANCH   5  12
HETATM   12  C10 UNK     1      18.190   5.485  32.611  1.00  0.00     0.262 C 
HETATM   13  O4  UNK     1      18.561   5.921  31.524  1.00  0.00    -0.267 OA
HETATM   14  N1  UNK     1      17.709   6.185  33.707  1.00  0.00    -0.320 N 
HETATM   15  H5  UNK     1      17.460   5.675  34.551  1.00  0.00     0.169 HD
BRANCH  14  16
HETATM   16  C11 UNK     1      17.547   7.572  33.794  1.00  0.00     0.077 A 
HETATM   17  C13 UNK     1      18.662   8.397  33.926  1.00  0.00     0.184 A 
HETATM   18  F1  UNK     1      19.896   7.876  33.975  1.00  0.00    -0.200 F 
HETATM   19  C15 UNK     1      18.497   9.780  34.012  1.00  0.00     0.195 A 
HETATM   20  F2  UNK     1      19.567  10.575  34.142  1.00  0.00    -0.199 F 
HETATM   21  C18 UNK     1      17.218  10.334  33.963  1.00  0.00     0.158 A 
HETATM   22  C16 UNK     1      16.104   9.505  33.830  1.00  0.00     0.048 A 
HETATM   23  F3  UNK     1      17.060  11.661  34.046  1.00  0.00    -0.203 F 
HETATM   24  C14 UNK     1      16.269   8.123  33.745  1.00  0.00     0.036 A 
ENDBRANCH  14  16
ENDBRANCH   5  12
BRANCH   7  25
HETATM   25  O2  UNK     1      18.304  -0.977  32.730  1.00  0.00    -0.349 OA
BRANCH  25  26
HETATM   26  C12 UNK     1      19.513  -1.676  32.437  1.00  0.00     0.171 C 
HETATM   27  C17 UNK     1      20.046  -1.202  31.102  1.00  0.00     0.034 C 
ENDBRANCH  25  26
ENDBRANCH   7  25
TORSDOF 4
ENDMDL
MODEL 9
REMARK VINA RESULT:      -8.5      7.683     11.951
REMARK  4 active torsions:
REMARK  status: ('A' for Active; 'I' for Inactive)
REMARK    1  A    between atoms: C12_20  and  O2_5 
REMARK    2  A    between atoms: C5_13  and  O2_5 
REMARK       I    between atoms: C10_18  and  N1_8 
REMARK    3  A    between atoms: C11_19  and  N1_8 
REMARK    4  A    between atoms: C10_18  and  C3_11 
ROOT
HETATM    1  O1  UNK     1      18.268   1.663  32.203  1.00  0.00    -0.271 OA
HETATM    2  O3  UNK     1      18.240   3.359  30.672  1.00  0.00    -0.259 OA
HETATM    3  C1  UNK     1      18.340   2.190  34.576  1.00  0.00     0.002 A 
HETATM    4  C2  UNK     1      18.304   1.251  33.549  1.00  0.00     0.123 A 
HETATM    5  C3  UNK     1      18.309   3.990  32.955  1.00  0.00     0.108 A 
HETATM    6  C4  UNK     1      18.342   3.604  34.236  1.00  0.00     0.037 A 
HETATM    7  C5  UNK     1      18.300  -0.119  33.807  1.00  0.00     0.103 A 
HETATM    8  C6  UNK     1      18.374   1.741  35.898  1.00  0.00     0.014 A 
HETATM    9  C7  UNK     1      18.334  -0.557  35.129  1.00  0.00     0.040 A 
HETATM   10  C8  UNK     1      18.269   3.009  31.847  1.00  0.00     0.304 A 
HETATM   11  C9  UNK     1      18.370   0.370  36.173  1.00  0.00     0.004 A 
ENDROOT
BRANCH   5  12
HETATM   12  C10 UNK     1      18.314   5.438  32.714  1.00  0.00     0.262 C 
HETATM   13  O4  UNK     1      18.126   5.863  31.576  1.00  0.00    -0.267 OA
HETATM   14  N1  UNK     1      18.541   6.156  33.879  1.00  0.00    -0.320 N 
HETATM   15  H5  UNK     1      18.700   5.651  34.748  1.00  0.00     0.169 HD
BRANCH  14  16
HETATM   16  C11 UNK     1      18.604   7.548  33.992  1.00  0.00     0.077 A 
HETATM   17  C13 UNK     1      17.450   8.313  33.834  1.00  0.00     0.184 A 
HETATM   18  F1  UNK     1      16.273   7.729  33.574  1.00  0.00    -0.200 F 
HETATM   19  C15 UNK     1      17.518   9.703  33.948  1.00  0.00     0.195 A 
HETATM   20  F2  UNK     1      16.410  10.441  33.795  1.00  0.00    -0.199 F 
HETATM   21  C18 UNK     1      18.738  10.322  34.218  1.00  0.00     0.158 A 
HETATM   22  C16 UNK     1      19.890   9.553  34.375  1.00  0.00     0.048 A 
HETATM   23  F3  UNK     1      18.802  11.655  34.326  1.00  0.00    -0.203 F 
HETATM   24  C14 UNK     1      19.823   8.165  34.262  1.00  0.00     0.036 A 
ENDBRANCH  14  16
ENDBRANCH   5  12
BRANCH   7  25
HETATM   25  O2  UNK     1      18.264  -1.025  32.794  1.00  0.00    -0.349 OA
BRANCH  25  26
HETATM   26  C12 UNK     1      19.479  -1.711  32.493  1.00  0.00     0.171 C 
HETATM   27  C17 UNK     1      20.037  -1.179  31.190  1.00  0.00     0.034 C 
ENDBRANCH  25  26
ENDBRANCH   7  25
TORSDOF 4
ENDMDL
MODEL 10
REMARK VINA RESULT:      -8.5     19.234     22.160
REMARK  4 active torsions:
REMARK  status: ('A' for Active; 'I' for Inactive)
REMARK    1  A    between atoms: C12_20  and  O2_5 
REMARK    2  A    between atoms: C5_13  and  O2_5 
REMARK       I    between atoms: C10_18  and  N1_8 
REMARK    3  A    between atoms: C11_19  and  N1_8 
REMARK    4  A    between atoms: C10_18  and  C3_11 
ROOT
HETATM    1  O1  UNK     1      18.340  -4.434  13.748  1.00  0.00    -0.271 OA
HETATM    2  O3  UNK     1      17.370  -4.465  15.818  1.00  0.00    -0.259 OA
HETATM    3  C1  UNK     1      19.410  -2.401  12.955  1.00  0.00     0.002 A 
HETATM    4  C2  UNK     1      19.043  -3.728  12.754  1.00  0.00     0.123 A 
HETATM    5  C3  UNK     1      18.384  -2.430  15.149  1.00  0.00     0.108 A 
HETATM    6  C4  UNK     1      19.054  -1.754  14.208  1.00  0.00     0.037 A 
HETATM    7  C5  UNK     1      19.354  -4.404  11.576  1.00  0.00     0.103 A 
HETATM    8  C6  UNK     1      20.107  -1.734  11.945  1.00  0.00     0.014 A 
HETATM    9  C7  UNK     1      20.050  -3.732  10.574  1.00  0.00     0.040 A 
HETATM   10  C8  UNK     1      17.985  -3.843  14.958  1.00  0.00     0.304 A 
HETATM   11  C9  UNK     1      20.426  -2.400  10.758  1.00  0.00     0.004 A 
ENDROOT
BRANCH   5  12
HETATM   12  C10 UNK     1      18.071  -1.692  16.379  1.00  0.00     0.262 C 
HETATM   13  O4  UNK     1      16.995  -1.883  16.943  1.00  0.00    -0.267 OA
HETATM   14  N1  UNK     1      19.101  -0.838  16.745  1.00  0.00    -0.320 N 
HETATM   15  H5  UNK     1      19.928  -0.778  16.156  1.00  0.00     0.169 HD
BRANCH  14  16
HETATM   16  C11 UNK     1      19.117   0.002  17.863  1.00  0.00     0.077 A 
HETATM   17  C13 UNK     1      19.116   1.386  17.696  1.00  0.00     0.184 A 
HETATM   18  F1  UNK     1      19.101   1.926  16.470  1.00  0.00    -0.200 F 
HETATM   19  C15 UNK     1      19.132   2.220  18.814  1.00  0.00     0.195 A 
HETATM   20  F2  UNK     1      19.134   3.551  18.656  1.00  0.00    -0.199 F 
HETATM   21  C18 UNK     1      19.149   1.670  20.096  1.00  0.00     0.158 A 
HETATM   22  C16 UNK     1      19.150   0.285  20.259  1.00  0.00     0.048 A 
HETATM   23  F3  UNK     1      19.165   2.471  21.168  1.00  0.00    -0.203 F 
HETATM   24  C14 UNK     1      19.133  -0.550  19.142  1.00  0.00     0.036 A 
ENDBRANCH  14  16
ENDBRANCH   5  12
BRANCH   7  25
HETATM   25  O2  UNK     1      18.989  -5.702  11.393  1.00  0.00    -0.349 OA
BRANCH  25  26
HETATM   26  C12 UNK     1      18.313  -6.021  10.177  1.00  0.00     0.171 C 
HETATM   27  C17 UNK     1      19.095  -7.092   9.446  1.00  0.00     0.034 C 
ENDBRANCH  25  26
ENDBRANCH   7  25
TORSDOF 4
ENDMDL
