MODEL 1
REMARK VINA RESULT:      -9.2      0.000      0.000
REMARK  6 active torsions:
REMARK  status: ('A' for Active; 'I' for Inactive)
REMARK    1  A    between atoms: C17_24  and  O2_2 
REMARK    2  A    between atoms: C5_12  and  O2_2 
REMARK    3  A    between atoms: C13_20  and  O3_3 
REMARK    4  A    between atoms: C15_22  and  O4_4 
REMARK    5  A    between atoms: C10_17  and  N1_7 
REMARK       I    between atoms: C8_15  and  N1_7 
REMARK    6  A    between atoms: C3_10  and  C8_15 
ROOT
HETATM    1  O1  UNK     1      18.726   0.724  32.601  1.00  0.00    -0.271 OA
HETATM    2  O5  UNK     1      17.918   2.635  33.559  1.00  0.00    -0.259 OA
HETATM    3  C1  UNK     1      19.503   0.774  30.298  1.00  0.00     0.002 A 
HETATM    4  C2  UNK     1      19.275   0.074  31.478  1.00  0.00     0.123 A 
HETATM    5  C3  UNK     1      18.644   2.801  31.310  1.00  0.00     0.108 A 
HETATM    6  C4  UNK     1      19.165   2.187  30.240  1.00  0.00     0.037 A 
HETATM    7  C5  UNK     1      19.576  -1.281  31.598  1.00  0.00     0.103 A 
HETATM    8  C6  UNK     1      20.049   0.094  29.206  1.00  0.00     0.014 A 
HETATM    9  C7  UNK     1      18.394   2.077  32.577  1.00  0.00     0.304 A 
HETATM   10  C9  UNK     1      20.119  -1.952  30.505  1.00  0.00     0.040 A 
HETATM   11  C11 UNK     1      20.355  -1.266  29.311  1.00  0.00     0.004 A 
ENDROOT
BRANCH   5  12
HETATM   12  C8  UNK     1      18.338   4.228  31.155  1.00  0.00     0.262 C 
HETATM   13  O6  UNK     1      18.642   4.808  30.114  1.00  0.00    -0.267 OA
HETATM   14  N1  UNK     1      17.709   4.752  32.275  1.00  0.00    -0.323 N 
HETATM   15  H5  UNK     1      17.505   4.129  33.053  1.00  0.00     0.169 HD
BRANCH  14  16
HETATM   16  C10 UNK     1      17.271   6.085  32.475  1.00  0.00     0.037 A 
HETATM   17  C14 UNK     1      15.983   6.435  32.109  1.00  0.00     0.032 A 
HETATM   18  C16 UNK     1      15.550   7.746  32.307  1.00  0.00     0.042 A 
HETATM   19  C15 UNK     1      16.413   8.687  32.868  1.00  0.00     0.101 A 
HETATM   20  C13 UNK     1      17.709   8.318  33.230  1.00  0.00     0.103 A 
HETATM   21  C12 UNK     1      18.140   7.007  33.032  1.00  0.00     0.069 A 
BRANCH  19  22
HETATM   22  O4  UNK     1      15.980   9.966  33.054  1.00  0.00    -0.353 OA
HETATM   23  C20 UNK     1      14.578  10.154  33.236  1.00  0.00     0.210 C 
ENDBRANCH  19  22
BRANCH  20  24
HETATM   24  O3  UNK     1      18.561   9.229  33.778  1.00  0.00    -0.353 OA
HETATM   25  C19 UNK     1      19.713   8.718  34.445  1.00  0.00     0.210 C 
ENDBRANCH  20  24
ENDBRANCH  14  16
ENDBRANCH   5  12
BRANCH   7  26
HETATM   26  O2  UNK     1      19.347  -1.953  32.758  1.00  0.00    -0.349 OA
BRANCH  26  27
HETATM   27  C17 UNK     1      20.487  -2.465  33.448  1.00  0.00     0.171 C 
HETATM   28  C18 UNK     1      20.210  -2.451  34.936  1.00  0.00     0.034 C 
ENDBRANCH  26  27
ENDBRANCH   7  26
TORSDOF 6
ENDMDL
MODEL 2
REMARK VINA RESULT:      -9.1      5.478     12.347
REMARK  6 active torsions:
REMARK  status: ('A' for Active; 'I' for Inactive)
REMARK    1  A    between atoms: C17_24  and  O2_2 
REMARK    2  A    between atoms: C5_12  and  O2_2 
REMARK    3  A    between atoms: C13_20  and  O3_3 
REMARK    4  A    between atoms: C15_22  and  O4_4 
REMARK    5  A    between atoms: C10_17  and  N1_7 
REMARK       I    between atoms: C8_15  and  N1_7 
REMARK    6  A    between atoms: C3_10  and  C8_15 
ROOT
HETATM    1  O1  UNK     1      19.365  -0.798  34.728  1.00  0.00    -0.271 OA
HETATM    2  O5  UNK     1      20.474  -2.689  34.080  1.00  0.00    -0.259 OA
HETATM    3  C1  UNK     1      18.366  -0.692  36.941  1.00  0.00     0.002 A 
HETATM    4  C2  UNK     1      18.636  -0.101  35.711  1.00  0.00     0.123 A 
HETATM    5  C3  UNK     1      19.538  -2.699  36.257  1.00  0.00     0.108 A 
HETATM    6  C4  UNK     1      18.846  -2.041  37.195  1.00  0.00     0.037 A 
HETATM    7  C5  UNK     1      18.204   1.188  35.405  1.00  0.00     0.103 A 
HETATM    8  C6  UNK     1      17.640   0.032  37.891  1.00  0.00     0.014 A 
HETATM    9  C7  UNK     1      19.839  -2.090  34.942  1.00  0.00     0.304 A 
HETATM   10  C9  UNK     1      17.481   1.902  36.358  1.00  0.00     0.040 A 
HETATM   11  C11 UNK     1      17.200   1.325  37.599  1.00  0.00     0.004 A 
ENDROOT
BRANCH   5  12
HETATM   12  C8  UNK     1      19.981  -4.054  36.608  1.00  0.00     0.262 C 
HETATM   13  O6  UNK     1      21.176  -4.276  36.793  1.00  0.00    -0.267 OA
HETATM   14  N1  UNK     1      18.921  -4.947  36.684  1.00  0.00    -0.323 N 
HETATM   15  H5  UNK     1      17.980  -4.596  36.522  1.00  0.00     0.169 HD
BRANCH  14  16
HETATM   16  C10 UNK     1      18.976  -6.328  36.995  1.00  0.00     0.037 A 
HETATM   17  C14 UNK     1      18.441  -7.243  36.105  1.00  0.00     0.032 A 
HETATM   18  C16 UNK     1      18.496  -8.603  36.409  1.00  0.00     0.042 A 
HETATM   19  C15 UNK     1      19.083  -9.027  37.601  1.00  0.00     0.101 A 
HETATM   20  C13 UNK     1      19.615  -8.092  38.489  1.00  0.00     0.103 A 
HETATM   21  C12 UNK     1      19.561  -6.732  38.183  1.00  0.00     0.069 A 
BRANCH  19  22
HETATM   22  O4  UNK     1      19.128 -10.358  37.889  1.00  0.00    -0.353 OA
HETATM   23  C20 UNK     1      20.164 -11.120  37.271  1.00  0.00     0.210 C 
ENDBRANCH  19  22
BRANCH  20  24
HETATM   24  O3  UNK     1      20.191  -8.493  39.656  1.00  0.00    -0.353 OA
HETATM   25  C19 UNK     1      21.615  -8.550  39.689  1.00  0.00     0.210 C 
ENDBRANCH  20  24
ENDBRANCH  14  16
ENDBRANCH   5  12
BRANCH   7  26
HETATM   26  O2  UNK     1      18.476   1.753  34.198  1.00  0.00    -0.349 OA
BRANCH  26  27
HETATM   27  C17 UNK     1      18.262   3.159  34.076  1.00  0.00     0.171 C 
HETATM   28  C18 UNK     1      18.182   3.519  32.608  1.00  0.00     0.034 C 
ENDBRANCH  26  27
ENDBRANCH   7  26
TORSDOF 6
ENDMDL
MODEL 3
REMARK VINA RESULT:      -9.0      5.258     10.963
REMARK  6 active torsions:
REMARK  status: ('A' for Active; 'I' for Inactive)
REMARK    1  A    between atoms: C17_24  and  O2_2 
REMARK    2  A    between atoms: C5_12  and  O2_2 
REMARK    3  A    between atoms: C13_20  and  O3_3 
REMARK    4  A    between atoms: C15_22  and  O4_4 
REMARK    5  A    between atoms: C10_17  and  N1_7 
REMARK       I    between atoms: C8_15  and  N1_7 
REMARK    6  A    between atoms: C3_10  and  C8_15 
ROOT
HETATM    1  O1  UNK     1      18.889  -0.301  33.226  1.00  0.00    -0.271 OA
HETATM    2  O5  UNK     1      18.454  -0.458  35.464  1.00  0.00    -0.259 OA
HETATM    3  C1  UNK     1      20.238  -2.011  32.144  1.00  0.00     0.002 A 
HETATM    4  C2  UNK     1      19.503  -0.832  32.074  1.00  0.00     0.123 A 
HETATM    5  C3  UNK     1      19.780  -2.178  34.517  1.00  0.00     0.108 A 
HETATM    6  C4  UNK     1      20.365  -2.686  33.426  1.00  0.00     0.037 A 
HETATM    7  C5  UNK     1      19.343  -0.136  30.877  1.00  0.00     0.103 A 
HETATM    8  C6  UNK     1      20.831  -2.505  30.979  1.00  0.00     0.014 A 
HETATM    9  C7  UNK     1      18.992  -0.926  34.466  1.00  0.00     0.304 A 
HETATM   10  C9  UNK     1      19.938  -0.636  29.721  1.00  0.00     0.040 A 
HETATM   11  C11 UNK     1      20.680  -1.818  29.772  1.00  0.00     0.004 A 
ENDROOT
BRANCH   5  12
HETATM   12  C8  UNK     1      19.964  -2.932  35.763  1.00  0.00     0.262 C 
HETATM   13  O6  UNK     1      20.401  -2.362  36.762  1.00  0.00    -0.267 OA
HETATM   14  N1  UNK     1      19.598  -4.264  35.628  1.00  0.00    -0.323 N 
HETATM   15  H5  UNK     1      19.231  -4.576  34.732  1.00  0.00     0.169 HD
BRANCH  14  16
HETATM   16  C10 UNK     1      19.642  -5.277  36.618  1.00  0.00     0.037 A 
HETATM   17  C14 UNK     1      18.584  -6.162  36.726  1.00  0.00     0.032 A 
HETATM   18  C16 UNK     1      18.628  -7.161  37.698  1.00  0.00     0.042 A 
HETATM   19  C15 UNK     1      19.729  -7.258  38.550  1.00  0.00     0.101 A 
HETATM   20  C13 UNK     1      20.786  -6.356  38.428  1.00  0.00     0.103 A 
HETATM   21  C12 UNK     1      20.742  -5.358  37.454  1.00  0.00     0.069 A 
BRANCH  19  22
HETATM   22  O4  UNK     1      19.758  -8.236  39.497  1.00  0.00    -0.353 OA
HETATM   23  C20 UNK     1      20.044  -9.561  39.052  1.00  0.00     0.210 C 
ENDBRANCH  19  22
BRANCH  20  24
HETATM   24  O3  UNK     1      21.867  -6.440  39.253  1.00  0.00    -0.353 OA
HETATM   25  C19 UNK     1      22.991  -7.174  38.775  1.00  0.00     0.210 C 
ENDBRANCH  20  24
ENDBRANCH  14  16
ENDBRANCH   5  12
BRANCH   7  26
HETATM   26  O2  UNK     1      18.621   1.015  30.823  1.00  0.00    -0.349 OA
BRANCH  26  27
HETATM   27  C17 UNK     1      18.964   1.950  29.800  1.00  0.00     0.171 C 
HETATM   28  C18 UNK     1      17.849   1.992  28.778  1.00  0.00     0.034 C 
ENDBRANCH  26  27
ENDBRANCH   7  26
TORSDOF 6
ENDMDL
MODEL 4
REMARK VINA RESULT:      -8.9     14.999     17.890
REMARK  6 active torsions:
REMARK  status: ('A' for Active; 'I' for Inactive)
REMARK    1  A    between atoms: C17_24  and  O2_2 
REMARK    2  A    between atoms: C5_12  and  O2_2 
REMARK    3  A    between atoms: C13_20  and  O3_3 
REMARK    4  A    between atoms: C15_22  and  O4_4 
REMARK    5  A    between atoms: C10_17  and  N1_7 
REMARK       I    between atoms: C8_15  and  N1_7 
REMARK    6  A    between atoms: C3_10  and  C8_15 
ROOT
HETATM    1  O1  UNK     1      19.231  -2.454  12.779  1.00  0.00    -0.271 OA
HETATM    2  O5  UNK     1      19.148  -0.488  13.942  1.00  0.00    -0.259 OA
HETATM    3  C1  UNK     1      18.462  -4.505  13.833  1.00  0.00     0.002 A 
HETATM    4  C2  UNK     1      18.997  -3.842  12.733  1.00  0.00     0.123 A 
HETATM    5  C3  UNK     1      18.374  -2.423  15.070  1.00  0.00     0.108 A 
HETATM    6  C4  UNK     1      18.151  -3.742  15.032  1.00  0.00     0.037 A 
HETATM    7  C5  UNK     1      19.318  -4.514  11.555  1.00  0.00     0.103 A 
HETATM    8  C6  UNK     1      18.244  -5.882  13.749  1.00  0.00     0.014 A 
HETATM    9  C7  UNK     1      18.941  -1.697  13.911  1.00  0.00     0.304 A 
HETATM   10  C9  UNK     1      19.098  -5.888  11.480  1.00  0.00     0.040 A 
HETATM   11  C11 UNK     1      18.562  -6.570  12.575  1.00  0.00     0.004 A 
ENDROOT
BRANCH   5  12
HETATM   12  C8  UNK     1      18.026  -1.741  16.322  1.00  0.00     0.262 C 
HETATM   13  O6  UNK     1      16.955  -1.989  16.874  1.00  0.00    -0.267 OA
HETATM   14  N1  UNK     1      19.017  -0.860  16.731  1.00  0.00    -0.323 N 
HETATM   15  H5  UNK     1      19.862  -0.786  16.168  1.00  0.00     0.169 HD
BRANCH  14  16
HETATM   16  C10 UNK     1      19.020  -0.038  17.884  1.00  0.00     0.037 A 
HETATM   17  C14 UNK     1      18.967  -0.629  19.135  1.00  0.00     0.032 A 
HETATM   18  C16 UNK     1      18.971   0.179  20.271  1.00  0.00     0.042 A 
HETATM   19  C15 UNK     1      19.027   1.566  20.141  1.00  0.00     0.101 A 
HETATM   20  C13 UNK     1      19.079   2.147  18.873  1.00  0.00     0.103 A 
HETATM   21  C12 UNK     1      19.075   1.337  17.736  1.00  0.00     0.069 A 
BRANCH  19  22
HETATM   22  O4  UNK     1      19.028   2.345  21.258  1.00  0.00    -0.353 OA
HETATM   23  C20 UNK     1      20.195   2.301  22.078  1.00  0.00     0.210 C 
ENDBRANCH  19  22
BRANCH  20  24
HETATM   24  O3  UNK     1      19.134   3.500  18.732  1.00  0.00    -0.353 OA
HETATM   25  C19 UNK     1      20.422   4.078  18.532  1.00  0.00     0.210 C 
ENDBRANCH  20  24
ENDBRANCH  14  16
ENDBRANCH   5  12
BRANCH   7  26
HETATM   26  O2  UNK     1      19.840  -3.853  10.488  1.00  0.00    -0.349 OA
BRANCH  26  27
HETATM   27  C17 UNK     1      20.974  -4.441   9.850  1.00  0.00     0.171 C 
HETATM   28  C18 UNK     1      21.717  -3.370   9.081  1.00  0.00     0.034 C 
ENDBRANCH  26  27
ENDBRANCH   7  26
TORSDOF 6
ENDMDL
MODEL 5
REMARK VINA RESULT:      -8.8      4.570     10.903
REMARK  6 active torsions:
REMARK  status: ('A' for Active; 'I' for Inactive)
REMARK    1  A    between atoms: C17_24  and  O2_2 
REMARK    2  A    between atoms: C5_12  and  O2_2 
REMARK    3  A    between atoms: C13_20  and  O3_3 
REMARK    4  A    between atoms: C15_22  and  O4_4 
REMARK    5  A    between atoms: C10_17  and  N1_7 
REMARK       I    between atoms: C8_15  and  N1_7 
REMARK    6  A    between atoms: C3_10  and  C8_15 
ROOT
HETATM    1  O1  UNK     1      18.606   0.162  33.188  1.00  0.00    -0.271 OA
HETATM    2  O5  UNK     1      18.047   0.050  35.402  1.00  0.00    -0.259 OA
HETATM    3  C1  UNK     1      19.940  -1.611  32.196  1.00  0.00     0.002 A 
HETATM    4  C2  UNK     1      19.257  -0.406  32.076  1.00  0.00     0.123 A 
HETATM    5  C3  UNK     1      19.352  -1.732  34.544  1.00  0.00     0.108 A 
HETATM    6  C4  UNK     1      19.973  -2.276  33.490  1.00  0.00     0.037 A 
HETATM    7  C5  UNK     1      19.189   0.282  30.865  1.00  0.00     0.103 A 
HETATM    8  C6  UNK     1      20.573  -2.143  31.070  1.00  0.00     0.014 A 
HETATM    9  C7  UNK     1      18.618  -0.451  34.438  1.00  0.00     0.304 A 
HETATM   10  C9  UNK     1      19.823  -0.255  29.747  1.00  0.00     0.040 A 
HETATM   11  C11 UNK     1      20.514  -1.465  29.849  1.00  0.00     0.004 A 
ENDROOT
BRANCH   5  12
HETATM   12  C8  UNK     1      19.440  -2.478  35.805  1.00  0.00     0.262 C 
HETATM   13  O6  UNK     1      19.161  -1.919  36.865  1.00  0.00    -0.267 OA
HETATM   14  N1  UNK     1      19.851  -3.789  35.610  1.00  0.00    -0.323 N 
HETATM   15  H5  UNK     1      20.022  -4.106  34.659  1.00  0.00     0.169 HD
BRANCH  14  16
HETATM   16  C10 UNK     1      20.044  -4.789  36.595  1.00  0.00     0.037 A 
HETATM   17  C14 UNK     1      21.099  -4.667  37.483  1.00  0.00     0.032 A 
HETATM   18  C16 UNK     1      21.289  -5.650  38.454  1.00  0.00     0.042 A 
HETATM   19  C15 UNK     1      20.423  -6.741  38.521  1.00  0.00     0.101 A 
HETATM   20  C13 UNK     1      19.366  -6.850  37.617  1.00  0.00     0.103 A 
HETATM   21  C12 UNK     1      19.175  -5.865  36.647  1.00  0.00     0.069 A 
BRANCH  19  22
HETATM   22  O4  UNK     1      20.621  -7.697  39.472  1.00  0.00    -0.353 OA
HETATM   23  C20 UNK     1      21.830  -8.449  39.391  1.00  0.00     0.210 C 
ENDBRANCH  19  22
BRANCH  20  24
HETATM   24  O3  UNK     1      18.513  -7.910  37.672  1.00  0.00    -0.353 OA
HETATM   25  C19 UNK     1      18.845  -9.050  36.883  1.00  0.00     0.210 C 
ENDBRANCH  20  24
ENDBRANCH  14  16
ENDBRANCH   5  12
BRANCH   7  26
HETATM   26  O2  UNK     1      18.517   1.460  30.762  1.00  0.00    -0.349 OA
BRANCH  26  27
HETATM   27  C17 UNK     1      18.704   2.211  29.562  1.00  0.00     0.171 C 
HETATM   28  C18 UNK     1      18.819   3.678  29.913  1.00  0.00     0.034 C 
ENDBRANCH  26  27
ENDBRANCH   7  26
TORSDOF 6
ENDMDL
MODEL 6
REMARK VINA RESULT:      -8.6      5.466      9.656
REMARK  6 active torsions:
REMARK  status: ('A' for Active; 'I' for Inactive)
REMARK    1  A    between atoms: C17_24  and  O2_2 
REMARK    2  A    between atoms: C5_12  and  O2_2 
REMARK    3  A    between atoms: C13_20  and  O3_3 
REMARK    4  A    between atoms: C15_22  and  O4_4 
REMARK    5  A    between atoms: C10_17  and  N1_7 
REMARK       I    between atoms: C8_15  and  N1_7 
REMARK    6  A    between atoms: C3_10  and  C8_15 
ROOT
HETATM    1  O1  UNK     1      19.116  -6.943  37.686  1.00  0.00    -0.271 OA
HETATM    2  O5  UNK     1      17.996  -5.448  36.369  1.00  0.00    -0.259 OA
HETATM    3  C1  UNK     1      21.337  -6.390  38.506  1.00  0.00     0.002 A 
HETATM    4  C2  UNK     1      20.268  -7.275  38.426  1.00  0.00     0.123 A 
HETATM    5  C3  UNK     1      20.153  -4.804  37.108  1.00  0.00     0.108 A 
HETATM    6  C4  UNK     1      21.249  -5.115  37.810  1.00  0.00     0.037 A 
HETATM    7  C5  UNK     1      20.289  -8.512  39.068  1.00  0.00     0.103 A 
HETATM    8  C6  UNK     1      22.462  -6.756  39.250  1.00  0.00     0.014 A 
HETATM    9  C7  UNK     1      19.002  -5.729  37.011  1.00  0.00     0.304 A 
HETATM   10  C9  UNK     1      21.414  -8.869  39.808  1.00  0.00     0.040 A 
HETATM   11  C11 UNK     1      22.498  -7.993  39.899  1.00  0.00     0.004 A 
ENDROOT
BRANCH   5  12
HETATM   12  C8  UNK     1      20.158  -3.495  36.443  1.00  0.00     0.262 C 
HETATM   13  O6  UNK     1      21.204  -3.057  35.967  1.00  0.00    -0.267 OA
HETATM   14  N1  UNK     1      18.904  -2.902  36.447  1.00  0.00    -0.323 N 
HETATM   15  H5  UNK     1      18.129  -3.410  36.866  1.00  0.00     0.169 HD
BRANCH  14  16
HETATM   16  C10 UNK     1      18.540  -1.647  35.899  1.00  0.00     0.037 A 
HETATM   17  C14 UNK     1      17.936  -0.704  36.712  1.00  0.00     0.032 A 
HETATM   18  C16 UNK     1      17.579   0.532  36.174  1.00  0.00     0.042 A 
HETATM   19  C15 UNK     1      17.829   0.806  34.830  1.00  0.00     0.101 A 
HETATM   20  C13 UNK     1      18.437  -0.157  34.023  1.00  0.00     0.103 A 
HETATM   21  C12 UNK     1      18.795  -1.392  34.562  1.00  0.00     0.069 A 
BRANCH  19  22
HETATM   22  O4  UNK     1      17.473   2.016  34.315  1.00  0.00    -0.353 OA
HETATM   23  C20 UNK     1      18.416   3.079  34.447  1.00  0.00     0.210 C 
ENDBRANCH  19  22
BRANCH  20  24
HETATM   24  O3  UNK     1      18.687   0.099  32.709  1.00  0.00    -0.353 OA
HETATM   25  C19 UNK     1      19.298  -0.943  31.952  1.00  0.00     0.210 C 
ENDBRANCH  20  24
ENDBRANCH  14  16
ENDBRANCH   5  12
BRANCH   7  26
HETATM   26  O2  UNK     1      19.236  -9.368  38.982  1.00  0.00    -0.349 OA
BRANCH  26  27
HETATM   27  C17 UNK     1      19.514 -10.699  38.547  1.00  0.00     0.171 C 
HETATM   28  C18 UNK     1      19.729 -10.692  37.049  1.00  0.00     0.034 C 
ENDBRANCH  26  27
ENDBRANCH   7  26
TORSDOF 6
ENDMDL
MODEL 7
REMARK VINA RESULT:      -8.6      2.078      9.241
REMARK  6 active torsions:
REMARK  status: ('A' for Active; 'I' for Inactive)
REMARK    1  A    between atoms: C17_24  and  O2_2 
REMARK    2  A    between atoms: C5_12  and  O2_2 
REMARK    3  A    between atoms: C13_20  and  O3_3 
REMARK    4  A    between atoms: C15_22  and  O4_4 
REMARK    5  A    between atoms: C10_17  and  N1_7 
REMARK       I    between atoms: C8_15  and  N1_7 
REMARK    6  A    between atoms: C3_10  and  C8_15 
ROOT
HETATM    1  O1  UNK     1      16.897   7.996  33.150  1.00  0.00    -0.271 OA
HETATM    2  O5  UNK     1      15.821   6.062  32.579  1.00  0.00    -0.259 OA
HETATM    3  C1  UNK     1      19.190   7.901  33.952  1.00  0.00     0.002 A 
HETATM    4  C2  UNK     1      18.057   8.638  33.624  1.00  0.00     0.123 A 
HETATM    5  C3  UNK     1      18.052   5.848  33.350  1.00  0.00     0.108 A 
HETATM    6  C4  UNK     1      19.156   6.454  33.801  1.00  0.00     0.037 A 
HETATM    7  C5  UNK     1      18.024  10.026  33.748  1.00  0.00     0.103 A 
HETATM    8  C6  UNK     1      20.322   8.575  34.419  1.00  0.00     0.014 A 
HETATM    9  C7  UNK     1      16.836   6.613  32.993  1.00  0.00     0.304 A 
HETATM   10  C9  UNK     1      19.156  10.690  34.213  1.00  0.00     0.040 A 
HETATM   11  C11 UNK     1      20.303   9.966  34.548  1.00  0.00     0.004 A 
ENDROOT
BRANCH   5  12
HETATM   12  C8  UNK     1      18.116   4.387  33.230  1.00  0.00     0.262 C 
HETATM   13  O6  UNK     1      18.025   3.861  32.122  1.00  0.00    -0.267 OA
HETATM   14  N1  UNK     1      18.279   3.767  34.461  1.00  0.00    -0.323 N 
HETATM   15  H5  UNK     1      18.360   4.352  35.290  1.00  0.00     0.169 HD
BRANCH  14  16
HETATM   16  C10 UNK     1      18.380   2.379  34.723  1.00  0.00     0.037 A 
HETATM   17  C14 UNK     1      18.700   1.954  36.001  1.00  0.00     0.032 A 
HETATM   18  C16 UNK     1      18.798   0.587  36.260  1.00  0.00     0.042 A 
HETATM   19  C15 UNK     1      18.576  -0.334  35.237  1.00  0.00     0.101 A 
HETATM   20  C13 UNK     1      18.256   0.111  33.954  1.00  0.00     0.103 A 
HETATM   21  C12 UNK     1      18.157   1.478  33.696  1.00  0.00     0.069 A 
BRANCH  19  22
HETATM   22  O4  UNK     1      18.677  -1.667  35.502  1.00  0.00    -0.353 OA
HETATM   23  C20 UNK     1      19.992  -2.197  35.662  1.00  0.00     0.210 C 
ENDBRANCH  19  22
BRANCH  20  24
HETATM   24  O3  UNK     1      18.036  -0.779  32.946  1.00  0.00    -0.353 OA
HETATM   25  C19 UNK     1      19.135  -1.064  32.083  1.00  0.00     0.210 C 
ENDBRANCH  20  24
ENDBRANCH  14  16
ENDBRANCH   5  12
BRANCH   7  26
HETATM   26  O2  UNK     1      16.910  10.735  33.423  1.00  0.00    -0.349 OA
BRANCH  26  27
HETATM   27  C17 UNK     1      16.227  11.398  34.487  1.00  0.00     0.171 C 
HETATM   28  C18 UNK     1      15.106  10.510  34.981  1.00  0.00     0.034 C 
ENDBRANCH  26  27
ENDBRANCH   7  26
TORSDOF 6
ENDMDL
MODEL 8
REMARK VINA RESULT:      -8.5     15.105     17.846
REMARK  6 active torsions:
REMARK  status: ('A' for Active; 'I' for Inactive)
REMARK    1  A    between atoms: C17_24  and  O2_2 
REMARK    2  A    between atoms: C5_12  and  O2_2 
REMARK    3  A    between atoms: C13_20  and  O3_3 
REMARK    4  A    between atoms: C15_22  and  O4_4 
REMARK    5  A    between atoms: C10_17  and  N1_7 
REMARK       I    between atoms: C8_15  and  N1_7 
REMARK    6  A    between atoms: C3_10  and  C8_15 
ROOT
HETATM    1  O1  UNK     1      18.389  -4.418  13.709  1.00  0.00    -0.271 OA
HETATM    2  O5  UNK     1      17.384  -4.508  15.760  1.00  0.00    -0.259 OA
HETATM    3  C1  UNK     1      19.426  -2.346  12.971  1.00  0.00     0.002 A 
HETATM    4  C2  UNK     1      19.094  -3.677  12.740  1.00  0.00     0.123 A 
HETATM    5  C3  UNK     1      18.359  -2.438  15.145  1.00  0.00     0.108 A 
HETATM    6  C4  UNK     1      19.029  -1.730  14.228  1.00  0.00     0.037 A 
HETATM    7  C5  UNK     1      19.444  -4.326  11.557  1.00  0.00     0.103 A 
HETATM    8  C6  UNK     1      20.126  -1.645  11.986  1.00  0.00     0.014 A 
HETATM    9  C7  UNK     1      17.998  -3.856  14.922  1.00  0.00     0.304 A 
HETATM   10  C9  UNK     1      20.142  -3.620  10.580  1.00  0.00     0.040 A 
HETATM   11  C11 UNK     1      20.483  -2.282  10.795  1.00  0.00     0.004 A 
ENDROOT
BRANCH   5  12
HETATM   12  C8  UNK     1      18.005  -1.729  16.381  1.00  0.00     0.262 C 
HETATM   13  O6  UNK     1      16.916  -1.938  16.913  1.00  0.00    -0.267 OA
HETATM   14  N1  UNK     1      19.013  -0.872  16.799  1.00  0.00    -0.323 N 
HETATM   15  H5  UNK     1      19.871  -0.830  16.254  1.00  0.00     0.169 HD
BRANCH  14  16
HETATM   16  C10 UNK     1      19.016  -0.035  17.943  1.00  0.00     0.037 A 
HETATM   17  C14 UNK     1      18.935  -0.609  19.200  1.00  0.00     0.032 A 
HETATM   18  C16 UNK     1      18.939   0.214  20.326  1.00  0.00     0.042 A 
HETATM   19  C15 UNK     1      19.023   1.598  20.178  1.00  0.00     0.101 A 
HETATM   20  C13 UNK     1      19.103   2.160  18.904  1.00  0.00     0.103 A 
HETATM   21  C12 UNK     1      19.099   1.337  17.778  1.00  0.00     0.069 A 
BRANCH  19  22
HETATM   22  O4  UNK     1      19.024   2.391  21.286  1.00  0.00    -0.353 OA
HETATM   23  C20 UNK     1      20.205   2.385  22.086  1.00  0.00     0.210 C 
ENDBRANCH  19  22
BRANCH  20  24
HETATM   24  O3  UNK     1      19.186   3.511  18.746  1.00  0.00    -0.353 OA
HETATM   25  C19 UNK     1      20.479   4.054  18.492  1.00  0.00     0.210 C 
ENDBRANCH  20  24
ENDBRANCH  14  16
ENDBRANCH   5  12
BRANCH   7  26
HETATM   26  O2  UNK     1      19.113  -5.628  11.345  1.00  0.00    -0.349 OA
BRANCH  26  27
HETATM   27  C17 UNK     1      18.830  -6.015  10.000  1.00  0.00     0.171 C 
HETATM   28  C18 UNK     1      17.957  -7.252  10.018  1.00  0.00     0.034 C 
ENDBRANCH  26  27
ENDBRANCH   7  26
TORSDOF 6
ENDMDL
MODEL 9
REMARK VINA RESULT:      -8.4      5.306      9.324
REMARK  6 active torsions:
REMARK  status: ('A' for Active; 'I' for Inactive)
REMARK    1  A    between atoms: C17_24  and  O2_2 
REMARK    2  A    between atoms: C5_12  and  O2_2 
REMARK    3  A    between atoms: C13_20  and  O3_3 
REMARK    4  A    between atoms: C15_22  and  O4_4 
REMARK    5  A    between atoms: C10_17  and  N1_7 
REMARK       I    between atoms: C8_15  and  N1_7 
REMARK    6  A    between atoms: C3_10  and  C8_15 
ROOT
HETATM    1  O1  UNK     1      20.140  -7.224  35.819  1.00  0.00    -0.271 OA
HETATM    2  O5  UNK     1      20.272  -5.576  34.241  1.00  0.00    -0.259 OA
HETATM    3  C1  UNK     1      20.113  -6.629  38.176  1.00  0.00     0.002 A 
HETATM    4  C2  UNK     1      20.084  -7.596  37.177  1.00  0.00     0.123 A 
HETATM    5  C3  UNK     1      20.255  -4.879  36.505  1.00  0.00     0.108 A 
HETATM    6  C4  UNK     1      20.203  -5.227  37.797  1.00  0.00     0.037 A 
HETATM    7  C5  UNK     1      19.999  -8.955  37.473  1.00  0.00     0.103 A 
HETATM    8  C6  UNK     1      20.055  -7.037  39.511  1.00  0.00     0.014 A 
HETATM    9  C7  UNK     1      20.225  -5.891  35.425  1.00  0.00     0.304 A 
HETATM   10  C9  UNK     1      19.943  -9.353  38.806  1.00  0.00     0.040 A 
HETATM   11  C11 UNK     1      19.970  -8.396  39.824  1.00  0.00     0.004 A 
ENDROOT
BRANCH   5  12
HETATM   12  C8  UNK     1      20.344  -3.441  36.223  1.00  0.00     0.262 C 
HETATM   13  O6  UNK     1      21.417  -2.857  36.364  1.00  0.00    -0.267 OA
HETATM   14  N1  UNK     1      19.128  -2.913  35.813  1.00  0.00    -0.323 N 
HETATM   15  H5  UNK     1      18.332  -3.541  35.725  1.00  0.00     0.169 HD
BRANCH  14  16
HETATM   16  C10 UNK     1      18.845  -1.571  35.459  1.00  0.00     0.037 A 
HETATM   17  C14 UNK     1      18.692  -1.242  34.123  1.00  0.00     0.032 A 
HETATM   18  C16 UNK     1      18.412   0.079  33.774  1.00  0.00     0.042 A 
HETATM   19  C15 UNK     1      18.290   1.052  34.767  1.00  0.00     0.101 A 
HETATM   20  C13 UNK     1      18.449   0.704  36.108  1.00  0.00     0.103 A 
HETATM   21  C12 UNK     1      18.728  -0.618  36.456  1.00  0.00     0.069 A 
BRANCH  19  22
HETATM   22  O4  UNK     1      18.019   2.339  34.413  1.00  0.00    -0.353 OA
HETATM   23  C20 UNK     1      18.143   2.671  33.031  1.00  0.00     0.210 C 
ENDBRANCH  19  22
BRANCH  20  24
HETATM   24  O3  UNK     1      18.331   1.644  37.087  1.00  0.00    -0.353 OA
HETATM   25  C19 UNK     1      17.603   1.275  38.255  1.00  0.00     0.210 C 
ENDBRANCH  20  24
ENDBRANCH  14  16
ENDBRANCH   5  12
BRANCH   7  26
HETATM   26  O2  UNK     1      19.972  -9.890  36.486  1.00  0.00    -0.349 OA
BRANCH  26  27
HETATM   27  C17 UNK     1      21.100 -10.759  36.382  1.00  0.00     0.171 C 
HETATM   28  C18 UNK     1      21.843 -10.450  35.101  1.00  0.00     0.034 C 
ENDBRANCH  26  27
ENDBRANCH   7  26
TORSDOF 6
ENDMDL
MODEL 10
REMARK VINA RESULT:      -8.4      5.788      9.973
REMARK  6 active torsions:
REMARK  status: ('A' for Active; 'I' for Inactive)
REMARK    1  A    between atoms: C17_24  and  O2_2 
REMARK    2  A    between atoms: C5_12  and  O2_2 
REMARK    3  A    between atoms: C13_20  and  O3_3 
REMARK    4  A    between atoms: C15_22  and  O4_4 
REMARK    5  A    between atoms: C10_17  and  N1_7 
REMARK       I    between atoms: C8_15  and  N1_7 
REMARK    6  A    between atoms: C3_10  and  C8_15 
ROOT
HETATM    1  O1  UNK     1      20.197  -7.793  35.862  1.00  0.00    -0.271 OA
HETATM    2  O5  UNK     1      20.312  -5.977  34.479  1.00  0.00    -0.259 OA
HETATM    3  C1  UNK     1      20.048  -7.463  38.266  1.00  0.00     0.002 A 
HETATM    4  C2  UNK     1      20.106  -8.314  37.167  1.00  0.00     0.123 A 
HETATM    5  C3  UNK     1      20.172  -5.535  36.803  1.00  0.00     0.108 A 
HETATM    6  C4  UNK     1      20.086  -6.026  38.045  1.00  0.00     0.037 A 
HETATM    7  C5  UNK     1      20.075  -9.701  37.310  1.00  0.00     0.103 A 
HETATM    8  C6  UNK     1      19.958  -8.018  39.545  1.00  0.00     0.014 A 
HETATM    9  C7  UNK     1      20.233  -6.422  35.619  1.00  0.00     0.304 A 
HETATM   10  C9  UNK     1      19.985 -10.246  38.589  1.00  0.00     0.040 A 
HETATM   11  C11 UNK     1      19.927  -9.406  39.704  1.00  0.00     0.004 A 
ENDROOT
BRANCH   5  12
HETATM   12  C8  UNK     1      20.202  -4.073  36.683  1.00  0.00     0.262 C 
HETATM   13  O6  UNK     1      21.278  -3.495  36.536  1.00  0.00    -0.267 OA
HETATM   14  N1  UNK     1      18.934  -3.515  36.757  1.00  0.00    -0.323 N 
HETATM   15  H5  UNK     1      18.136  -4.139  36.859  1.00  0.00     0.169 HD
BRANCH  14  16
HETATM   16  C10 UNK     1      18.586  -2.144  36.680  1.00  0.00     0.037 A 
HETATM   17  C14 UNK     1      17.970  -1.541  37.762  1.00  0.00     0.032 A 
HETATM   18  C16 UNK     1      17.629  -0.191  37.688  1.00  0.00     0.042 A 
HETATM   19  C15 UNK     1      17.908   0.536  36.531  1.00  0.00     0.101 A 
HETATM   20  C13 UNK     1      18.529  -0.088  35.448  1.00  0.00     0.103 A 
HETATM   21  C12 UNK     1      18.870  -1.438  35.524  1.00  0.00     0.069 A 
BRANCH  19  22
HETATM   22  O4  UNK     1      17.568   1.854  36.469  1.00  0.00    -0.353 OA
HETATM   23  C20 UNK     1      16.431   2.265  37.226  1.00  0.00     0.210 C 
ENDBRANCH  19  22
BRANCH  20  24
HETATM   24  O3  UNK     1      18.808   0.611  34.312  1.00  0.00    -0.353 OA
HETATM   25  C19 UNK     1      18.630  -0.070  33.073  1.00  0.00     0.210 C 
ENDBRANCH  20  24
ENDBRANCH  14  16
ENDBRANCH   5  12
BRANCH   7  26
HETATM   26  O2  UNK     1      20.132 -10.521  36.227  1.00  0.00    -0.349 OA
BRANCH  26  27
HETATM   27  C17 UNK     1      21.372 -11.182  35.977  1.00  0.00     0.171 C 
HETATM   28  C18 UNK     1      22.085 -10.478  34.843  1.00  0.00     0.034 C 
ENDBRANCH  26  27
ENDBRANCH   7  26
TORSDOF 6
ENDMDL
