MODEL 1
REMARK VINA RESULT:      -7.7      0.000      0.000
REMARK  7 active torsions:
REMARK  status: ('A' for Active; 'I' for Inactive)
REMARK    1  A    between atoms: C11_17  and  O2_2 
REMARK    2  A    between atoms: C17_23  and  O2_2 
REMARK    3  A    between atoms: C1_7  and  C10_16 
REMARK    4  A    between atoms: C11_17  and  C6_12 
REMARK    5  A    between atoms: C17_23  and  C18_24 
REMARK    6  A    between atoms: C18_24  and  C19_25 
REMARK    7  A    between atoms: C19_25  and  C22_28 
ROOT
HETATM    1  O1  UNK     1      29.464  -5.232  32.163  1.00  0.00    -0.293 OA
HETATM    2  N1  UNK     1      28.838  -9.909  31.750  1.00  0.00    -0.362 N 
HETATM    3  C1  UNK     1      30.145  -7.842  33.188  1.00  0.00     0.104 C 
HETATM    4  C2  UNK     1      29.132  -7.582  32.078  1.00  0.00     0.024 C 
HETATM    5  C3  UNK     1      28.519  -8.601  31.441  1.00  0.00     0.020 C 
HETATM    6  C4  UNK     1      27.474  -8.402  30.375  1.00  0.00     0.058 C 
HETATM    7  C5  UNK     1      26.833  -7.021  30.450  1.00  0.00     0.014 C 
HETATM    8  C6  UNK     1      30.503  -9.325  33.329  1.00  0.00     0.052 C 
HETATM    9  C7  UNK     1      27.893  -5.936  30.511  1.00  0.00     0.084 C 
HETATM   10  C8  UNK     1      28.862  -6.174  31.649  1.00  0.00     0.158 C 
HETATM   11  C9  UNK     1      29.841 -10.280  32.634  1.00  0.00     0.018 C 
HETATM   12  C12 UNK     1      30.100 -11.761  32.692  1.00  0.00     0.069 C 
HETATM   13  H8  UNK     1      28.363 -10.645  31.241  1.00  0.00     0.165 HD
ENDROOT
BRANCH   3  14
HETATM   14  C10 UNK     1      29.632  -7.303  34.496  1.00  0.00     0.029 A 
HETATM   15  C13 UNK     1      30.433  -6.269  35.198  1.00  0.00     0.194 A 
HETATM   16  O5  UNK     1      31.489  -5.846  34.748  1.00  0.00    -0.287 OA
HETATM   17  C15 UNK     1      29.885  -5.776  36.476  1.00  0.00     0.048 A 
HETATM   18  C16 UNK     1      28.676  -6.294  36.942  1.00  0.00     0.089 A 
HETATM   19  C20 UNK     1      30.565  -4.802  37.214  1.00  0.00     0.018 A 
HETATM   20  O3  UNK     1      27.968  -7.250  36.259  1.00  0.00    -0.321 OA
HETATM   21  C21 UNK     1      28.140  -5.841  38.147  1.00  0.00     0.038 A 
HETATM   22  C14 UNK     1      28.490  -7.700  35.071  1.00  0.00     0.154 A 
HETATM   23  C24 UNK     1      28.816  -4.870  38.886  1.00  0.00     0.003 A 
HETATM   24  C23 UNK     1      30.025  -4.352  38.420  1.00  0.00     0.001 A 
ENDBRANCH   3  14
BRANCH   8  25
HETATM   25  C11 UNK     1      31.607  -9.638  34.251  1.00  0.00     0.292 C 
HETATM   26  O4  UNK     1      32.779  -9.452  33.978  1.00  0.00    -0.259 OA
BRANCH  25  27
HETATM   27  O2  UNK     1      31.081 -10.143  35.393  1.00  0.00    -0.318 OA
BRANCH  27  28
HETATM   28  C17 UNK     1      31.892  -9.977  36.560  1.00  0.00     0.179 C 
BRANCH  28  29
HETATM   29  C18 UNK     1      31.173  -9.052  37.532  1.00  0.00     0.027 C 
BRANCH  29  30
HETATM   30  C19 UNK     1      32.137  -8.068  38.191  1.00  0.00     0.002 C 
BRANCH  30  31
HETATM   31  C22 UNK     1      33.276  -7.686  37.246  1.00  0.00    -0.004 C 
HETATM   32  C25 UNK     1      33.925  -6.375  37.656  1.00  0.00     0.005 C 
ENDBRANCH  30  31
ENDBRANCH  29  30
ENDBRANCH  28  29
ENDBRANCH  27  28
ENDBRANCH  25  27
ENDBRANCH   8  25
TORSDOF 7
ENDMDL
MODEL 2
REMARK VINA RESULT:      -7.5      1.963      5.777
REMARK  7 active torsions:
REMARK  status: ('A' for Active; 'I' for Inactive)
REMARK    1  A    between atoms: C11_17  and  O2_2 
REMARK    2  A    between atoms: C17_23  and  O2_2 
REMARK    3  A    between atoms: C1_7  and  C10_16 
REMARK    4  A    between atoms: C11_17  and  C6_12 
REMARK    5  A    between atoms: C17_23  and  C18_24 
REMARK    6  A    between atoms: C18_24  and  C19_25 
REMARK    7  A    between atoms: C19_25  and  C22_28 
ROOT
HETATM    1  O1  UNK     1      31.486  -5.095  34.074  1.00  0.00    -0.293 OA
HETATM    2  N1  UNK     1      32.157  -8.532  37.263  1.00  0.00    -0.362 N 
HETATM    3  C1  UNK     1      30.289  -7.274  35.538  1.00  0.00     0.104 C 
HETATM    4  C2  UNK     1      31.765  -6.896  35.596  1.00  0.00     0.024 C 
HETATM    5  C3  UNK     1      32.619  -7.543  36.417  1.00  0.00     0.020 C 
HETATM    6  C4  UNK     1      34.094  -7.246  36.477  1.00  0.00     0.058 C 
HETATM    7  C5  UNK     1      34.591  -6.546  35.218  1.00  0.00     0.014 C 
HETATM    8  C6  UNK     1      29.892  -8.283  36.619  1.00  0.00     0.052 C 
HETATM    9  C7  UNK     1      33.716  -5.352  34.882  1.00  0.00     0.084 C 
HETATM   10  C8  UNK     1      32.260  -5.748  34.773  1.00  0.00     0.158 C 
HETATM   11  C9  UNK     1      30.820  -8.872  37.410  1.00  0.00     0.018 C 
HETATM   12  C12 UNK     1      30.552  -9.875  38.499  1.00  0.00     0.069 C 
HETATM   13  H8  UNK     1      32.828  -8.986  37.871  1.00  0.00     0.165 HD
ENDROOT
BRANCH   3  14
HETATM   14  C10 UNK     1      29.944  -7.809  34.174  1.00  0.00     0.029 A 
HETATM   15  C13 UNK     1      28.785  -7.222  33.456  1.00  0.00     0.194 A 
HETATM   16  O5  UNK     1      28.109  -6.323  33.936  1.00  0.00    -0.287 OA
HETATM   17  C15 UNK     1      28.490  -7.783  32.123  1.00  0.00     0.048 A 
HETATM   18  C16 UNK     1      29.295  -8.808  31.625  1.00  0.00     0.089 A 
HETATM   19  C20 UNK     1      27.419  -7.298  31.368  1.00  0.00     0.018 A 
HETATM   20  O3  UNK     1      30.358  -9.321  32.324  1.00  0.00    -0.321 OA
HETATM   21  C21 UNK     1      29.034  -9.353  30.368  1.00  0.00     0.038 A 
HETATM   22  C14 UNK     1      30.621  -8.790  33.563  1.00  0.00     0.154 A 
HETATM   23  C24 UNK     1      27.965  -8.871  29.611  1.00  0.00     0.003 A 
HETATM   24  C23 UNK     1      27.160  -7.846  30.110  1.00  0.00     0.001 A 
ENDBRANCH   3  14
BRANCH   8  25
HETATM   25  C11 UNK     1      28.451  -8.560  36.747  1.00  0.00     0.292 C 
HETATM   26  O4  UNK     1      27.942  -9.616  36.419  1.00  0.00    -0.259 OA
BRANCH  25  27
HETATM   27  O2  UNK     1      27.851  -7.465  37.273  1.00  0.00    -0.318 OA
BRANCH  27  28
HETATM   28  C17 UNK     1      27.504  -7.571  38.658  1.00  0.00     0.179 C 
BRANCH  28  29
HETATM   29  C18 UNK     1      28.315  -6.554  39.448  1.00  0.00     0.027 C 
BRANCH  29  30
HETATM   30  C19 UNK     1      28.666  -5.333  38.601  1.00  0.00     0.002 C 
BRANCH  30  31
HETATM   31  C22 UNK     1      30.176  -5.092  38.571  1.00  0.00    -0.004 C 
HETATM   32  C25 UNK     1      30.544  -3.983  37.598  1.00  0.00     0.005 C 
ENDBRANCH  30  31
ENDBRANCH  29  30
ENDBRANCH  28  29
ENDBRANCH  27  28
ENDBRANCH  25  27
ENDBRANCH   8  25
TORSDOF 7
ENDMDL
MODEL 3
REMARK VINA RESULT:      -7.4      2.059      5.880
REMARK  7 active torsions:
REMARK  status: ('A' for Active; 'I' for Inactive)
REMARK    1  A    between atoms: C11_17  and  O2_2 
REMARK    2  A    between atoms: C17_23  and  O2_2 
REMARK    3  A    between atoms: C1_7  and  C10_16 
REMARK    4  A    between atoms: C11_17  and  C6_12 
REMARK    5  A    between atoms: C17_23  and  C18_24 
REMARK    6  A    between atoms: C18_24  and  C19_25 
REMARK    7  A    between atoms: C19_25  and  C22_28 
ROOT
HETATM    1  O1  UNK     1      28.252  -9.604  36.164  1.00  0.00    -0.293 OA
HETATM    2  N1  UNK     1      29.254  -5.244  37.723  1.00  0.00    -0.362 N 
HETATM    3  C1  UNK     1      29.738  -7.175  35.701  1.00  0.00     0.104 C 
HETATM    4  C2  UNK     1      28.735  -7.376  36.831  1.00  0.00     0.024 C 
HETATM    5  C3  UNK     1      28.522  -6.416  37.755  1.00  0.00     0.020 C 
HETATM    6  C4  UNK     1      27.508  -6.541  38.861  1.00  0.00     0.058 C 
HETATM    7  C5  UNK     1      26.437  -7.577  38.543  1.00  0.00     0.014 C 
HETATM    8  C6  UNK     1      30.570  -5.899  35.867  1.00  0.00     0.052 C 
HETATM    9  C7  UNK     1      27.066  -8.889  38.108  1.00  0.00     0.084 C 
HETATM   10  C8  UNK     1      28.020  -8.686  36.950  1.00  0.00     0.158 C 
HETATM   11  C9  UNK     1      30.292  -4.997  36.837  1.00  0.00     0.018 C 
HETATM   12  C12 UNK     1      31.033  -3.712  37.095  1.00  0.00     0.069 C 
HETATM   13  H8  UNK     1      29.072  -4.554  38.441  1.00  0.00     0.165 HD
ENDROOT
BRANCH   3  14
HETATM   14  C10 UNK     1      29.029  -7.166  34.373  1.00  0.00     0.029 A 
HETATM   15  C13 UNK     1      29.377  -8.212  33.379  1.00  0.00     0.194 A 
HETATM   16  O5  UNK     1      30.215  -9.074  33.606  1.00  0.00    -0.287 OA
HETATM   17  C15 UNK     1      28.654  -8.157  32.094  1.00  0.00     0.048 A 
HETATM   18  C16 UNK     1      27.708  -7.151  31.889  1.00  0.00     0.089 A 
HETATM   19  C20 UNK     1      28.910  -9.097  31.092  1.00  0.00     0.018 A 
HETATM   20  O3  UNK     1      27.418  -6.203  32.838  1.00  0.00    -0.321 OA
HETATM   21  C21 UNK     1      27.013  -7.081  30.683  1.00  0.00     0.038 A 
HETATM   22  C14 UNK     1      28.099  -6.266  34.029  1.00  0.00     0.154 A 
HETATM   23  C24 UNK     1      27.266  -8.018  29.680  1.00  0.00     0.003 A 
HETATM   24  C23 UNK     1      28.212  -9.024  29.886  1.00  0.00     0.001 A 
ENDBRANCH   3  14
BRANCH   8  25
HETATM   25  C11 UNK     1      31.684  -5.726  34.919  1.00  0.00     0.292 C 
HETATM   26  O4  UNK     1      31.664  -4.923  34.004  1.00  0.00    -0.259 OA
BRANCH  25  27
HETATM   27  O2  UNK     1      32.671  -6.590  35.258  1.00  0.00    -0.318 OA
BRANCH  27  28
HETATM   28  C17 UNK     1      33.754  -6.013  35.994  1.00  0.00     0.179 C 
BRANCH  28  29
HETATM   29  C18 UNK     1      33.879  -6.733  37.330  1.00  0.00     0.027 C 
BRANCH  29  30
HETATM   30  C19 UNK     1      33.168  -8.085  37.310  1.00  0.00     0.002 C 
BRANCH  30  31
HETATM   31  C22 UNK     1      32.080  -8.157  38.382  1.00  0.00    -0.004 C 
HETATM   32  C25 UNK     1      31.301  -9.459  38.297  1.00  0.00     0.005 C 
ENDBRANCH  30  31
ENDBRANCH  29  30
ENDBRANCH  28  29
ENDBRANCH  27  28
ENDBRANCH  25  27
ENDBRANCH   8  25
TORSDOF 7
ENDMDL
MODEL 4
REMARK VINA RESULT:      -7.4      2.917      6.507
REMARK  7 active torsions:
REMARK  status: ('A' for Active; 'I' for Inactive)
REMARK    1  A    between atoms: C11_17  and  O2_2 
REMARK    2  A    between atoms: C17_23  and  O2_2 
REMARK    3  A    between atoms: C1_7  and  C10_16 
REMARK    4  A    between atoms: C11_17  and  C6_12 
REMARK    5  A    between atoms: C17_23  and  C18_24 
REMARK    6  A    between atoms: C18_24  and  C19_25 
REMARK    7  A    between atoms: C19_25  and  C22_28 
ROOT
HETATM    1  O1  UNK     1      30.400 -10.175  38.285  1.00  0.00    -0.293 OA
HETATM    2  N1  UNK     1      28.447  -5.947  39.144  1.00  0.00    -0.362 N 
HETATM    3  C1  UNK     1      30.686  -7.313  38.065  1.00  0.00     0.104 C 
HETATM    4  C2  UNK     1      29.447  -8.023  38.599  1.00  0.00     0.024 C 
HETATM    5  C3  UNK     1      28.397  -7.326  39.080  1.00  0.00     0.020 C 
HETATM    6  C4  UNK     1      27.129  -7.973  39.571  1.00  0.00     0.058 C 
HETATM    7  C5  UNK     1      26.952  -9.382  39.018  1.00  0.00     0.014 C 
HETATM    8  C6  UNK     1      30.663  -5.803  38.323  1.00  0.00     0.052 C 
HETATM    9  C7  UNK     1      28.208 -10.207  39.229  1.00  0.00     0.084 C 
HETATM   10  C8  UNK     1      29.425  -9.519  38.648  1.00  0.00     0.158 C 
HETATM   11  C9  UNK     1      29.565  -5.190  38.825  1.00  0.00     0.018 C 
HETATM   12  C12 UNK     1      29.423  -3.721  39.116  1.00  0.00     0.069 C 
HETATM   13  H8  UNK     1      27.641  -5.462  39.521  1.00  0.00     0.165 HD
ENDROOT
BRANCH   3  14
HETATM   14  C10 UNK     1      30.848  -7.588  36.594  1.00  0.00     0.029 A 
HETATM   15  C13 UNK     1      32.126  -8.178  36.121  1.00  0.00     0.194 A 
HETATM   16  O5  UNK     1      33.042  -8.446  36.886  1.00  0.00    -0.287 OA
HETATM   17  C15 UNK     1      32.232  -8.426  34.670  1.00  0.00     0.048 A 
HETATM   18  C16 UNK     1      31.155  -8.101  33.845  1.00  0.00     0.089 A 
HETATM   19  C20 UNK     1      33.395  -8.979  34.126  1.00  0.00     0.018 A 
HETATM   20  O3  UNK     1      29.991  -7.557  34.326  1.00  0.00    -0.321 OA
HETATM   21  C21 UNK     1      31.234  -8.328  32.471  1.00  0.00     0.038 A 
HETATM   22  C14 UNK     1      29.906  -7.331  35.678  1.00  0.00     0.154 A 
HETATM   23  C24 UNK     1      32.393  -8.879  31.925  1.00  0.00     0.003 A 
HETATM   24  C23 UNK     1      33.470  -9.204  32.751  1.00  0.00     0.001 A 
ENDBRANCH   3  14
BRANCH   8  25
HETATM   25  C11 UNK     1      31.901  -5.073  38.003  1.00  0.00     0.292 C 
HETATM   26  O4  UNK     1      32.931  -5.194  38.641  1.00  0.00    -0.259 OA
BRANCH  25  27
HETATM   27  O2  UNK     1      31.669  -4.292  36.921  1.00  0.00    -0.318 OA
BRANCH  27  28
HETATM   28  C17 UNK     1      32.836  -3.928  36.175  1.00  0.00     0.179 C 
BRANCH  28  29
HETATM   29  C18 UNK     1      32.928  -4.816  34.943  1.00  0.00     0.027 C 
BRANCH  29  30
HETATM   30  C19 UNK     1      34.379  -5.093  34.555  1.00  0.00     0.002 C 
BRANCH  30  31
HETATM   31  C22 UNK     1      35.113  -5.858  35.656  1.00  0.00    -0.004 C 
HETATM   32  C25 UNK     1      36.165  -6.792  35.080  1.00  0.00     0.005 C 
ENDBRANCH  30  31
ENDBRANCH  29  30
ENDBRANCH  28  29
ENDBRANCH  27  28
ENDBRANCH  25  27
ENDBRANCH   8  25
TORSDOF 7
ENDMDL
MODEL 5
REMARK VINA RESULT:      -7.4      0.717      1.282
REMARK  7 active torsions:
REMARK  status: ('A' for Active; 'I' for Inactive)
REMARK    1  A    between atoms: C11_17  and  O2_2 
REMARK    2  A    between atoms: C17_23  and  O2_2 
REMARK    3  A    between atoms: C1_7  and  C10_16 
REMARK    4  A    between atoms: C11_17  and  C6_12 
REMARK    5  A    between atoms: C17_23  and  C18_24 
REMARK    6  A    between atoms: C18_24  and  C19_25 
REMARK    7  A    between atoms: C19_25  and  C22_28 
ROOT
HETATM    1  O1  UNK     1      29.361  -5.266  32.030  1.00  0.00    -0.293 OA
HETATM    2  N1  UNK     1      28.858  -9.947  31.504  1.00  0.00    -0.362 N 
HETATM    3  C1  UNK     1      30.156  -7.882  32.952  1.00  0.00     0.104 C 
HETATM    4  C2  UNK     1      29.095  -7.622  31.889  1.00  0.00     0.024 C 
HETATM    5  C3  UNK     1      28.489  -8.641  31.245  1.00  0.00     0.020 C 
HETATM    6  C4  UNK     1      27.399  -8.444  30.225  1.00  0.00     0.058 C 
HETATM    7  C5  UNK     1      26.721  -7.087  30.363  1.00  0.00     0.014 C 
HETATM    8  C6  UNK     1      30.563  -9.356  33.037  1.00  0.00     0.052 C 
HETATM    9  C7  UNK     1      27.750  -5.972  30.417  1.00  0.00     0.084 C 
HETATM   10  C8  UNK     1      28.768  -6.212  31.511  1.00  0.00     0.158 C 
HETATM   11  C9  UNK     1      29.904 -10.311  32.340  1.00  0.00     0.018 C 
HETATM   12  C12 UNK     1      30.208 -11.785  32.346  1.00  0.00     0.069 C 
HETATM   13  H8  UNK     1      28.386 -10.682  30.992  1.00  0.00     0.165 HD
ENDROOT
BRANCH   3  14
HETATM   14  C10 UNK     1      29.677  -7.395  34.293  1.00  0.00     0.029 A 
HETATM   15  C13 UNK     1      30.417  -6.288  34.951  1.00  0.00     0.194 A 
HETATM   16  O5  UNK     1      31.396  -5.765  34.438  1.00  0.00    -0.287 OA
HETATM   17  C15 UNK     1      29.906  -5.851  36.264  1.00  0.00     0.048 A 
HETATM   18  C16 UNK     1      28.784  -6.484  36.801  1.00  0.00     0.089 A 
HETATM   19  C20 UNK     1      30.533  -4.817  36.963  1.00  0.00     0.018 A 
HETATM   20  O3  UNK     1      28.130  -7.504  36.158  1.00  0.00    -0.321 OA
HETATM   21  C21 UNK     1      28.284  -6.086  38.041  1.00  0.00     0.038 A 
HETATM   22  C14 UNK     1      28.617  -7.902  34.937  1.00  0.00     0.154 A 
HETATM   23  C24 UNK     1      28.908  -5.054  38.742  1.00  0.00     0.003 A 
HETATM   24  C23 UNK     1      30.030  -4.421  38.203  1.00  0.00     0.001 A 
ENDBRANCH   3  14
BRANCH   8  25
HETATM   25  C11 UNK     1      31.710  -9.661  33.909  1.00  0.00     0.292 C 
HETATM   26  O4  UNK     1      31.686 -10.523  34.768  1.00  0.00    -0.259 OA
BRANCH  25  27
HETATM   27  O2  UNK     1      32.731  -8.835  33.576  1.00  0.00    -0.318 OA
BRANCH  27  28
HETATM   28  C17 UNK     1      33.831  -8.832  34.492  1.00  0.00     0.179 C 
BRANCH  28  29
HETATM   29  C18 UNK     1      34.020  -7.420  35.029  1.00  0.00     0.027 C 
BRANCH  29  30
HETATM   30  C19 UNK     1      33.900  -7.375  36.551  1.00  0.00     0.002 C 
BRANCH  30  31
HETATM   31  C22 UNK     1      32.744  -8.245  37.044  1.00  0.00    -0.004 C 
HETATM   32  C25 UNK     1      32.239  -7.783  38.401  1.00  0.00     0.005 C 
ENDBRANCH  30  31
ENDBRANCH  29  30
ENDBRANCH  28  29
ENDBRANCH  27  28
ENDBRANCH  25  27
ENDBRANCH   8  25
TORSDOF 7
ENDMDL
MODEL 6
REMARK VINA RESULT:      -7.3      2.444      6.265
REMARK  7 active torsions:
REMARK  status: ('A' for Active; 'I' for Inactive)
REMARK    1  A    between atoms: C11_17  and  O2_2 
REMARK    2  A    between atoms: C17_23  and  O2_2 
REMARK    3  A    between atoms: C1_7  and  C10_16 
REMARK    4  A    between atoms: C11_17  and  C6_12 
REMARK    5  A    between atoms: C17_23  and  C18_24 
REMARK    6  A    between atoms: C18_24  and  C19_25 
REMARK    7  A    between atoms: C19_25  and  C22_28 
ROOT
HETATM    1  O1  UNK     1      27.216 -10.012  36.443  1.00  0.00    -0.293 OA
HETATM    2  N1  UNK     1      30.026  -6.828  38.540  1.00  0.00    -0.362 N 
HETATM    3  C1  UNK     1      29.662  -8.493  36.272  1.00  0.00     0.104 C 
HETATM    4  C2  UNK     1      28.631  -8.356  37.387  1.00  0.00     0.024 C 
HETATM    5  C3  UNK     1      28.841  -7.530  38.433  1.00  0.00     0.020 C 
HETATM    6  C4  UNK     1      27.836  -7.317  39.534  1.00  0.00     0.058 C 
HETATM    7  C5  UNK     1      26.425  -7.701  39.105  1.00  0.00     0.014 C 
HETATM    8  C6  UNK     1      30.976  -7.770  36.586  1.00  0.00     0.052 C 
HETATM    9  C7  UNK     1      26.406  -9.088  38.488  1.00  0.00     0.084 C 
HETATM   10  C8  UNK     1      27.395  -9.198  37.348  1.00  0.00     0.158 C 
HETATM   11  C9  UNK     1      31.100  -6.972  37.672  1.00  0.00     0.018 C 
HETATM   12  C12 UNK     1      32.333  -6.212  38.081  1.00  0.00     0.069 C 
HETATM   13  H8  UNK     1      30.149  -6.228  39.346  1.00  0.00     0.165 HD
ENDROOT
BRANCH   3  14
HETATM   14  C10 UNK     1      29.091  -7.993  34.972  1.00  0.00     0.029 A 
HETATM   15  C13 UNK     1      29.068  -8.915  33.808  1.00  0.00     0.194 A 
HETATM   16  O5  UNK     1      29.496 -10.059  33.875  1.00  0.00    -0.287 OA
HETATM   17  C15 UNK     1      28.498  -8.375  32.559  1.00  0.00     0.048 A 
HETATM   18  C16 UNK     1      28.025  -7.062  32.540  1.00  0.00     0.089 A 
HETATM   19  C20 UNK     1      28.432  -9.164  31.407  1.00  0.00     0.018 A 
HETATM   20  O3  UNK     1      28.066  -6.244  33.641  1.00  0.00    -0.321 OA
HETATM   21  C21 UNK     1      27.483  -6.532  31.370  1.00  0.00     0.038 A 
HETATM   22  C14 UNK     1      28.599  -6.760  34.797  1.00  0.00     0.154 A 
HETATM   23  C24 UNK     1      27.415  -7.317  30.218  1.00  0.00     0.003 A 
HETATM   24  C23 UNK     1      27.889  -8.630  30.238  1.00  0.00     0.001 A 
ENDBRANCH   3  14
BRANCH   8  25
HETATM   25  C11 UNK     1      32.085  -8.006  35.646  1.00  0.00     0.292 C 
HETATM   26  O4  UNK     1      32.733  -9.037  35.623  1.00  0.00    -0.259 OA
BRANCH  25  27
HETATM   27  O2  UNK     1      32.222  -6.909  34.863  1.00  0.00    -0.318 OA
BRANCH  27  28
HETATM   28  C17 UNK     1      32.676  -7.169  33.531  1.00  0.00     0.179 C 
BRANCH  28  29
HETATM   29  C18 UNK     1      31.684  -6.565  32.547  1.00  0.00     0.027 C 
BRANCH  29  30
HETATM   30  C19 UNK     1      31.699  -7.302  31.209  1.00  0.00     0.002 C 
BRANCH  30  31
HETATM   31  C22 UNK     1      31.020  -6.479  30.113  1.00  0.00    -0.004 C 
HETATM   32  C25 UNK     1      31.042  -7.204  28.778  1.00  0.00     0.005 C 
ENDBRANCH  30  31
ENDBRANCH  29  30
ENDBRANCH  28  29
ENDBRANCH  27  28
ENDBRANCH  25  27
ENDBRANCH   8  25
TORSDOF 7
ENDMDL
MODEL 7
REMARK VINA RESULT:      -7.3      1.477      3.035
REMARK  7 active torsions:
REMARK  status: ('A' for Active; 'I' for Inactive)
REMARK    1  A    between atoms: C11_17  and  O2_2 
REMARK    2  A    between atoms: C17_23  and  O2_2 
REMARK    3  A    between atoms: C1_7  and  C10_16 
REMARK    4  A    between atoms: C11_17  and  C6_12 
REMARK    5  A    between atoms: C17_23  and  C18_24 
REMARK    6  A    between atoms: C18_24  and  C19_25 
REMARK    7  A    between atoms: C19_25  and  C22_28 
ROOT
HETATM    1  O1  UNK     1      29.320  -5.277  32.076  1.00  0.00    -0.293 OA
HETATM    2  N1  UNK     1      29.063  -9.992  31.697  1.00  0.00    -0.362 N 
HETATM    3  C1  UNK     1      30.247  -7.818  33.082  1.00  0.00     0.104 C 
HETATM    4  C2  UNK     1      29.178  -7.647  32.008  1.00  0.00     0.024 C 
HETATM    5  C3  UNK     1      28.627  -8.716  31.396  1.00  0.00     0.020 C 
HETATM    6  C4  UNK     1      27.533  -8.607  30.367  1.00  0.00     0.058 C 
HETATM    7  C5  UNK     1      26.785  -7.283  30.461  1.00  0.00     0.014 C 
HETATM    8  C6  UNK     1      30.729  -9.266  33.214  1.00  0.00     0.052 C 
HETATM    9  C7  UNK     1      27.754  -6.115  30.482  1.00  0.00     0.084 C 
HETATM   10  C8  UNK     1      28.779  -6.268  31.586  1.00  0.00     0.158 C 
HETATM   11  C9  UNK     1      30.123 -10.275  32.546  1.00  0.00     0.018 C 
HETATM   12  C12 UNK     1      30.503 -11.730  32.598  1.00  0.00     0.069 C 
HETATM   13  H8  UNK     1      28.632 -10.766  31.207  1.00  0.00     0.165 HD
ENDROOT
BRANCH   3  14
HETATM   14  C10 UNK     1      29.737  -7.315  34.406  1.00  0.00     0.029 A 
HETATM   15  C13 UNK     1      30.496  -6.241  35.095  1.00  0.00     0.194 A 
HETATM   16  O5  UNK     1      31.514  -5.756  34.621  1.00  0.00    -0.287 OA
HETATM   17  C15 UNK     1      29.954  -5.786  36.390  1.00  0.00     0.048 A 
HETATM   18  C16 UNK     1      28.789  -6.374  36.882  1.00  0.00     0.089 A 
HETATM   19  C20 UNK     1      30.596  -4.779  37.116  1.00  0.00     0.018 A 
HETATM   20  O3  UNK     1      28.118  -7.366  36.211  1.00  0.00    -0.321 OA
HETATM   21  C21 UNK     1      28.259  -5.959  38.104  1.00  0.00     0.038 A 
HETATM   22  C14 UNK     1      28.635  -7.780  35.008  1.00  0.00     0.154 A 
HETATM   23  C24 UNK     1      28.897  -4.954  38.832  1.00  0.00     0.003 A 
HETATM   24  C23 UNK     1      30.063  -4.366  38.338  1.00  0.00     0.001 A 
ENDBRANCH   3  14
BRANCH   8  25
HETATM   25  C11 UNK     1      31.886  -9.483  34.098  1.00  0.00     0.292 C 
HETATM   26  O4  UNK     1      31.852 -10.202  35.080  1.00  0.00    -0.259 OA
BRANCH  25  27
HETATM   27  O2  UNK     1      32.930  -8.764  33.620  1.00  0.00    -0.318 OA
BRANCH  27  28
HETATM   28  C17 UNK     1      33.569  -9.317  32.465  1.00  0.00     0.179 C 
BRANCH  28  29
HETATM   29  C18 UNK     1      33.704  -8.229  31.409  1.00  0.00     0.027 C 
BRANCH  29  30
HETATM   30  C19 UNK     1      32.721  -8.435  30.258  1.00  0.00     0.002 C 
BRANCH  30  31
HETATM   31  C22 UNK     1      32.121  -7.107  29.795  1.00  0.00    -0.004 C 
HETATM   32  C25 UNK     1      31.009  -7.322  28.781  1.00  0.00     0.005 C 
ENDBRANCH  30  31
ENDBRANCH  29  30
ENDBRANCH  28  29
ENDBRANCH  27  28
ENDBRANCH  25  27
ENDBRANCH   8  25
TORSDOF 7
ENDMDL
MODEL 8
REMARK VINA RESULT:      -7.2      2.392      6.467
REMARK  7 active torsions:
REMARK  status: ('A' for Active; 'I' for Inactive)
REMARK    1  A    between atoms: C11_17  and  O2_2 
REMARK    2  A    between atoms: C17_23  and  O2_2 
REMARK    3  A    between atoms: C1_7  and  C10_16 
REMARK    4  A    between atoms: C11_17  and  C6_12 
REMARK    5  A    between atoms: C17_23  and  C18_24 
REMARK    6  A    between atoms: C18_24  and  C19_25 
REMARK    7  A    between atoms: C19_25  and  C22_28 
ROOT
HETATM    1  O1  UNK     1      28.836  -7.834  36.683  1.00  0.00    -0.293 OA
HETATM    2  N1  UNK     1      32.776  -5.204  36.716  1.00  0.00    -0.362 N 
HETATM    3  C1  UNK     1      31.341  -7.252  35.376  1.00  0.00     0.104 C 
HETATM    4  C2  UNK     1      30.794  -6.493  36.579  1.00  0.00     0.024 C 
HETATM    5  C3  UNK     1      31.506  -5.509  37.166  1.00  0.00     0.020 C 
HETATM    6  C4  UNK     1      30.993  -4.693  38.323  1.00  0.00     0.058 C 
HETATM    7  C5  UNK     1      29.473  -4.731  38.424  1.00  0.00     0.014 C 
HETATM    8  C6  UNK     1      32.803  -6.909  35.073  1.00  0.00     0.052 C 
HETATM    9  C7  UNK     1      28.964  -6.161  38.381  1.00  0.00     0.084 C 
HETATM   10  C8  UNK     1      29.470  -6.890  37.154  1.00  0.00     0.158 C 
HETATM   11  C9  UNK     1      33.444  -5.911  35.727  1.00  0.00     0.018 C 
HETATM   12  C12 UNK     1      34.871  -5.482  35.514  1.00  0.00     0.069 C 
HETATM   13  H8  UNK     1      33.281  -4.466  37.190  1.00  0.00     0.165 HD
ENDROOT
BRANCH   3  14
HETATM   14  C10 UNK     1      30.484  -6.995  34.166  1.00  0.00     0.029 A 
HETATM   15  C13 UNK     1      29.862  -8.155  33.480  1.00  0.00     0.194 A 
HETATM   16  O5  UNK     1      30.024  -9.305  33.867  1.00  0.00    -0.287 OA
HETATM   17  C15 UNK     1      29.033  -7.848  32.299  1.00  0.00     0.048 A 
HETATM   18  C16 UNK     1      28.882  -6.518  31.902  1.00  0.00     0.089 A 
HETATM   19  C20 UNK     1      28.404  -8.871  31.584  1.00  0.00     0.018 A 
HETATM   20  O3  UNK     1      29.476  -5.475  32.567  1.00  0.00    -0.321 OA
HETATM   21  C21 UNK     1      28.102  -6.205  30.789  1.00  0.00     0.038 A 
HETATM   22  C14 UNK     1      30.246  -5.777  33.664  1.00  0.00     0.154 A 
HETATM   23  C24 UNK     1      27.474  -7.224  30.073  1.00  0.00     0.003 A 
HETATM   24  C23 UNK     1      27.624  -8.554  30.471  1.00  0.00     0.001 A 
ENDBRANCH   3  14
BRANCH   8  25
HETATM   25  C11 UNK     1      33.461  -7.731  34.043  1.00  0.00     0.292 C 
HETATM   26  O4  UNK     1      33.781  -8.892  34.220  1.00  0.00    -0.259 OA
BRANCH  25  27
HETATM   27  O2  UNK     1      33.622  -6.975  32.931  1.00  0.00    -0.318 OA
BRANCH  27  28
HETATM   28  C17 UNK     1      33.629  -7.704  31.699  1.00  0.00     0.179 C 
BRANCH  28  29
HETATM   29  C18 UNK     1      32.389  -7.330  30.899  1.00  0.00     0.027 C 
BRANCH  29  30
HETATM   30  C19 UNK     1      31.853  -8.519  30.104  1.00  0.00     0.002 C 
BRANCH  30  31
HETATM   31  C22 UNK     1      31.037  -8.057  28.896  1.00  0.00    -0.004 C 
HETATM   32  C25 UNK     1      30.364  -9.228  28.198  1.00  0.00     0.005 C 
ENDBRANCH  30  31
ENDBRANCH  29  30
ENDBRANCH  28  29
ENDBRANCH  27  28
ENDBRANCH  25  27
ENDBRANCH   8  25
TORSDOF 7
ENDMDL
MODEL 9
REMARK VINA RESULT:      -7.1      2.778      6.757
REMARK  7 active torsions:
REMARK  status: ('A' for Active; 'I' for Inactive)
REMARK    1  A    between atoms: C11_17  and  O2_2 
REMARK    2  A    between atoms: C17_23  and  O2_2 
REMARK    3  A    between atoms: C1_7  and  C10_16 
REMARK    4  A    between atoms: C11_17  and  C6_12 
REMARK    5  A    between atoms: C17_23  and  C18_24 
REMARK    6  A    between atoms: C18_24  and  C19_25 
REMARK    7  A    between atoms: C19_25  and  C22_28 
ROOT
HETATM    1  O1  UNK     1      30.504 -10.189  35.376  1.00  0.00    -0.293 OA
HETATM    2  N1  UNK     1      34.395  -7.489  35.305  1.00  0.00    -0.362 N 
HETATM    3  C1  UNK     1      32.471  -8.860  33.736  1.00  0.00     0.104 C 
HETATM    4  C2  UNK     1      32.400  -8.764  35.256  1.00  0.00     0.024 C 
HETATM    5  C3  UNK     1      33.328  -8.077  35.955  1.00  0.00     0.020 C 
HETATM    6  C4  UNK     1      33.279  -7.907  37.450  1.00  0.00     0.058 C 
HETATM    7  C5  UNK     1      31.878  -8.127  38.008  1.00  0.00     0.014 C 
HETATM    8  C6  UNK     1      33.770  -8.284  33.164  1.00  0.00     0.052 C 
HETATM    9  C7  UNK     1      31.292  -9.432  37.498  1.00  0.00     0.084 C 
HETATM   10  C8  UNK     1      31.318  -9.495  35.986  1.00  0.00     0.158 C 
HETATM   11  C9  UNK     1      34.653  -7.622  33.948  1.00  0.00     0.018 C 
HETATM   12  C12 UNK     1      35.954  -7.012  33.502  1.00  0.00     0.069 C 
HETATM   13  H8  UNK     1      35.076  -6.992  35.867  1.00  0.00     0.165 HD
ENDROOT
BRANCH   3  14
HETATM   14  C10 UNK     1      31.281  -8.177  33.117  1.00  0.00     0.029 A 
HETATM   15  C13 UNK     1      30.399  -8.966  32.220  1.00  0.00     0.194 A 
HETATM   16  O5  UNK     1      30.610 -10.145  31.972  1.00  0.00    -0.287 OA
HETATM   17  C15 UNK     1      29.249  -8.248  31.639  1.00  0.00     0.048 A 
HETATM   18  C16 UNK     1      29.057  -6.903  31.956  1.00  0.00     0.089 A 
HETATM   19  C20 UNK     1      28.360  -8.903  30.782  1.00  0.00     0.018 A 
HETATM   20  O3  UNK     1      29.897  -6.212  32.792  1.00  0.00    -0.321 OA
HETATM   21  C21 UNK     1      27.975  -6.206  31.419  1.00  0.00     0.038 A 
HETATM   22  C14 UNK     1      30.965  -6.893  33.325  1.00  0.00     0.154 A 
HETATM   23  C24 UNK     1      27.087  -6.856  30.563  1.00  0.00     0.003 A 
HETATM   24  C23 UNK     1      27.279  -8.202  30.246  1.00  0.00     0.001 A 
ENDBRANCH   3  14
BRANCH   8  25
HETATM   25  C11 UNK     1      33.997  -8.503  31.726  1.00  0.00     0.292 C 
HETATM   26  O4  UNK     1      34.310  -9.582  31.256  1.00  0.00    -0.259 OA
BRANCH  25  27
HETATM   27  O2  UNK     1      33.796  -7.331  31.078  1.00  0.00    -0.318 OA
BRANCH  27  28
HETATM   28  C17 UNK     1      33.347  -7.456  29.724  1.00  0.00     0.179 C 
BRANCH  28  29
HETATM   29  C18 UNK     1      31.958  -6.845  29.608  1.00  0.00     0.027 C 
BRANCH  29  30
HETATM   30  C19 UNK     1      31.106  -7.577  28.573  1.00  0.00     0.002 C 
BRANCH  30  31
HETATM   31  C22 UNK     1      31.409  -9.075  28.562  1.00  0.00    -0.004 C 
HETATM   32  C25 UNK     1      30.278  -9.868  27.926  1.00  0.00     0.005 C 
ENDBRANCH  30  31
ENDBRANCH  29  30
ENDBRANCH  28  29
ENDBRANCH  27  28
ENDBRANCH  25  27
ENDBRANCH   8  25
TORSDOF 7
ENDMDL
MODEL 10
REMARK VINA RESULT:      -7.0      2.223      5.739
REMARK  7 active torsions:
REMARK  status: ('A' for Active; 'I' for Inactive)
REMARK    1  A    between atoms: C11_17  and  O2_2 
REMARK    2  A    between atoms: C17_23  and  O2_2 
REMARK    3  A    between atoms: C1_7  and  C10_16 
REMARK    4  A    between atoms: C11_17  and  C6_12 
REMARK    5  A    between atoms: C17_23  and  C18_24 
REMARK    6  A    between atoms: C18_24  and  C19_25 
REMARK    7  A    between atoms: C19_25  and  C22_28 
ROOT
HETATM    1  O1  UNK     1      27.341  -7.161  36.742  1.00  0.00    -0.293 OA
HETATM    2  N1  UNK     1      31.843  -6.268  37.910  1.00  0.00    -0.362 N 
HETATM    3  C1  UNK     1      30.117  -7.700  36.173  1.00  0.00     0.104 C 
HETATM    4  C2  UNK     1      29.622  -6.696  37.208  1.00  0.00     0.024 C 
HETATM    5  C3  UNK     1      30.487  -6.021  37.994  1.00  0.00     0.020 C 
HETATM    6  C4  UNK     1      30.057  -4.982  38.995  1.00  0.00     0.058 C 
HETATM    7  C5  UNK     1      28.675  -4.420  38.683  1.00  0.00     0.014 C 
HETATM    8  C6  UNK     1      31.620  -7.975  36.283  1.00  0.00     0.052 C 
HETATM    9  C7  UNK     1      27.674  -5.540  38.461  1.00  0.00     0.084 C 
HETATM   10  C8  UNK     1      28.150  -6.502  37.394  1.00  0.00     0.158 C 
HETATM   11  C9  UNK     1      32.409  -7.255  37.115  1.00  0.00     0.018 C 
HETATM   12  C12 UNK     1      33.892  -7.430  37.306  1.00  0.00     0.069 C 
HETATM   13  H8  UNK     1      32.458  -5.749  38.525  1.00  0.00     0.165 HD
ENDROOT
BRANCH   3  14
HETATM   14  C10 UNK     1      29.774  -7.227  34.786  1.00  0.00     0.029 A 
HETATM   15  C13 UNK     1      28.992  -8.130  33.903  1.00  0.00     0.194 A 
HETATM   16  O5  UNK     1      28.620  -9.237  34.269  1.00  0.00    -0.287 OA
HETATM   17  C15 UNK     1      28.685  -7.618  32.554  1.00  0.00     0.048 A 
HETATM   18  C16 UNK     1      29.134  -6.348  32.191  1.00  0.00     0.089 A 
HETATM   19  C20 UNK     1      27.954  -8.392  31.649  1.00  0.00     0.018 A 
HETATM   20  O3  UNK     1      29.854  -5.546  33.040  1.00  0.00    -0.321 OA
HETATM   21  C21 UNK     1      28.854  -5.844  30.921  1.00  0.00     0.038 A 
HETATM   22  C14 UNK     1      30.134  -6.036  34.292  1.00  0.00     0.154 A 
HETATM   23  C24 UNK     1      28.125  -6.615  30.014  1.00  0.00     0.003 A 
HETATM   24  C23 UNK     1      27.675  -7.885  30.378  1.00  0.00     0.001 A 
ENDBRANCH   3  14
BRANCH   8  25
HETATM   25  C11 UNK     1      32.141  -9.066  35.444  1.00  0.00     0.292 C 
HETATM   26  O4  UNK     1      32.036 -10.243  35.736  1.00  0.00    -0.259 OA
BRANCH  25  27
HETATM   27  O2  UNK     1      32.723  -8.522  34.348  1.00  0.00    -0.318 OA
BRANCH  27  28
HETATM   28  C17 UNK     1      34.016  -9.045  34.025  1.00  0.00     0.179 C 
BRANCH  28  29
HETATM   29  C18 UNK     1      34.949  -7.887  33.702  1.00  0.00     0.027 C 
BRANCH  29  30
HETATM   30  C19 UNK     1      34.175  -6.598  33.434  1.00  0.00     0.002 C 
BRANCH  30  31
HETATM   31  C22 UNK     1      34.667  -5.458  34.326  1.00  0.00    -0.004 C 
HETATM   32  C25 UNK     1      33.513  -4.604  34.825  1.00  0.00     0.005 C 
ENDBRANCH  30  31
ENDBRANCH  29  30
ENDBRANCH  28  29
ENDBRANCH  27  28
ENDBRANCH  25  27
ENDBRANCH   8  25
TORSDOF 7
ENDMDL
