MODEL 1
REMARK VINA RESULT:     -10.1      0.000      0.000
REMARK  3 active torsions:
REMARK  status: ('A' for Active; 'I' for Inactive)
REMARK    1  A    between atoms: C12_22  and  N3_9 
REMARK    2  A    between atoms: C14_24  and  N4_10 
REMARK    3  A    between atoms: C1_11  and  C2_12 
ROOT
HETATM    1  O1  UNK     1      18.371  -3.317  13.182  1.00  0.00    -0.274 OA
HETATM    2  O2  UNK     1      17.577  -2.544  15.176  1.00  0.00    -0.259 OA
HETATM    3  C2  UNK     1      19.249  -1.223  14.112  1.00  0.00     0.086 A 
HETATM    4  C5  UNK     1      20.097  -2.081  12.002  1.00  0.00     0.001 A 
HETATM    5  C6  UNK     1      20.075  -1.089  13.064  1.00  0.00     0.035 A 
HETATM    6  C7  UNK     1      19.241  -3.173  12.085  1.00  0.00     0.089 A 
HETATM    7  C9  UNK     1      18.332  -2.390  14.222  1.00  0.00     0.302 A 
HETATM    8  C11 UNK     1      20.948  -1.973  10.899  1.00  0.00     0.050 A 
HETATM    9  C13 UNK     1      19.212  -4.159  11.101  1.00  0.00     0.041 A 
HETATM   10  C14 UNK     1      20.930  -2.953   9.902  1.00  0.00     0.103 A 
HETATM   11  C16 UNK     1      20.064  -4.044  10.003  1.00  0.00     0.039 A 
ENDROOT
BRANCH   3  12
HETATM   12  C1  UNK     1      19.247  -0.225  15.136  1.00  0.00     0.145 A 
HETATM   13  N1  UNK     1      19.096  -0.649  16.426  1.00  0.00    -0.338 N 
HETATM   14  C3  UNK     1      19.124   0.457  17.237  1.00  0.00     0.065 A 
HETATM   15  H1  UNK     1      18.973  -1.601  16.744  1.00  0.00     0.167 HD
HETATM   16  C8  UNK     1      19.016   0.611  18.620  1.00  0.00     0.068 A 
HETATM   17  C4  UNK     1      19.296   1.525  16.360  1.00  0.00     0.086 A 
HETATM   18  C12 UNK     1      19.088   1.917  19.116  1.00  0.00     0.105 A 
HETATM   19  C15 UNK     1      19.261   3.008  18.260  1.00  0.00     0.038 A 
HETATM   20  C10 UNK     1      19.366   2.830  16.876  1.00  0.00     0.036 A 
HETATM   21  N2  UNK     1      19.370   1.082  15.059  1.00  0.00    -0.228 NA
BRANCH  18  22
HETATM   22  N3  UNK     1      18.983   2.136  20.516  1.00  0.00    -0.116 N 
HETATM   23  O3  UNK     1      17.856   2.058  21.059  1.00  0.00    -0.532 OA
HETATM   24  O4  UNK     1      20.022   2.400  21.168  1.00  0.00    -0.532 OA
ENDBRANCH  18  22
ENDBRANCH   3  12
BRANCH  10  25
HETATM   25  N4  UNK     1      21.795  -2.839   8.782  1.00  0.00    -0.116 N 
HETATM   26  O5  UNK     1      21.420  -2.167   7.790  1.00  0.00    -0.532 OA
HETATM   27  O6  UNK     1      22.910  -3.413   8.815  1.00  0.00    -0.532 OA
ENDBRANCH  10  25
TORSDOF 3
ENDMDL
MODEL 2
REMARK VINA RESULT:      -9.8      3.135      9.067
REMARK  3 active torsions:
REMARK  status: ('A' for Active; 'I' for Inactive)
REMARK    1  A    between atoms: C12_22  and  N3_9 
REMARK    2  A    between atoms: C14_24  and  N4_10 
REMARK    3  A    between atoms: C1_11  and  C2_12 
ROOT
HETATM    1  O1  UNK     1      19.309   0.855  15.002  1.00  0.00    -0.274 OA
HETATM    2  O2  UNK     1      19.329  -0.668  13.303  1.00  0.00    -0.259 OA
HETATM    3  C2  UNK     1      18.903  -1.515  15.487  1.00  0.00     0.086 A 
HETATM    4  C5  UNK     1      18.911   0.123  17.283  1.00  0.00     0.001 A 
HETATM    5  C6  UNK     1      18.773  -1.239  16.794  1.00  0.00     0.035 A 
HETATM    6  C7  UNK     1      19.175   1.141  16.373  1.00  0.00     0.089 A 
HETATM    7  C9  UNK     1      19.193  -0.440  14.500  1.00  0.00     0.302 A 
HETATM    8  C11 UNK     1      18.786   0.444  18.637  1.00  0.00     0.050 A 
HETATM    9  C13 UNK     1      19.318   2.467  16.777  1.00  0.00     0.041 A 
HETATM   10  C14 UNK     1      18.926   1.770  19.058  1.00  0.00     0.103 A 
HETATM   11  C16 UNK     1      19.191   2.779  18.129  1.00  0.00     0.039 A 
ENDROOT
BRANCH   3  12
HETATM   12  C1  UNK     1      18.753  -2.865  15.038  1.00  0.00     0.145 A 
HETATM   13  N1  UNK     1      19.858  -3.480  14.520  1.00  0.00    -0.338 N 
HETATM   14  C3  UNK     1      19.497  -4.753  14.156  1.00  0.00     0.065 A 
HETATM   15  H1  UNK     1      20.780  -3.080  14.405  1.00  0.00     0.167 HD
HETATM   16  C8  UNK     1      20.213  -5.804  13.583  1.00  0.00     0.068 A 
HETATM   17  C4  UNK     1      18.147  -4.838  14.488  1.00  0.00     0.086 A 
HETATM   18  C12 UNK     1      19.509  -6.989  13.343  1.00  0.00     0.105 A 
HETATM   19  C15 UNK     1      18.155  -7.104  13.666  1.00  0.00     0.038 A 
HETATM   20  C10 UNK     1      17.456  -6.035  14.240  1.00  0.00     0.036 A 
HETATM   21  N2  UNK     1      17.703  -3.656  15.035  1.00  0.00    -0.228 NA
BRANCH  18  22
HETATM   22  N3  UNK     1      20.186  -8.094  12.760  1.00  0.00    -0.116 N 
HETATM   23  O3  UNK     1      19.541  -8.883  12.029  1.00  0.00    -0.532 OA
HETATM   24  O4  UNK     1      21.409  -8.249  12.993  1.00  0.00    -0.532 OA
ENDBRANCH  18  22
ENDBRANCH   3  12
BRANCH  10  25
HETATM   25  N4  UNK     1      18.797   2.093  20.434  1.00  0.00    -0.116 N 
HETATM   26  O5  UNK     1      17.664   2.023  20.971  1.00  0.00    -0.532 OA
HETATM   27  O6  UNK     1      19.818   2.439  21.075  1.00  0.00    -0.532 OA
ENDBRANCH  10  25
TORSDOF 3
ENDMDL
MODEL 3
REMARK VINA RESULT:      -9.7     15.509     17.920
REMARK  3 active torsions:
REMARK  status: ('A' for Active; 'I' for Inactive)
REMARK    1  A    between atoms: C12_22  and  N3_9 
REMARK    2  A    between atoms: C14_24  and  N4_10 
REMARK    3  A    between atoms: C1_11  and  C2_12 
ROOT
HETATM    1  O1  UNK     1      19.039   1.358  28.686  1.00  0.00    -0.274 OA
HETATM    2  O2  UNK     1      18.202   3.476  28.547  1.00  0.00    -0.259 OA
HETATM    3  C2  UNK     1      18.751   2.689  30.726  1.00  0.00     0.086 A 
HETATM    4  C5  UNK     1      19.617   0.421  30.851  1.00  0.00     0.001 A 
HETATM    5  C6  UNK     1      19.214   1.673  31.470  1.00  0.00     0.035 A 
HETATM    6  C7  UNK     1      19.522   0.293  29.470  1.00  0.00     0.089 A 
HETATM    7  C9  UNK     1      18.634   2.567  29.248  1.00  0.00     0.302 A 
HETATM    8  C11 UNK     1      20.100  -0.658  31.597  1.00  0.00     0.050 A 
HETATM    9  C13 UNK     1      19.893  -0.879  28.814  1.00  0.00     0.041 A 
HETATM   10  C14 UNK     1      20.477  -1.840  30.953  1.00  0.00     0.103 A 
HETATM   11  C16 UNK     1      20.373  -1.951  29.565  1.00  0.00     0.039 A 
ENDROOT
BRANCH   3  12
HETATM   12  C1  UNK     1      18.370   3.910  31.367  1.00  0.00     0.145 A 
HETATM   13  N1  UNK     1      19.362   4.804  31.655  1.00  0.00    -0.338 N 
HETATM   14  C3  UNK     1      18.784   5.892  32.258  1.00  0.00     0.065 A 
HETATM   15  H1  UNK     1      20.351   4.695  31.475  1.00  0.00     0.167 HD
HETATM   16  C8  UNK     1      19.315   7.083  32.755  1.00  0.00     0.068 A 
HETATM   17  C4  UNK     1      17.427   5.582  32.302  1.00  0.00     0.086 A 
HETATM   18  C12 UNK     1      18.410   7.989  33.318  1.00  0.00     0.105 A 
HETATM   19  C15 UNK     1      17.043   7.706  33.375  1.00  0.00     0.038 A 
HETATM   20  C10 UNK     1      16.533   6.504  32.871  1.00  0.00     0.036 A 
HETATM   21  N2  UNK     1      17.189   4.348  31.743  1.00  0.00    -0.228 NA
BRANCH  18  22
HETATM   22  N3  UNK     1      18.892   9.219  33.842  1.00  0.00    -0.116 N 
HETATM   23  O3  UNK     1      18.279  10.278  33.567  1.00  0.00    -0.532 OA
HETATM   24  O4  UNK     1      19.918   9.210  34.564  1.00  0.00    -0.532 OA
ENDBRANCH  18  22
ENDBRANCH   3  12
BRANCH  10  25
HETATM   25  N4  UNK     1      20.967  -2.934  31.714  1.00  0.00    -0.116 N 
HETATM   26  O5  UNK     1      20.996  -2.839  32.965  1.00  0.00    -0.532 OA
HETATM   27  O6  UNK     1      21.359  -3.964  31.115  1.00  0.00    -0.532 OA
ENDBRANCH  10  25
TORSDOF 3
ENDMDL
MODEL 4
REMARK VINA RESULT:      -9.4      2.876      4.253
REMARK  3 active torsions:
REMARK  status: ('A' for Active; 'I' for Inactive)
REMARK    1  A    between atoms: C12_22  and  N3_9 
REMARK    2  A    between atoms: C14_24  and  N4_10 
REMARK    3  A    between atoms: C1_11  and  C2_12 
ROOT
HETATM    1  O1  UNK     1      19.442  -2.757  13.204  1.00  0.00    -0.274 OA
HETATM    2  O2  UNK     1      20.144  -0.628  13.626  1.00  0.00    -0.259 OA
HETATM    3  C2  UNK     1      18.969  -1.729  15.380  1.00  0.00     0.086 A 
HETATM    4  C5  UNK     1      18.209  -3.986  14.897  1.00  0.00     0.001 A 
HETATM    5  C6  UNK     1      18.331  -2.839  15.781  1.00  0.00     0.035 A 
HETATM    6  C7  UNK     1      18.770  -3.920  13.627  1.00  0.00     0.089 A 
HETATM    7  C9  UNK     1      19.568  -1.636  14.021  1.00  0.00     0.302 A 
HETATM    8  C11 UNK     1      17.548  -5.156  15.282  1.00  0.00     0.050 A 
HETATM    9  C13 UNK     1      18.690  -4.984  12.732  1.00  0.00     0.041 A 
HETATM   10  C14 UNK     1      17.460  -6.234  14.395  1.00  0.00     0.103 A 
HETATM   11  C16 UNK     1      18.029  -6.148  13.123  1.00  0.00     0.039 A 
ENDROOT
BRANCH   3  12
HETATM   12  C1  UNK     1      19.077  -0.620  16.278  1.00  0.00     0.145 A 
HETATM   13  N1  UNK     1      19.317  -0.899  17.594  1.00  0.00    -0.338 N 
HETATM   14  C3  UNK     1      19.385   0.293  18.269  1.00  0.00     0.065 A 
HETATM   15  H1  UNK     1      19.416  -1.813  18.014  1.00  0.00     0.167 HD
HETATM   16  C8  UNK     1      19.604   0.600  19.613  1.00  0.00     0.068 A 
HETATM   17  C4  UNK     1      19.175   1.259  17.288  1.00  0.00     0.086 A 
HETATM   18  C12 UNK     1      19.607   1.956  19.956  1.00  0.00     0.105 A 
HETATM   19  C15 UNK     1      19.400   2.947  18.994  1.00  0.00     0.038 A 
HETATM   20  C10 UNK     1      19.182   2.616  17.651  1.00  0.00     0.036 A 
HETATM   21  N2  UNK     1      18.987   0.673  16.058  1.00  0.00    -0.228 NA
BRANCH  18  22
HETATM   22  N3  UNK     1      19.824   2.330  21.310  1.00  0.00    -0.116 N 
HETATM   23  O3  UNK     1      20.993   2.319  21.763  1.00  0.00    -0.532 OA
HETATM   24  O4  UNK     1      18.839   2.660  22.014  1.00  0.00    -0.532 OA
ENDBRANCH  18  22
ENDBRANCH   3  12
BRANCH  10  25
HETATM   25  N4  UNK     1      16.789  -7.421  14.790  1.00  0.00    -0.116 N 
HETATM   26  O5  UNK     1      16.235  -8.126  13.912  1.00  0.00    -0.532 OA
HETATM   27  O6  UNK     1      16.768  -7.732  16.005  1.00  0.00    -0.532 OA
ENDBRANCH  10  25
TORSDOF 3
ENDMDL
MODEL 5
REMARK VINA RESULT:      -9.2     21.726     22.902
REMARK  3 active torsions:
REMARK  status: ('A' for Active; 'I' for Inactive)
REMARK    1  A    between atoms: C12_22  and  N3_9 
REMARK    2  A    between atoms: C14_24  and  N4_10 
REMARK    3  A    between atoms: C1_11  and  C2_12 
ROOT
HETATM    1  O1  UNK     1      18.668  -8.361  37.003  1.00  0.00    -0.274 OA
HETATM    2  O2  UNK     1      17.402  -6.469  37.135  1.00  0.00    -0.259 OA
HETATM    3  C2  UNK     1      19.661  -6.191  36.437  1.00  0.00     0.086 A 
HETATM    4  C5  UNK     1      20.997  -8.218  36.329  1.00  0.00     0.001 A 
HETATM    5  C6  UNK     1      20.838  -6.781  36.181  1.00  0.00     0.035 A 
HETATM    6  C7  UNK     1      19.905  -8.977  36.736  1.00  0.00     0.089 A 
HETATM    7  C9  UNK     1      18.484  -6.986  36.882  1.00  0.00     0.302 A 
HETATM    8  C11 UNK     1      22.210  -8.864  36.074  1.00  0.00     0.050 A 
HETATM    9  C13 UNK     1      19.990 -10.359  36.896  1.00  0.00     0.041 A 
HETATM   10  C14 UNK     1      22.311 -10.250  36.229  1.00  0.00     0.103 A 
HETATM   11  C16 UNK     1      21.204 -10.996  36.639  1.00  0.00     0.039 A 
ENDROOT
BRANCH   3  12
HETATM   12  C1  UNK     1      19.537  -4.775  36.275  1.00  0.00     0.145 A 
HETATM   13  N1  UNK     1      18.600  -4.136  37.037  1.00  0.00    -0.338 N 
HETATM   14  C3  UNK     1      18.649  -2.800  36.727  1.00  0.00     0.065 A 
HETATM   15  H1  UNK     1      17.968  -4.556  37.704  1.00  0.00     0.167 HD
HETATM   16  C8  UNK     1      17.927  -1.701  37.194  1.00  0.00     0.068 A 
HETATM   17  C4  UNK     1      19.648  -2.705  35.762  1.00  0.00     0.086 A 
HETATM   18  C12 UNK     1      18.249  -0.456  36.643  1.00  0.00     0.105 A 
HETATM   19  C15 UNK     1      19.246  -0.329  35.674  1.00  0.00     0.038 A 
HETATM   20  C10 UNK     1      19.958  -1.447  35.220  1.00  0.00     0.036 A 
HETATM   21  N2  UNK     1      20.188  -3.941  35.494  1.00  0.00    -0.228 NA
BRANCH  18  22
HETATM   22  N3  UNK     1      17.547   0.700  37.079  1.00  0.00    -0.116 N 
HETATM   23  O3  UNK     1      16.296   0.722  36.983  1.00  0.00    -0.532 OA
HETATM   24  O4  UNK     1      18.197   1.665  37.547  1.00  0.00    -0.532 OA
ENDBRANCH  18  22
ENDBRANCH   3  12
BRANCH  10  25
HETATM   25  N4  UNK     1      23.544 -10.903  35.968  1.00  0.00    -0.116 N 
HETATM   26  O5  UNK     1      23.538 -11.976  35.317  1.00  0.00    -0.532 OA
HETATM   27  O6  UNK     1      24.606 -10.389  36.395  1.00  0.00    -0.532 OA
ENDBRANCH  10  25
TORSDOF 3
ENDMDL
MODEL 6
REMARK VINA RESULT:      -9.1     18.623     21.242
REMARK  3 active torsions:
REMARK  status: ('A' for Active; 'I' for Inactive)
REMARK    1  A    between atoms: C12_22  and  N3_9 
REMARK    2  A    between atoms: C14_24  and  N4_10 
REMARK    3  A    between atoms: C1_11  and  C2_12 
ROOT
HETATM    1  O1  UNK     1      18.271   3.549  31.401  1.00  0.00    -0.274 OA
HETATM    2  O2  UNK     1      18.352   1.291  31.711  1.00  0.00    -0.259 OA
HETATM    3  C2  UNK     1      18.265   2.632  33.676  1.00  0.00     0.086 A 
HETATM    4  C5  UNK     1      18.206   5.036  33.320  1.00  0.00     0.001 A 
HETATM    5  C6  UNK     1      18.222   3.871  34.189  1.00  0.00     0.035 A 
HETATM    6  C7  UNK     1      18.228   4.848  31.943  1.00  0.00     0.089 A 
HETATM    7  C9  UNK     1      18.299   2.412  32.204  1.00  0.00     0.302 A 
HETATM    8  C11 UNK     1      18.165   6.340  33.822  1.00  0.00     0.050 A 
HETATM    9  C13 UNK     1      18.213   5.921  31.055  1.00  0.00     0.041 A 
HETATM   10  C14 UNK     1      18.148   7.427  32.944  1.00  0.00     0.103 A 
HETATM   11  C16 UNK     1      18.172   7.219  31.563  1.00  0.00     0.039 A 
ENDROOT
BRANCH   3  12
HETATM   12  C1  UNK     1      18.273   1.507  34.559  1.00  0.00     0.145 A 
HETATM   13  N1  UNK     1      19.058   0.444  34.214  1.00  0.00    -0.338 N 
HETATM   14  C3  UNK     1      18.920  -0.513  35.188  1.00  0.00     0.065 A 
HETATM   15  H1  UNK     1      19.634   0.355  33.387  1.00  0.00     0.167 HD
HETATM   16  C8  UNK     1      19.480  -1.781  35.345  1.00  0.00     0.068 A 
HETATM   17  C4  UNK     1      18.028   0.047  36.099  1.00  0.00     0.086 A 
HETATM   18  C12 UNK     1      19.106  -2.498  36.486  1.00  0.00     0.105 A 
HETATM   19  C15 UNK     1      18.214  -1.962  37.417  1.00  0.00     0.038 A 
HETATM   20  C10 UNK     1      17.663  -0.687  37.239  1.00  0.00     0.036 A 
HETATM   21  N2  UNK     1      17.637   1.302  35.692  1.00  0.00    -0.228 NA
BRANCH  18  22
HETATM   22  N3  UNK     1      19.644  -3.796  36.699  1.00  0.00    -0.116 N 
HETATM   23  O3  UNK     1      18.864  -4.778  36.737  1.00  0.00    -0.532 OA
HETATM   24  O4  UNK     1      20.884  -3.923  36.843  1.00  0.00    -0.532 OA
ENDBRANCH  18  22
ENDBRANCH   3  12
BRANCH  10  25
HETATM   25  N4  UNK     1      18.106   8.750  33.458  1.00  0.00    -0.116 N 
HETATM   26  O5  UNK     1      19.006   9.124  34.248  1.00  0.00    -0.532 OA
HETATM   27  O6  UNK     1      17.170   9.509  33.107  1.00  0.00    -0.532 OA
ENDBRANCH  10  25
TORSDOF 3
ENDMDL
MODEL 7
REMARK VINA RESULT:      -8.9     15.420     18.071
REMARK  3 active torsions:
REMARK  status: ('A' for Active; 'I' for Inactive)
REMARK    1  A    between atoms: C12_22  and  N3_9 
REMARK    2  A    between atoms: C14_24  and  N4_10 
REMARK    3  A    between atoms: C1_11  and  C2_12 
ROOT
HETATM    1  O1  UNK     1      18.845   1.994  28.703  1.00  0.00    -0.274 OA
HETATM    2  O2  UNK     1      18.144   4.165  28.744  1.00  0.00    -0.259 OA
HETATM    3  C2  UNK     1      18.801   3.219  30.828  1.00  0.00     0.086 A 
HETATM    4  C5  UNK     1      19.520   0.898  30.763  1.00  0.00     0.001 A 
HETATM    5  C6  UNK     1      19.249   2.135  31.478  1.00  0.00     0.035 A 
HETATM    6  C7  UNK     1      19.313   0.857  29.388  1.00  0.00     0.089 A 
HETATM    7  C9  UNK     1      18.566   3.192  29.358  1.00  0.00     0.302 A 
HETATM    8  C11 UNK     1      19.983  -0.251  31.410  1.00  0.00     0.050 A 
HETATM    9  C13 UNK     1      19.553  -0.296  28.644  1.00  0.00     0.041 A 
HETATM   10  C14 UNK     1      20.230  -1.415  30.676  1.00  0.00     0.103 A 
HETATM   11  C16 UNK     1      20.016  -1.438  29.296  1.00  0.00     0.039 A 
ENDROOT
BRANCH   3  12
HETATM   12  C1  UNK     1      18.552   4.422  31.561  1.00  0.00     0.145 A 
HETATM   13  N1  UNK     1      17.254   4.705  31.881  1.00  0.00    -0.338 N 
HETATM   14  C3  UNK     1      17.242   5.888  32.575  1.00  0.00     0.065 A 
HETATM   15  H1  UNK     1      16.436   4.159  31.646  1.00  0.00     0.167 HD
HETATM   16  C8  UNK     1      16.207   6.637  33.136  1.00  0.00     0.068 A 
HETATM   17  C4  UNK     1      18.581   6.267  32.637  1.00  0.00     0.086 A 
HETATM   18  C12 UNK     1      16.568   7.822  33.786  1.00  0.00     0.105 A 
HETATM   19  C15 UNK     1      17.902   8.227  33.865  1.00  0.00     0.038 A 
HETATM   20  C10 UNK     1      18.925   7.460  33.295  1.00  0.00     0.036 A 
HETATM   21  N2  UNK     1      19.380   5.344  32.002  1.00  0.00    -0.228 NA
BRANCH  18  22
HETATM   22  N3  UNK     1      15.556   8.627  34.376  1.00  0.00    -0.116 N 
HETATM   23  O3  UNK     1      15.894   9.565  35.138  1.00  0.00    -0.532 OA
HETATM   24  O4  UNK     1      14.354   8.378  34.117  1.00  0.00    -0.532 OA
ENDBRANCH  18  22
ENDBRANCH   3  12
BRANCH  10  25
HETATM   25  N4  UNK     1      20.702  -2.580  31.337  1.00  0.00    -0.116 N 
HETATM   26  O5  UNK     1      21.128  -3.539  30.647  1.00  0.00    -0.532 OA
HETATM   27  O6  UNK     1      20.681  -2.618  32.590  1.00  0.00    -0.532 OA
ENDBRANCH  10  25
TORSDOF 3
ENDMDL
MODEL 8
REMARK VINA RESULT:      -8.9     20.359     23.000
REMARK  3 active torsions:
REMARK  status: ('A' for Active; 'I' for Inactive)
REMARK    1  A    between atoms: C12_22  and  N3_9 
REMARK    2  A    between atoms: C14_24  and  N4_10 
REMARK    3  A    between atoms: C1_11  and  C2_12 
ROOT
HETATM    1  O1  UNK     1      19.617  -1.323  33.941  1.00  0.00    -0.274 OA
HETATM    2  O2  UNK     1      21.026  -3.084  33.599  1.00  0.00    -0.259 OA
HETATM    3  C2  UNK     1      19.629  -3.196  35.524  1.00  0.00     0.086 A 
HETATM    4  C5  UNK     1      18.155  -1.297  35.880  1.00  0.00     0.001 A 
HETATM    5  C6  UNK     1      18.689  -2.593  36.266  1.00  0.00     0.035 A 
HETATM    6  C7  UNK     1      18.631  -0.691  34.723  1.00  0.00     0.089 A 
HETATM    7  C9  UNK     1      20.157  -2.560  34.286  1.00  0.00     0.302 A 
HETATM    8  C11 UNK     1      17.178  -0.639  36.633  1.00  0.00     0.050 A 
HETATM    9  C13 UNK     1      18.161   0.549  34.297  1.00  0.00     0.041 A 
HETATM   10  C14 UNK     1      16.696   0.606  36.218  1.00  0.00     0.103 A 
HETATM   11  C16 UNK     1      17.186   1.199  35.052  1.00  0.00     0.039 A 
ENDROOT
BRANCH   3  12
HETATM   12  C1  UNK     1      20.127  -4.475  35.928  1.00  0.00     0.145 A 
HETATM   13  N1  UNK     1      20.007  -5.505  35.039  1.00  0.00    -0.338 N 
HETATM   14  C3  UNK     1      20.542  -6.626  35.621  1.00  0.00     0.065 A 
HETATM   15  H1  UNK     1      19.589  -5.469  34.118  1.00  0.00     0.167 HD
HETATM   16  C8  UNK     1      20.684  -7.940  35.173  1.00  0.00     0.068 A 
HETATM   17  C4  UNK     1      20.971  -6.194  36.873  1.00  0.00     0.086 A 
HETATM   18  C12 UNK     1      21.291  -8.843  36.053  1.00  0.00     0.105 A 
HETATM   19  C15 UNK     1      21.732  -8.439  37.315  1.00  0.00     0.038 A 
HETATM   20  C10 UNK     1      21.580  -7.114  37.743  1.00  0.00     0.036 A 
HETATM   21  N2  UNK     1      20.706  -4.855  37.046  1.00  0.00    -0.228 NA
BRANCH  18  22
HETATM   22  N3  UNK     1      21.461 -10.196  35.653  1.00  0.00    -0.116 N 
HETATM   23  O3  UNK     1      21.373 -11.100  36.517  1.00  0.00    -0.532 OA
HETATM   24  O4  UNK     1      21.694 -10.447  34.445  1.00  0.00    -0.532 OA
ENDBRANCH  18  22
ENDBRANCH   3  12
BRANCH  10  25
HETATM   25  N4  UNK     1      15.702   1.270  36.984  1.00  0.00    -0.116 N 
HETATM   26  O5  UNK     1      14.493   1.070  36.715  1.00  0.00    -0.532 OA
HETATM   27  O6  UNK     1      16.061   2.039  37.908  1.00  0.00    -0.532 OA
ENDBRANCH  10  25
TORSDOF 3
ENDMDL
MODEL 9
REMARK VINA RESULT:      -8.8     17.603     22.158
REMARK  3 active torsions:
REMARK  status: ('A' for Active; 'I' for Inactive)
REMARK    1  A    between atoms: C12_22  and  N3_9 
REMARK    2  A    between atoms: C14_24  and  N4_10 
REMARK    3  A    between atoms: C1_11  and  C2_12 
ROOT
HETATM    1  O1  UNK     1      18.221  -0.226  36.121  1.00  0.00    -0.274 OA
HETATM    2  O2  UNK     1      18.364  -1.571  37.957  1.00  0.00    -0.259 OA
HETATM    3  C2  UNK     1      19.303  -2.420  35.940  1.00  0.00     0.086 A 
HETATM    4  C5  UNK     1      19.115  -0.979  33.992  1.00  0.00     0.001 A 
HETATM    5  C6  UNK     1      19.538  -2.211  34.636  1.00  0.00     0.035 A 
HETATM    6  C7  UNK     1      18.467  -0.011  34.751  1.00  0.00     0.089 A 
HETATM    7  C9  UNK     1      18.603  -1.399  36.767  1.00  0.00     0.302 A 
HETATM    8  C11 UNK     1      19.341  -0.731  32.635  1.00  0.00     0.050 A 
HETATM    9  C13 UNK     1      18.037   1.192  34.196  1.00  0.00     0.041 A 
HETATM   10  C14 UNK     1      18.917   0.472  32.063  1.00  0.00     0.103 A 
HETATM   11  C16 UNK     1      18.266   1.431  32.842  1.00  0.00     0.039 A 
ENDROOT
BRANCH   3  12
HETATM   12  C1  UNK     1      19.739  -3.641  36.544  1.00  0.00     0.145 A 
HETATM   13  N1  UNK     1      18.830  -4.657  36.632  1.00  0.00    -0.338 N 
HETATM   14  C3  UNK     1      19.448  -5.722  37.236  1.00  0.00     0.065 A 
HETATM   15  H1  UNK     1      17.867  -4.641  36.324  1.00  0.00     0.167 HD
HETATM   16  C8  UNK     1      19.001  -7.000  37.573  1.00  0.00     0.068 A 
HETATM   17  C4  UNK     1      20.742  -5.273  37.488  1.00  0.00     0.086 A 
HETATM   18  C12 UNK     1      19.926  -7.847  38.195  1.00  0.00     0.105 A 
HETATM   19  C15 UNK     1      21.230  -7.424  38.460  1.00  0.00     0.038 A 
HETATM   20  C10 UNK     1      21.657  -6.137  38.112  1.00  0.00     0.036 A 
HETATM   21  N2  UNK     1      20.904  -3.978  37.051  1.00  0.00    -0.228 NA
BRANCH  18  22
HETATM   22  N3  UNK     1      19.527  -9.160  38.563  1.00  0.00    -0.116 N 
HETATM   23  O3  UNK     1      20.059  -9.698  39.563  1.00  0.00    -0.532 OA
HETATM   24  O4  UNK     1      18.654  -9.744  37.877  1.00  0.00    -0.532 OA
ENDBRANCH  18  22
ENDBRANCH   3  12
BRANCH  10  25
HETATM   25  N4  UNK     1      19.148   0.720  30.684  1.00  0.00    -0.116 N 
HETATM   26  O5  UNK     1      20.217   0.314  30.165  1.00  0.00    -0.532 OA
HETATM   27  O6  UNK     1      18.279   1.337  30.023  1.00  0.00    -0.532 OA
ENDBRANCH  10  25
TORSDOF 3
ENDMDL
MODEL 10
REMARK VINA RESULT:      -8.8     19.318     21.427
REMARK  3 active torsions:
REMARK  status: ('A' for Active; 'I' for Inactive)
REMARK    1  A    between atoms: C12_22  and  N3_9 
REMARK    2  A    between atoms: C14_24  and  N4_10 
REMARK    3  A    between atoms: C1_11  and  C2_12 
ROOT
HETATM    1  O1  UNK     1      17.895   1.707  32.668  1.00  0.00    -0.274 OA
HETATM    2  O2  UNK     1      17.841   3.740  31.635  1.00  0.00    -0.259 OA
HETATM    3  C2  UNK     1      18.443   3.732  33.939  1.00  0.00     0.086 A 
HETATM    4  C5  UNK     1      18.469   1.557  35.023  1.00  0.00     0.001 A 
HETATM    5  C6  UNK     1      18.641   3.000  35.045  1.00  0.00     0.035 A 
HETATM    6  C7  UNK     1      18.101   0.942  33.831  1.00  0.00     0.089 A 
HETATM    7  C9  UNK     1      18.041   3.092  32.657  1.00  0.00     0.302 A 
HETATM    8  C11 UNK     1      18.664   0.765  36.158  1.00  0.00     0.050 A 
HETATM    9  C13 UNK     1      17.921  -0.437  33.742  1.00  0.00     0.041 A 
HETATM   10  C14 UNK     1      18.488  -0.620  36.084  1.00  0.00     0.103 A 
HETATM   11  C16 UNK     1      18.117  -1.220  34.878  1.00  0.00     0.039 A 
ENDROOT
BRANCH   3  12
HETATM   12  C1  UNK     1      18.628   5.149  33.994  1.00  0.00     0.145 A 
HETATM   13  N1  UNK     1      17.506   5.930  33.973  1.00  0.00    -0.338 N 
HETATM   14  C3  UNK     1      17.907   7.241  34.034  1.00  0.00     0.065 A 
HETATM   15  H1  UNK     1      16.547   5.616  33.911  1.00  0.00     0.167 HD
HETATM   16  C8  UNK     1      17.195   8.440  34.044  1.00  0.00     0.068 A 
HETATM   17  C4  UNK     1      19.296   7.175  34.091  1.00  0.00     0.086 A 
HETATM   18  C12 UNK     1      17.946   9.618  34.116  1.00  0.00     0.105 A 
HETATM   19  C15 UNK     1      19.341   9.584  34.175  1.00  0.00     0.038 A 
HETATM   20  C10 UNK     1      20.035   8.368  34.163  1.00  0.00     0.036 A 
HETATM   21  N2  UNK     1      19.726   5.869  34.066  1.00  0.00    -0.228 NA
BRANCH  18  22
HETATM   22  N3  UNK     1      17.276  10.871  34.128  1.00  0.00    -0.116 N 
HETATM   23  O3  UNK     1      17.860  11.877  33.659  1.00  0.00    -0.532 OA
HETATM   24  O4  UNK     1      16.118  10.935  34.607  1.00  0.00    -0.532 OA
ENDBRANCH  18  22
ENDBRANCH   3  12
BRANCH  10  25
HETATM   25  N4  UNK     1      18.687  -1.421  37.239  1.00  0.00    -0.116 N 
HETATM   26  O5  UNK     1      19.316  -2.501  37.128  1.00  0.00    -0.532 OA
HETATM   27  O6  UNK     1      18.230  -1.026  38.339  1.00  0.00    -0.532 OA
ENDBRANCH  10  25
TORSDOF 3
ENDMDL
